data_1066
_audit_creation_date              2023-09-08
_audit_creation_method            'Materials Studio'
_symmetry_space_group_name_H-M    'P1'
_symmetry_Int_Tables_number       1
_symmetry_cell_setting            triclinic
loop_
_symmetry_equiv_pos_as_xyz
  x,y,z
_cell_length_a                    47.3185
_cell_length_b                    90.9704
_cell_length_c                    28.0119
_cell_angle_alpha                 90.0000
_cell_angle_beta                  88.3085
_cell_angle_gamma                 90.0000
loop_
_atom_site_label
_atom_site_type_symbol
_atom_site_fract_x
_atom_site_fract_y
_atom_site_fract_z
_atom_site_U_iso_or_equiv
_atom_site_adp_type
_atom_site_occupancy
C1     C     0.61607   0.73547   0.92254   0.00000  Uiso   1.00
C2     C     0.09241   0.24089   0.94808   0.00000  Uiso   1.00
C3     C     0.08181   0.23336   0.98821   0.00000  Uiso   1.00
C4     C     0.59478   0.72030   0.00296   0.00000  Uiso   1.00
C5     C     0.61778   0.71459   0.97591   0.00000  Uiso   1.00
C6     C     0.62835   0.72217   0.93587   0.00000  Uiso   1.00
C7     C     0.58549   0.71325   0.04818   0.00000  Uiso   1.00
N8     N     0.57372   0.68406   0.19893   0.00000  Uiso   1.00
C9     C     0.56784   0.67859   0.24580   0.00000  Uiso   1.00
C10    C     0.05365   0.18735   0.28024   0.00000  Uiso   1.00
C11    C     0.04871   0.18212   0.32611   0.00000  Uiso   1.00
C12    C     0.55765   0.66802   0.33800   0.00000  Uiso   1.00
C13    C     0.57245   0.65935   0.30422   0.00000  Uiso   1.00
C14    C     0.57788   0.66471   0.25831   0.00000  Uiso   1.00
C15    C     0.35662   0.48620   0.39782   0.00000  Uiso   1.00
C16    C     0.85236   0.97915   0.44190   0.00000  Uiso   1.00
C17    C     0.83853   0.96553   0.44426   0.00000  Uiso   1.00
C18    C     0.82889   0.95886   0.40221   0.00000  Uiso   1.00
C19    C     0.33240   0.46645   0.35862   0.00000  Uiso   1.00
C20    C     0.34624   0.47991   0.35646   0.00000  Uiso   1.00
C21    C     0.81607   0.94394   0.40256   0.00000  Uiso   1.00
N22    N     0.28040   0.39123   0.41477   0.00000  Uiso   1.00
C23    C     0.26708   0.37775   0.40308   0.00000  Uiso   1.00
C24    C     0.27607   0.36556   0.42762   0.00000  Uiso   1.00
C25    C     0.26374   0.35207   0.41982   0.00000  Uiso   1.00
C26    C     0.24193   0.35070   0.38731   0.00000  Uiso   1.00
C27    C     0.73402   0.86272   0.35979   0.00000  Uiso   1.00
C28    C     0.74644   0.87627   0.36750   0.00000  Uiso   1.00
C29    C     0.14370   0.25616   0.88979   0.00000  Uiso   1.00
C30    C     0.14961   0.26134   0.93793   0.00000  Uiso   1.00
C31    C     0.67165   0.75511   0.96285   0.00000  Uiso   1.00
C32    C     0.67874   0.76076   0.00698   0.00000  Uiso   1.00
C33    C     0.16377   0.27276   0.02752   0.00000  Uiso   1.00
C34    C     0.14087   0.27859   0.00223   0.00000  Uiso   1.00
C35    C     0.13396   0.27289   0.95797   0.00000  Uiso   1.00
C36    C     0.17243   0.27924   0.07408   0.00000  Uiso   1.00
N37    N     0.18776   0.30999   0.22110   0.00000  Uiso   1.00
C38    C     0.19731   0.31715   0.26248   0.00000  Uiso   1.00
C39    C     0.72434   0.82339   0.26256   0.00000  Uiso   1.00
C40    C     0.73353   0.83040   0.30343   0.00000  Uiso   1.00
C41    C     0.21575   0.33107   0.34443   0.00000  Uiso   1.00
C42    C     0.18843   0.32507   0.34349   0.00000  Uiso   1.00
C43    C     0.17919   0.31826   0.30249   0.00000  Uiso   1.00
N44    N     0.54983   0.66203   0.38360   0.00000  Uiso   1.00
C45    C     0.15594   0.73538   0.84985   0.00000  Uiso   1.00
C46    C     0.67907   0.24091   0.82365   0.00000  Uiso   1.00
C47    C     0.68948   0.23342   0.78375   0.00000  Uiso   1.00
C48    C     0.17666   0.72025   0.76855   0.00000  Uiso   1.00
C49    C     0.15426   0.71440   0.79737   0.00000  Uiso   1.00
C50    C     0.14408   0.72194   0.83747   0.00000  Uiso   1.00
C51    C     0.18591   0.71312   0.72252   0.00000  Uiso   1.00
N52    N     0.19755   0.68364   0.57115   0.00000  Uiso   1.00
C53    C     0.20391   0.67857   0.52414   0.00000  Uiso   1.00
C54    C     0.71793   0.18767   0.49032   0.00000  Uiso   1.00
C55    C     0.72412   0.18252   0.44484   0.00000  Uiso   1.00
C56    C     0.21653   0.66823   0.43275   0.00000  Uiso   1.00
C57    C     0.20172   0.65930   0.46583   0.00000  Uiso   1.00
C58    C     0.19512   0.66455   0.51138   0.00000  Uiso   1.00
C59    C     0.41669   0.48614   0.37824   0.00000  Uiso   1.00
C60    C     0.92088   0.97912   0.33406   0.00000  Uiso   1.00
C61    C     0.93470   0.96548   0.33155   0.00000  Uiso   1.00
C62    C     0.94431   0.95881   0.37345   0.00000  Uiso   1.00
C63    C     0.44081   0.46618   0.41724   0.00000  Uiso   1.00
C64    C     0.42708   0.47975   0.41958   0.00000  Uiso   1.00
C65    C     0.95713   0.94402   0.37240   0.00000  Uiso   1.00
N66    N     0.49245   0.39120   0.36060   0.00000  Uiso   1.00
C67    C     0.50662   0.37785   0.37091   0.00000  Uiso   1.00
C68    C     0.49779   0.36567   0.34615   0.00000  Uiso   1.00
C69    C     0.51072   0.35229   0.35287   0.00000  Uiso   1.00
C70    C     0.53309   0.35102   0.38434   0.00000  Uiso   1.00
C71    C     0.04091   0.86300   0.41211   0.00000  Uiso   1.00
C72    C     0.02780   0.87645   0.40560   0.00000  Uiso   1.00
C73    C     0.62845   0.25608   0.88243   0.00000  Uiso   1.00
C74    C     0.62264   0.26124   0.83409   0.00000  Uiso   1.00
C75    C     0.10096   0.75484   0.80869   0.00000  Uiso   1.00
C76    C     0.09379   0.76052   0.76461   0.00000  Uiso   1.00
C77    C     0.60844   0.27269   0.74447   0.00000  Uiso   1.00
C78    C     0.63104   0.27867   0.77014   0.00000  Uiso   1.00
C79    C     0.63798   0.27296   0.81438   0.00000  Uiso   1.00
C80    C     0.59982   0.27916   0.69789   0.00000  Uiso   1.00
N81    N     0.58577   0.30959   0.54993   0.00000  Uiso   1.00
C82    C     0.57665   0.31683   0.50842   0.00000  Uiso   1.00
C83    C     0.05080   0.82430   0.50927   0.00000  Uiso   1.00
C84    C     0.04208   0.83149   0.46844   0.00000  Uiso   1.00
C85    C     0.55914   0.33116   0.42650   0.00000  Uiso   1.00
C86    C     0.58532   0.32388   0.42645   0.00000  Uiso   1.00
C87    C     0.59411   0.31686   0.46742   0.00000  Uiso   1.00
N88    N     0.22541   0.66241   0.38748   0.00000  Uiso   1.00
C89    C     0.94095   0.06831   0.38665   0.00000  Uiso   1.00
C90    C     0.95325   0.08224   0.38688   0.00000  Uiso   1.00
C91    C     0.98179   0.08371   0.37364   0.00000  Uiso   1.00
C92    C     0.99803   0.07163   0.36013   0.00000  Uiso   1.00
C93    C     0.98585   0.05776   0.35944   0.00000  Uiso   1.00
C94    C     0.99670   0.09693   0.38384   0.00000  Uiso   1.00
C95    C     0.17959   0.06536   0.63736   0.00000  Uiso   1.00
C96    C     0.19168   0.07917   0.63816   0.00000  Uiso   1.00
C97    C     0.20819   0.08391   0.59939   0.00000  Uiso   1.00
C98    C     0.21255   0.07514   0.55911   0.00000  Uiso   1.00
C99    C     0.20055   0.06115   0.55816   0.00000  Uiso   1.00
C100   C     0.22509   0.09667   0.60634   0.00000  Uiso   1.00
C101   C     0.08242   0.77125   0.66668   0.00000  Uiso   1.00
C102   C     0.07388   0.77742   0.62415   0.00000  Uiso   1.00
C103   C     0.08278   0.79148   0.61116   0.00000  Uiso   1.00
C104   C     0.10009   0.79947   0.64131   0.00000  Uiso   1.00
C105   C     0.10839   0.79346   0.68419   0.00000  Uiso   1.00
C106   C     0.07351   0.79786   0.56651   0.00000  Uiso   1.00
C107   C     0.06003   0.79470   0.05146   0.00000  Uiso   1.00
C108   C     0.05125   0.80105   0.09471   0.00000  Uiso   1.00
C109   C     0.06787   0.79954   0.13450   0.00000  Uiso   1.00
C110   C     0.09307   0.79157   0.13192   0.00000  Uiso   1.00
C111   C     0.10188   0.78516   0.08886   0.00000  Uiso   1.00
C112   C     0.05847   0.80594   0.17930   0.00000  Uiso   1.00
C113   C     0.20345   0.72075   0.68894   0.00000  Uiso   1.00
C114   C     0.21180   0.71430   0.64626   0.00000  Uiso   1.00
C115   C     0.20265   0.70024   0.63556   0.00000  Uiso   1.00
C116   C     0.18484   0.69254   0.66717   0.00000  Uiso   1.00
C117   C     0.17674   0.69882   0.71050   0.00000  Uiso   1.00
C118   C     0.21194   0.69395   0.59070   0.00000  Uiso   1.00
C119   C     0.16343   0.70657   0.08823   0.00000  Uiso   1.00
C120   C     0.17182   0.70055   0.13106   0.00000  Uiso   1.00
C121   C     0.18962   0.70843   0.16070   0.00000  Uiso   1.00
C122   C     0.19892   0.72238   0.14726   0.00000  Uiso   1.00
C123   C     0.19033   0.72855   0.10479   0.00000  Uiso   1.00
C124   C     0.19907   0.70207   0.20529   0.00000  Uiso   1.00
H125   H     0.08262   0.25106   0.93728   0.00000  Uiso   1.00
H126   H     0.06402   0.23788   0.00845   0.00000  Uiso   1.00
H127   H     0.62773   0.70440   0.98599   0.00000  Uiso   1.00
H128   H     0.64648   0.71791   0.91591   0.00000  Uiso   1.00
H129   H     0.04662   0.19833   0.27208   0.00000  Uiso   1.00
H130   H     0.03746   0.18892   0.35207   0.00000  Uiso   1.00
H131   H     0.57955   0.64844   0.31377   0.00000  Uiso   1.00
H132   H     0.58951   0.65799   0.23249   0.00000  Uiso   1.00
H133   H     0.86017   0.98410   0.47404   0.00000  Uiso   1.00
H134   H     0.83607   0.96015   0.47863   0.00000  Uiso   1.00
H135   H     0.32448   0.46197   0.32594   0.00000  Uiso   1.00
H136   H     0.34915   0.48534   0.32235   0.00000  Uiso   1.00
H137   H     0.29253   0.36673   0.45330   0.00000  Uiso   1.00
H138   H     0.27055   0.34281   0.44055   0.00000  Uiso   1.00
H139   H     0.71759   0.86176   0.33384   0.00000  Uiso   1.00
H140   H     0.73918   0.88520   0.34565   0.00000  Uiso   1.00
H141   H     0.68378   0.74606   0.94778   0.00000  Uiso   1.00
H142   H     0.69660   0.75582   0.02362   0.00000  Uiso   1.00
H143   H     0.12802   0.28755   0.01575   0.00000  Uiso   1.00
H144   H     0.11642   0.27751   0.93923   0.00000  Uiso   1.00
H145   H     0.73810   0.82284   0.23097   0.00000  Uiso   1.00
H146   H     0.75458   0.83509   0.30352   0.00000  Uiso   1.00
H147   H     0.17438   0.32571   0.37466   0.00000  Uiso   1.00
H148   H     0.15819   0.31359   0.30225   0.00000  Uiso   1.00
H149   H     0.68887   0.25115   0.83359   0.00000  Uiso   1.00
H150   H     0.70748   0.23825   0.76540   0.00000  Uiso   1.00
H151   H     0.14364   0.70428   0.78922   0.00000  Uiso   1.00
H152   H     0.12633   0.71750   0.85792   0.00000  Uiso   1.00
H153   H     0.72401   0.19881   0.49848   0.00000  Uiso   1.00
H154   H     0.73524   0.18956   0.41942   0.00000  Uiso   1.00
H155   H     0.19549   0.64828   0.45613   0.00000  Uiso   1.00
H156   H     0.18364   0.65767   0.53690   0.00000  Uiso   1.00
H157   H     0.91306   0.98412   0.30198   0.00000  Uiso   1.00
H158   H     0.93745   0.96010   0.29724   0.00000  Uiso   1.00
H159   H     0.44855   0.46135   0.44960   0.00000  Uiso   1.00
H160   H     0.42414   0.48521   0.45365   0.00000  Uiso   1.00
H161   H     0.48088   0.36676   0.32126   0.00000  Uiso   1.00
H162   H     0.50388   0.34303   0.33218   0.00000  Uiso   1.00
H163   H     0.05770   0.86211   0.43743   0.00000  Uiso   1.00
H164   H     0.03500   0.88535   0.42761   0.00000  Uiso   1.00
H165   H     0.08909   0.74565   0.82342   0.00000  Uiso   1.00
H166   H     0.07613   0.75548   0.74770   0.00000  Uiso   1.00
H167   H     0.64362   0.28778   0.75694   0.00000  Uiso   1.00
H168   H     0.65527   0.27772   0.83338   0.00000  Uiso   1.00
H169   H     0.03758   0.82458   0.54153   0.00000  Uiso   1.00
H170   H     0.02191   0.83712   0.46919   0.00000  Uiso   1.00
H171   H     0.59884   0.32366   0.39456   0.00000  Uiso   1.00
H172   H     0.61425   0.31122   0.46692   0.00000  Uiso   1.00
H173   H     0.91903   0.06716   0.39798   0.00000  Uiso   1.00
H174   H     0.94108   0.09172   0.39901   0.00000  Uiso   1.00
H175   H     0.02029   0.07315   0.35129   0.00000  Uiso   1.00
H176   H     0.99912   0.04854   0.34970   0.00000  Uiso   1.00
H177   H     0.01175   0.09631   0.41143   0.00000  Uiso   1.00
H178   H     0.16698   0.06210   0.66834   0.00000  Uiso   1.00
H179   H     0.18886   0.08613   0.66936   0.00000  Uiso   1.00
H180   H     0.22615   0.07894   0.52977   0.00000  Uiso   1.00
H181   H     0.20497   0.05430   0.52741   0.00000  Uiso   1.00
H182   H     0.23929   0.09619   0.63524   0.00000  Uiso   1.00
H183   H     0.07525   0.76022   0.67385   0.00000  Uiso   1.00
H184   H     0.06052   0.77114   0.60106   0.00000  Uiso   1.00
H185   H     0.10691   0.81048   0.63195   0.00000  Uiso   1.00
H186   H     0.12116   0.80035   0.70616   0.00000  Uiso   1.00
H187   H     0.05657   0.79262   0.54755   0.00000  Uiso   1.00
H188   H     0.04703   0.79611   0.02083   0.00000  Uiso   1.00
H189   H     0.03183   0.80733   0.09757   0.00000  Uiso   1.00
H190   H     0.10550   0.79023   0.16350   0.00000  Uiso   1.00
H191   H     0.12127   0.77886   0.08742   0.00000  Uiso   1.00
H192   H     0.03909   0.80180   0.19590   0.00000  Uiso   1.00
H193   H     0.21091   0.73178   0.69393   0.00000  Uiso   1.00
H194   H     0.22518   0.72035   0.62105   0.00000  Uiso   1.00
H195   H     0.17764   0.68158   0.65860   0.00000  Uiso   1.00
H196   H     0.16353   0.69216   0.73376   0.00000  Uiso   1.00
H197   H     0.23035   0.69878   0.57312   0.00000  Uiso   1.00
H198   H     0.15025   0.69977   0.06665   0.00000  Uiso   1.00
H199   H     0.16463   0.68963   0.14079   0.00000  Uiso   1.00
H200   H     0.21270   0.72856   0.16990   0.00000  Uiso   1.00
H201   H     0.19788   0.73949   0.09730   0.00000  Uiso   1.00
H202   H     0.21540   0.70762   0.22487   0.00000  Uiso   1.00
C203   C     0.11607   0.23547   0.92254   0.00000  Uiso   1.00
C204   C     0.59241   0.74089   0.94808   0.00000  Uiso   1.00
C205   C     0.58181   0.73336   0.98821   0.00000  Uiso   1.00
C206   C     0.09478   0.22030   0.00296   0.00000  Uiso   1.00
C207   C     0.11778   0.21459   0.97591   0.00000  Uiso   1.00
C208   C     0.12835   0.22217   0.93587   0.00000  Uiso   1.00
C209   C     0.08549   0.21325   0.04818   0.00000  Uiso   1.00
N210   N     0.07372   0.18406   0.19893   0.00000  Uiso   1.00
C211   C     0.06784   0.17859   0.24580   0.00000  Uiso   1.00
C212   C     0.55365   0.68735   0.28024   0.00000  Uiso   1.00
C213   C     0.54871   0.68212   0.32611   0.00000  Uiso   1.00
C214   C     0.05765   0.16802   0.33800   0.00000  Uiso   1.00
C215   C     0.07245   0.15935   0.30422   0.00000  Uiso   1.00
C216   C     0.07788   0.16471   0.25831   0.00000  Uiso   1.00
C217   C     0.85662   0.98620   0.39782   0.00000  Uiso   1.00
C218   C     0.35236   0.47915   0.44190   0.00000  Uiso   1.00
C219   C     0.33853   0.46553   0.44426   0.00000  Uiso   1.00
C220   C     0.32889   0.45886   0.40221   0.00000  Uiso   1.00
C221   C     0.83240   0.96645   0.35862   0.00000  Uiso   1.00
C222   C     0.84624   0.97991   0.35646   0.00000  Uiso   1.00
C223   C     0.31607   0.44394   0.40256   0.00000  Uiso   1.00
N224   N     0.78040   0.89123   0.41477   0.00000  Uiso   1.00
C225   C     0.76708   0.87775   0.40308   0.00000  Uiso   1.00
C226   C     0.77607   0.86556   0.42762   0.00000  Uiso   1.00
C227   C     0.76374   0.85207   0.41982   0.00000  Uiso   1.00
C228   C     0.74193   0.85070   0.38731   0.00000  Uiso   1.00
C229   C     0.23402   0.36272   0.35979   0.00000  Uiso   1.00
C230   C     0.24644   0.37627   0.36750   0.00000  Uiso   1.00
C231   C     0.64370   0.75616   0.88979   0.00000  Uiso   1.00
C232   C     0.64961   0.76134   0.93793   0.00000  Uiso   1.00
C233   C     0.17165   0.25511   0.96285   0.00000  Uiso   1.00
C234   C     0.17874   0.26076   0.00698   0.00000  Uiso   1.00
C235   C     0.66377   0.77276   0.02752   0.00000  Uiso   1.00
C236   C     0.64087   0.77859   0.00223   0.00000  Uiso   1.00
C237   C     0.63396   0.77289   0.95797   0.00000  Uiso   1.00
C238   C     0.67243   0.77924   0.07408   0.00000  Uiso   1.00
N239   N     0.68776   0.80999   0.22110   0.00000  Uiso   1.00
C240   C     0.69731   0.81715   0.26248   0.00000  Uiso   1.00
C241   C     0.22434   0.32339   0.26256   0.00000  Uiso   1.00
C242   C     0.23353   0.33040   0.30343   0.00000  Uiso   1.00
C243   C     0.71575   0.83107   0.34443   0.00000  Uiso   1.00
C244   C     0.68843   0.82507   0.34349   0.00000  Uiso   1.00
C245   C     0.67919   0.81826   0.30249   0.00000  Uiso   1.00
N246   N     0.04983   0.16203   0.38360   0.00000  Uiso   1.00
C247   C     0.65594   0.23538   0.84985   0.00000  Uiso   1.00
C248   C     0.17907   0.74091   0.82365   0.00000  Uiso   1.00
C249   C     0.18948   0.73342   0.78375   0.00000  Uiso   1.00
C250   C     0.67666   0.22025   0.76855   0.00000  Uiso   1.00
C251   C     0.65426   0.21440   0.79737   0.00000  Uiso   1.00
C252   C     0.64408   0.22194   0.83747   0.00000  Uiso   1.00
C253   C     0.68591   0.21312   0.72252   0.00000  Uiso   1.00
N254   N     0.69755   0.18364   0.57115   0.00000  Uiso   1.00
C255   C     0.70391   0.17857   0.52414   0.00000  Uiso   1.00
C256   C     0.21793   0.68767   0.49032   0.00000  Uiso   1.00
C257   C     0.22412   0.68252   0.44484   0.00000  Uiso   1.00
C258   C     0.71653   0.16823   0.43275   0.00000  Uiso   1.00
C259   C     0.70172   0.15930   0.46583   0.00000  Uiso   1.00
C260   C     0.69512   0.16455   0.51138   0.00000  Uiso   1.00
C261   C     0.91669   0.98614   0.37824   0.00000  Uiso   1.00
C262   C     0.42088   0.47912   0.33406   0.00000  Uiso   1.00
C263   C     0.43470   0.46548   0.33155   0.00000  Uiso   1.00
C264   C     0.44431   0.45881   0.37345   0.00000  Uiso   1.00
C265   C     0.94081   0.96618   0.41724   0.00000  Uiso   1.00
C266   C     0.92708   0.97975   0.41958   0.00000  Uiso   1.00
C267   C     0.45713   0.44402   0.37240   0.00000  Uiso   1.00
N268   N     0.99245   0.89120   0.36060   0.00000  Uiso   1.00
C269   C     0.00662   0.87785   0.37091   0.00000  Uiso   1.00
C270   C     0.99779   0.86567   0.34615   0.00000  Uiso   1.00
C271   C     0.01072   0.85229   0.35287   0.00000  Uiso   1.00
C272   C     0.03309   0.85102   0.38434   0.00000  Uiso   1.00
C273   C     0.54091   0.36300   0.41211   0.00000  Uiso   1.00
C274   C     0.52780   0.37645   0.40560   0.00000  Uiso   1.00
C275   C     0.12845   0.75608   0.88243   0.00000  Uiso   1.00
C276   C     0.12264   0.76124   0.83409   0.00000  Uiso   1.00
C277   C     0.60096   0.25484   0.80869   0.00000  Uiso   1.00
C278   C     0.59379   0.26052   0.76461   0.00000  Uiso   1.00
C279   C     0.10844   0.77269   0.74447   0.00000  Uiso   1.00
C280   C     0.13104   0.77867   0.77014   0.00000  Uiso   1.00
C281   C     0.13798   0.77296   0.81438   0.00000  Uiso   1.00
C282   C     0.09982   0.77916   0.69789   0.00000  Uiso   1.00
N283   N     0.08577   0.80959   0.54993   0.00000  Uiso   1.00
C284   C     0.07665   0.81683   0.50842   0.00000  Uiso   1.00
C285   C     0.55080   0.32430   0.50927   0.00000  Uiso   1.00
C286   C     0.54208   0.33149   0.46844   0.00000  Uiso   1.00
C287   C     0.05914   0.83116   0.42650   0.00000  Uiso   1.00
C288   C     0.08532   0.82388   0.42645   0.00000  Uiso   1.00
C289   C     0.09411   0.81686   0.46742   0.00000  Uiso   1.00
N290   N     0.72541   0.16241   0.38748   0.00000  Uiso   1.00
C291   C     0.44095   0.56831   0.38665   0.00000  Uiso   1.00
C292   C     0.45325   0.58224   0.38688   0.00000  Uiso   1.00
C293   C     0.48179   0.58371   0.37364   0.00000  Uiso   1.00
C294   C     0.49803   0.57163   0.36013   0.00000  Uiso   1.00
C295   C     0.48585   0.55776   0.35944   0.00000  Uiso   1.00
C296   C     0.49670   0.59693   0.38384   0.00000  Uiso   1.00
C297   C     0.67959   0.56536   0.63736   0.00000  Uiso   1.00
C298   C     0.69168   0.57917   0.63816   0.00000  Uiso   1.00
C299   C     0.70819   0.58391   0.59939   0.00000  Uiso   1.00
C300   C     0.71255   0.57514   0.55911   0.00000  Uiso   1.00
C301   C     0.70055   0.56115   0.55816   0.00000  Uiso   1.00
C302   C     0.72509   0.59667   0.60634   0.00000  Uiso   1.00
C303   C     0.58242   0.27125   0.66668   0.00000  Uiso   1.00
C304   C     0.57388   0.27742   0.62415   0.00000  Uiso   1.00
C305   C     0.58278   0.29148   0.61116   0.00000  Uiso   1.00
C306   C     0.60009   0.29947   0.64131   0.00000  Uiso   1.00
C307   C     0.60839   0.29346   0.68419   0.00000  Uiso   1.00
C308   C     0.57351   0.29786   0.56651   0.00000  Uiso   1.00
C309   C     0.56003   0.29470   0.05146   0.00000  Uiso   1.00
C310   C     0.55125   0.30105   0.09471   0.00000  Uiso   1.00
C311   C     0.56787   0.29954   0.13450   0.00000  Uiso   1.00
C312   C     0.59307   0.29157   0.13192   0.00000  Uiso   1.00
C313   C     0.60188   0.28516   0.08886   0.00000  Uiso   1.00
C314   C     0.55847   0.30594   0.17930   0.00000  Uiso   1.00
C315   C     0.70345   0.22075   0.68894   0.00000  Uiso   1.00
C316   C     0.71180   0.21430   0.64626   0.00000  Uiso   1.00
C317   C     0.70265   0.20024   0.63556   0.00000  Uiso   1.00
C318   C     0.68484   0.19254   0.66717   0.00000  Uiso   1.00
C319   C     0.67674   0.19882   0.71050   0.00000  Uiso   1.00
C320   C     0.71194   0.19395   0.59070   0.00000  Uiso   1.00
C321   C     0.66343   0.20657   0.08823   0.00000  Uiso   1.00
C322   C     0.67182   0.20055   0.13106   0.00000  Uiso   1.00
C323   C     0.68962   0.20843   0.16070   0.00000  Uiso   1.00
C324   C     0.69892   0.22238   0.14726   0.00000  Uiso   1.00
C325   C     0.69033   0.22855   0.10479   0.00000  Uiso   1.00
C326   C     0.69907   0.20207   0.20529   0.00000  Uiso   1.00
H327   H     0.58262   0.75106   0.93728   0.00000  Uiso   1.00
H328   H     0.56402   0.73788   0.00845   0.00000  Uiso   1.00
H329   H     0.12773   0.20440   0.98599   0.00000  Uiso   1.00
H330   H     0.14648   0.21791   0.91591   0.00000  Uiso   1.00
H331   H     0.54662   0.69833   0.27208   0.00000  Uiso   1.00
H332   H     0.53746   0.68892   0.35207   0.00000  Uiso   1.00
H333   H     0.07955   0.14844   0.31377   0.00000  Uiso   1.00
H334   H     0.08951   0.15799   0.23249   0.00000  Uiso   1.00
H335   H     0.36017   0.48410   0.47404   0.00000  Uiso   1.00
H336   H     0.33607   0.46015   0.47863   0.00000  Uiso   1.00
H337   H     0.82448   0.96197   0.32594   0.00000  Uiso   1.00
H338   H     0.84915   0.98534   0.32235   0.00000  Uiso   1.00
H339   H     0.79253   0.86673   0.45330   0.00000  Uiso   1.00
H340   H     0.77055   0.84281   0.44055   0.00000  Uiso   1.00
H341   H     0.21759   0.36176   0.33384   0.00000  Uiso   1.00
H342   H     0.23918   0.38520   0.34565   0.00000  Uiso   1.00
H343   H     0.18378   0.24606   0.94778   0.00000  Uiso   1.00
H344   H     0.19660   0.25582   0.02362   0.00000  Uiso   1.00
H345   H     0.62802   0.78755   0.01575   0.00000  Uiso   1.00
H346   H     0.61642   0.77751   0.93923   0.00000  Uiso   1.00
H347   H     0.23810   0.32284   0.23097   0.00000  Uiso   1.00
H348   H     0.25458   0.33509   0.30352   0.00000  Uiso   1.00
H349   H     0.67438   0.82571   0.37466   0.00000  Uiso   1.00
H350   H     0.65819   0.81359   0.30225   0.00000  Uiso   1.00
H351   H     0.18887   0.75115   0.83359   0.00000  Uiso   1.00
H352   H     0.20748   0.73825   0.76540   0.00000  Uiso   1.00
H353   H     0.64364   0.20428   0.78922   0.00000  Uiso   1.00
H354   H     0.62633   0.21750   0.85792   0.00000  Uiso   1.00
H355   H     0.22401   0.69881   0.49848   0.00000  Uiso   1.00
H356   H     0.23524   0.68956   0.41942   0.00000  Uiso   1.00
H357   H     0.69549   0.14828   0.45613   0.00000  Uiso   1.00
H358   H     0.68364   0.15767   0.53690   0.00000  Uiso   1.00
H359   H     0.41306   0.48412   0.30198   0.00000  Uiso   1.00
H360   H     0.43745   0.46010   0.29724   0.00000  Uiso   1.00
H361   H     0.94855   0.96135   0.44960   0.00000  Uiso   1.00
H362   H     0.92414   0.98521   0.45365   0.00000  Uiso   1.00
H363   H     0.98088   0.86676   0.32126   0.00000  Uiso   1.00
H364   H     0.00388   0.84303   0.33218   0.00000  Uiso   1.00
H365   H     0.55770   0.36211   0.43743   0.00000  Uiso   1.00
H366   H     0.53500   0.38535   0.42761   0.00000  Uiso   1.00
H367   H     0.58909   0.24565   0.82342   0.00000  Uiso   1.00
H368   H     0.57613   0.25548   0.74770   0.00000  Uiso   1.00
H369   H     0.14362   0.78778   0.75694   0.00000  Uiso   1.00
H370   H     0.15527   0.77772   0.83338   0.00000  Uiso   1.00
H371   H     0.53758   0.32458   0.54153   0.00000  Uiso   1.00
H372   H     0.52191   0.33712   0.46919   0.00000  Uiso   1.00
H373   H     0.09884   0.82366   0.39456   0.00000  Uiso   1.00
H374   H     0.11425   0.81122   0.46692   0.00000  Uiso   1.00
H375   H     0.41903   0.56716   0.39798   0.00000  Uiso   1.00
H376   H     0.44108   0.59172   0.39901   0.00000  Uiso   1.00
H377   H     0.52029   0.57315   0.35129   0.00000  Uiso   1.00
H378   H     0.49912   0.54854   0.34970   0.00000  Uiso   1.00
H379   H     0.51175   0.59631   0.41143   0.00000  Uiso   1.00
H380   H     0.66698   0.56210   0.66834   0.00000  Uiso   1.00
H381   H     0.68886   0.58613   0.66936   0.00000  Uiso   1.00
H382   H     0.72615   0.57894   0.52977   0.00000  Uiso   1.00
H383   H     0.70497   0.55430   0.52741   0.00000  Uiso   1.00
H384   H     0.73929   0.59619   0.63524   0.00000  Uiso   1.00
H385   H     0.57525   0.26022   0.67385   0.00000  Uiso   1.00
H386   H     0.56052   0.27114   0.60106   0.00000  Uiso   1.00
H387   H     0.60691   0.31048   0.63195   0.00000  Uiso   1.00
H388   H     0.62116   0.30035   0.70616   0.00000  Uiso   1.00
H389   H     0.55657   0.29262   0.54755   0.00000  Uiso   1.00
H390   H     0.54703   0.29611   0.02083   0.00000  Uiso   1.00
H391   H     0.53183   0.30733   0.09757   0.00000  Uiso   1.00
H392   H     0.60550   0.29023   0.16350   0.00000  Uiso   1.00
H393   H     0.62127   0.27886   0.08742   0.00000  Uiso   1.00
H394   H     0.53909   0.30180   0.19590   0.00000  Uiso   1.00
H395   H     0.71091   0.23178   0.69393   0.00000  Uiso   1.00
H396   H     0.72518   0.22035   0.62105   0.00000  Uiso   1.00
H397   H     0.67764   0.18158   0.65860   0.00000  Uiso   1.00
H398   H     0.66353   0.19216   0.73376   0.00000  Uiso   1.00
H399   H     0.73035   0.19878   0.57312   0.00000  Uiso   1.00
H400   H     0.65025   0.19977   0.06665   0.00000  Uiso   1.00
H401   H     0.66463   0.18963   0.14079   0.00000  Uiso   1.00
H402   H     0.71270   0.22856   0.16990   0.00000  Uiso   1.00
H403   H     0.69788   0.23949   0.09730   0.00000  Uiso   1.00
H404   H     0.71540   0.20762   0.22487   0.00000  Uiso   1.00
C405   C     0.38393   0.73547   0.07746   0.00000  Uiso   1.00
C406   C     0.90759   0.24089   0.05192   0.00000  Uiso   1.00
C407   C     0.91819   0.23336   0.01179   0.00000  Uiso   1.00
C408   C     0.40522   0.72030   0.99704   0.00000  Uiso   1.00
C409   C     0.38222   0.71459   0.02409   0.00000  Uiso   1.00
C410   C     0.37165   0.72217   0.06413   0.00000  Uiso   1.00
C411   C     0.41451   0.71325   0.95182   0.00000  Uiso   1.00
N412   N     0.42628   0.68406   0.80107   0.00000  Uiso   1.00
C413   C     0.43216   0.67859   0.75420   0.00000  Uiso   1.00
C414   C     0.94635   0.18735   0.71976   0.00000  Uiso   1.00
C415   C     0.95129   0.18212   0.67389   0.00000  Uiso   1.00
C416   C     0.44235   0.66802   0.66200   0.00000  Uiso   1.00
C417   C     0.42755   0.65935   0.69578   0.00000  Uiso   1.00
C418   C     0.42212   0.66471   0.74169   0.00000  Uiso   1.00
C419   C     0.64338   0.48620   0.60218   0.00000  Uiso   1.00
C420   C     0.14764   0.97915   0.55810   0.00000  Uiso   1.00
C421   C     0.16147   0.96553   0.55574   0.00000  Uiso   1.00
C422   C     0.17111   0.95886   0.59779   0.00000  Uiso   1.00
C423   C     0.66760   0.46645   0.64138   0.00000  Uiso   1.00
C424   C     0.65376   0.47991   0.64354   0.00000  Uiso   1.00
C425   C     0.18393   0.94394   0.59744   0.00000  Uiso   1.00
N426   N     0.71960   0.39123   0.58523   0.00000  Uiso   1.00
C427   C     0.73292   0.37775   0.59692   0.00000  Uiso   1.00
C428   C     0.72393   0.36556   0.57238   0.00000  Uiso   1.00
C429   C     0.73626   0.35207   0.58018   0.00000  Uiso   1.00
C430   C     0.75807   0.35070   0.61269   0.00000  Uiso   1.00
C431   C     0.26598   0.86272   0.64021   0.00000  Uiso   1.00
C432   C     0.25356   0.87627   0.63250   0.00000  Uiso   1.00
C433   C     0.85630   0.25616   0.11021   0.00000  Uiso   1.00
C434   C     0.85039   0.26134   0.06207   0.00000  Uiso   1.00
C435   C     0.32835   0.75511   0.03715   0.00000  Uiso   1.00
C436   C     0.32126   0.76076   0.99302   0.00000  Uiso   1.00
C437   C     0.83623   0.27276   0.97248   0.00000  Uiso   1.00
C438   C     0.85913   0.27859   0.99777   0.00000  Uiso   1.00
C439   C     0.86604   0.27289   0.04203   0.00000  Uiso   1.00
C440   C     0.82757   0.27924   0.92592   0.00000  Uiso   1.00
N441   N     0.81224   0.30999   0.77890   0.00000  Uiso   1.00
C442   C     0.80269   0.31715   0.73752   0.00000  Uiso   1.00
C443   C     0.27566   0.82339   0.73744   0.00000  Uiso   1.00
C444   C     0.26647   0.83040   0.69657   0.00000  Uiso   1.00
C445   C     0.78425   0.33107   0.65557   0.00000  Uiso   1.00
C446   C     0.81157   0.32507   0.65651   0.00000  Uiso   1.00
C447   C     0.82081   0.31826   0.69751   0.00000  Uiso   1.00
N448   N     0.45017   0.66203   0.61640   0.00000  Uiso   1.00
C449   C     0.84406   0.73538   0.15015   0.00000  Uiso   1.00
C450   C     0.32093   0.24091   0.17635   0.00000  Uiso   1.00
C451   C     0.31052   0.23342   0.21625   0.00000  Uiso   1.00
C452   C     0.82334   0.72025   0.23145   0.00000  Uiso   1.00
C453   C     0.84574   0.71440   0.20263   0.00000  Uiso   1.00
C454   C     0.85592   0.72194   0.16253   0.00000  Uiso   1.00
C455   C     0.81409   0.71312   0.27748   0.00000  Uiso   1.00
N456   N     0.80245   0.68364   0.42885   0.00000  Uiso   1.00
C457   C     0.79609   0.67857   0.47586   0.00000  Uiso   1.00
C458   C     0.28207   0.18767   0.50968   0.00000  Uiso   1.00
C459   C     0.27588   0.18252   0.55516   0.00000  Uiso   1.00
C460   C     0.78347   0.66823   0.56725   0.00000  Uiso   1.00
C461   C     0.79828   0.65930   0.53417   0.00000  Uiso   1.00
C462   C     0.80488   0.66455   0.48862   0.00000  Uiso   1.00
C463   C     0.58331   0.48614   0.62176   0.00000  Uiso   1.00
C464   C     0.07912   0.97912   0.66594   0.00000  Uiso   1.00
C465   C     0.06530   0.96548   0.66845   0.00000  Uiso   1.00
C466   C     0.05569   0.95881   0.62655   0.00000  Uiso   1.00
C467   C     0.55919   0.46618   0.58276   0.00000  Uiso   1.00
C468   C     0.57292   0.47975   0.58042   0.00000  Uiso   1.00
C469   C     0.04287   0.94402   0.62760   0.00000  Uiso   1.00
N470   N     0.50755   0.39120   0.63940   0.00000  Uiso   1.00
C471   C     0.49338   0.37785   0.62909   0.00000  Uiso   1.00
C472   C     0.50221   0.36567   0.65385   0.00000  Uiso   1.00
C473   C     0.48928   0.35229   0.64713   0.00000  Uiso   1.00
C474   C     0.46691   0.35102   0.61566   0.00000  Uiso   1.00
C475   C     0.95909   0.86300   0.58789   0.00000  Uiso   1.00
C476   C     0.97220   0.87645   0.59440   0.00000  Uiso   1.00
C477   C     0.37155   0.25608   0.11757   0.00000  Uiso   1.00
C478   C     0.37736   0.26124   0.16591   0.00000  Uiso   1.00
C479   C     0.89904   0.75484   0.19131   0.00000  Uiso   1.00
C480   C     0.90621   0.76052   0.23539   0.00000  Uiso   1.00
C481   C     0.39156   0.27269   0.25553   0.00000  Uiso   1.00
C482   C     0.36896   0.27867   0.22986   0.00000  Uiso   1.00
C483   C     0.36202   0.27296   0.18562   0.00000  Uiso   1.00
C484   C     0.40018   0.27916   0.30211   0.00000  Uiso   1.00
N485   N     0.41423   0.30959   0.45007   0.00000  Uiso   1.00
C486   C     0.42335   0.31683   0.49158   0.00000  Uiso   1.00
C487   C     0.94920   0.82430   0.49073   0.00000  Uiso   1.00
C488   C     0.95792   0.83149   0.53156   0.00000  Uiso   1.00
C489   C     0.44086   0.33116   0.57350   0.00000  Uiso   1.00
C490   C     0.41468   0.32388   0.57355   0.00000  Uiso   1.00
C491   C     0.40589   0.31686   0.53258   0.00000  Uiso   1.00
N492   N     0.77459   0.66241   0.61252   0.00000  Uiso   1.00
C493   C     0.05905   0.06831   0.61335   0.00000  Uiso   1.00
C494   C     0.04675   0.08224   0.61312   0.00000  Uiso   1.00
C495   C     0.01821   0.08371   0.62636   0.00000  Uiso   1.00
C496   C     0.00197   0.07163   0.63987   0.00000  Uiso   1.00
C497   C     0.01415   0.05776   0.64056   0.00000  Uiso   1.00
C498   C     0.00330   0.09693   0.61616   0.00000  Uiso   1.00
C499   C     0.82041   0.06536   0.36264   0.00000  Uiso   1.00
C500   C     0.80832   0.07917   0.36184   0.00000  Uiso   1.00
C501   C     0.79181   0.08391   0.40061   0.00000  Uiso   1.00
C502   C     0.78745   0.07514   0.44089   0.00000  Uiso   1.00
C503   C     0.79945   0.06115   0.44184   0.00000  Uiso   1.00
C504   C     0.77491   0.09667   0.39366   0.00000  Uiso   1.00
C505   C     0.91758   0.77125   0.33332   0.00000  Uiso   1.00
C506   C     0.92612   0.77742   0.37585   0.00000  Uiso   1.00
C507   C     0.91722   0.79148   0.38884   0.00000  Uiso   1.00
C508   C     0.89991   0.79947   0.35869   0.00000  Uiso   1.00
C509   C     0.89161   0.79346   0.31581   0.00000  Uiso   1.00
C510   C     0.92649   0.79786   0.43349   0.00000  Uiso   1.00
C511   C     0.93997   0.79470   0.94854   0.00000  Uiso   1.00
C512   C     0.94875   0.80105   0.90529   0.00000  Uiso   1.00
C513   C     0.93213   0.79954   0.86550   0.00000  Uiso   1.00
C514   C     0.90693   0.79157   0.86808   0.00000  Uiso   1.00
C515   C     0.89812   0.78516   0.91114   0.00000  Uiso   1.00
C516   C     0.94153   0.80594   0.82070   0.00000  Uiso   1.00
C517   C     0.79655   0.72075   0.31106   0.00000  Uiso   1.00
C518   C     0.78820   0.71430   0.35374   0.00000  Uiso   1.00
C519   C     0.79735   0.70024   0.36444   0.00000  Uiso   1.00
C520   C     0.81516   0.69254   0.33283   0.00000  Uiso   1.00
C521   C     0.82326   0.69882   0.28950   0.00000  Uiso   1.00
C522   C     0.78806   0.69395   0.40930   0.00000  Uiso   1.00
C523   C     0.83657   0.70657   0.91177   0.00000  Uiso   1.00
C524   C     0.82818   0.70055   0.86894   0.00000  Uiso   1.00
C525   C     0.81038   0.70843   0.83930   0.00000  Uiso   1.00
C526   C     0.80108   0.72238   0.85274   0.00000  Uiso   1.00
C527   C     0.80967   0.72855   0.89521   0.00000  Uiso   1.00
C528   C     0.80093   0.70207   0.79471   0.00000  Uiso   1.00
H529   H     0.91738   0.25106   0.06272   0.00000  Uiso   1.00
H530   H     0.93598   0.23788   0.99155   0.00000  Uiso   1.00
H531   H     0.37227   0.70440   0.01401   0.00000  Uiso   1.00
H532   H     0.35352   0.71791   0.08409   0.00000  Uiso   1.00
H533   H     0.95338   0.19833   0.72792   0.00000  Uiso   1.00
H534   H     0.96254   0.18892   0.64793   0.00000  Uiso   1.00
H535   H     0.42045   0.64844   0.68623   0.00000  Uiso   1.00
H536   H     0.41049   0.65799   0.76751   0.00000  Uiso   1.00
H537   H     0.13983   0.98410   0.52596   0.00000  Uiso   1.00
H538   H     0.16393   0.96015   0.52137   0.00000  Uiso   1.00
H539   H     0.67552   0.46197   0.67406   0.00000  Uiso   1.00
H540   H     0.65085   0.48534   0.67765   0.00000  Uiso   1.00
H541   H     0.70747   0.36673   0.54670   0.00000  Uiso   1.00
H542   H     0.72945   0.34281   0.55945   0.00000  Uiso   1.00
H543   H     0.28241   0.86176   0.66616   0.00000  Uiso   1.00
H544   H     0.26082   0.88520   0.65435   0.00000  Uiso   1.00
H545   H     0.31622   0.74606   0.05222   0.00000  Uiso   1.00
H546   H     0.30340   0.75582   0.97638   0.00000  Uiso   1.00
H547   H     0.87198   0.28755   0.98425   0.00000  Uiso   1.00
H548   H     0.88358   0.27751   0.06077   0.00000  Uiso   1.00
H549   H     0.26190   0.82284   0.76903   0.00000  Uiso   1.00
H550   H     0.24542   0.83509   0.69648   0.00000  Uiso   1.00
H551   H     0.82562   0.32571   0.62534   0.00000  Uiso   1.00
H552   H     0.84181   0.31359   0.69775   0.00000  Uiso   1.00
H553   H     0.31113   0.25115   0.16641   0.00000  Uiso   1.00
H554   H     0.29252   0.23825   0.23460   0.00000  Uiso   1.00
H555   H     0.85636   0.70428   0.21078   0.00000  Uiso   1.00
H556   H     0.87367   0.71750   0.14208   0.00000  Uiso   1.00
H557   H     0.27599   0.19881   0.50152   0.00000  Uiso   1.00
H558   H     0.26476   0.18956   0.58058   0.00000  Uiso   1.00
H559   H     0.80451   0.64828   0.54387   0.00000  Uiso   1.00
H560   H     0.81636   0.65767   0.46310   0.00000  Uiso   1.00
H561   H     0.08694   0.98412   0.69802   0.00000  Uiso   1.00
H562   H     0.06255   0.96010   0.70276   0.00000  Uiso   1.00
H563   H     0.55145   0.46135   0.55040   0.00000  Uiso   1.00
H564   H     0.57586   0.48521   0.54635   0.00000  Uiso   1.00
H565   H     0.51912   0.36676   0.67874   0.00000  Uiso   1.00
H566   H     0.49612   0.34303   0.66782   0.00000  Uiso   1.00
H567   H     0.94230   0.86211   0.56257   0.00000  Uiso   1.00
H568   H     0.96500   0.88535   0.57239   0.00000  Uiso   1.00
H569   H     0.91091   0.74565   0.17658   0.00000  Uiso   1.00
H570   H     0.92387   0.75548   0.25230   0.00000  Uiso   1.00
H571   H     0.35638   0.28778   0.24306   0.00000  Uiso   1.00
H572   H     0.34473   0.27772   0.16662   0.00000  Uiso   1.00
H573   H     0.96242   0.82458   0.45847   0.00000  Uiso   1.00
H574   H     0.97809   0.83712   0.53081   0.00000  Uiso   1.00
H575   H     0.40116   0.32366   0.60544   0.00000  Uiso   1.00
H576   H     0.38575   0.31122   0.53308   0.00000  Uiso   1.00
H577   H     0.08097   0.06716   0.60202   0.00000  Uiso   1.00
H578   H     0.05892   0.09172   0.60099   0.00000  Uiso   1.00
H579   H     0.97971   0.07315   0.64871   0.00000  Uiso   1.00
H580   H     0.00088   0.04854   0.65030   0.00000  Uiso   1.00
H581   H     0.98825   0.09631   0.58857   0.00000  Uiso   1.00
H582   H     0.83302   0.06210   0.33166   0.00000  Uiso   1.00
H583   H     0.81114   0.08613   0.33064   0.00000  Uiso   1.00
H584   H     0.77385   0.07894   0.47023   0.00000  Uiso   1.00
H585   H     0.79503   0.05430   0.47259   0.00000  Uiso   1.00
H586   H     0.76071   0.09619   0.36476   0.00000  Uiso   1.00
H587   H     0.92475   0.76022   0.32615   0.00000  Uiso   1.00
H588   H     0.93948   0.77114   0.39894   0.00000  Uiso   1.00
H589   H     0.89309   0.81048   0.36805   0.00000  Uiso   1.00
H590   H     0.87884   0.80035   0.29384   0.00000  Uiso   1.00
H591   H     0.94343   0.79262   0.45245   0.00000  Uiso   1.00
H592   H     0.95297   0.79611   0.97917   0.00000  Uiso   1.00
H593   H     0.96817   0.80733   0.90243   0.00000  Uiso   1.00
H594   H     0.89450   0.79023   0.83650   0.00000  Uiso   1.00
H595   H     0.87873   0.77886   0.91258   0.00000  Uiso   1.00
H596   H     0.96091   0.80180   0.80410   0.00000  Uiso   1.00
H597   H     0.78909   0.73178   0.30607   0.00000  Uiso   1.00
H598   H     0.77482   0.72035   0.37895   0.00000  Uiso   1.00
H599   H     0.82236   0.68158   0.34140   0.00000  Uiso   1.00
H600   H     0.83647   0.69216   0.26624   0.00000  Uiso   1.00
H601   H     0.76965   0.69878   0.42688   0.00000  Uiso   1.00
H602   H     0.84975   0.69977   0.93335   0.00000  Uiso   1.00
H603   H     0.83537   0.68963   0.85921   0.00000  Uiso   1.00
H604   H     0.78730   0.72856   0.83010   0.00000  Uiso   1.00
H605   H     0.80212   0.73949   0.90270   0.00000  Uiso   1.00
H606   H     0.78460   0.70762   0.77513   0.00000  Uiso   1.00
C607   C     0.88393   0.23547   0.07746   0.00000  Uiso   1.00
C608   C     0.40759   0.74089   0.05192   0.00000  Uiso   1.00
C609   C     0.41819   0.73336   0.01179   0.00000  Uiso   1.00
C610   C     0.90522   0.22030   0.99704   0.00000  Uiso   1.00
C611   C     0.88222   0.21459   0.02409   0.00000  Uiso   1.00
C612   C     0.87165   0.22217   0.06413   0.00000  Uiso   1.00
C613   C     0.91451   0.21325   0.95182   0.00000  Uiso   1.00
N614   N     0.92628   0.18406   0.80107   0.00000  Uiso   1.00
C615   C     0.93216   0.17859   0.75420   0.00000  Uiso   1.00
C616   C     0.44635   0.68735   0.71976   0.00000  Uiso   1.00
C617   C     0.45129   0.68212   0.67389   0.00000  Uiso   1.00
C618   C     0.94235   0.16802   0.66200   0.00000  Uiso   1.00
C619   C     0.92755   0.15935   0.69578   0.00000  Uiso   1.00
C620   C     0.92212   0.16471   0.74169   0.00000  Uiso   1.00
C621   C     0.14338   0.98620   0.60218   0.00000  Uiso   1.00
C622   C     0.64764   0.47915   0.55810   0.00000  Uiso   1.00
C623   C     0.66147   0.46553   0.55574   0.00000  Uiso   1.00
C624   C     0.67111   0.45886   0.59779   0.00000  Uiso   1.00
C625   C     0.16760   0.96645   0.64138   0.00000  Uiso   1.00
C626   C     0.15376   0.97991   0.64354   0.00000  Uiso   1.00
C627   C     0.68393   0.44394   0.59744   0.00000  Uiso   1.00
N628   N     0.21960   0.89123   0.58523   0.00000  Uiso   1.00
C629   C     0.23292   0.87775   0.59692   0.00000  Uiso   1.00
C630   C     0.22393   0.86556   0.57238   0.00000  Uiso   1.00
C631   C     0.23626   0.85207   0.58018   0.00000  Uiso   1.00
C632   C     0.25807   0.85070   0.61269   0.00000  Uiso   1.00
C633   C     0.76598   0.36272   0.64021   0.00000  Uiso   1.00
C634   C     0.75356   0.37627   0.63250   0.00000  Uiso   1.00
C635   C     0.35630   0.75616   0.11021   0.00000  Uiso   1.00
C636   C     0.35039   0.76134   0.06207   0.00000  Uiso   1.00
C637   C     0.82835   0.25511   0.03715   0.00000  Uiso   1.00
C638   C     0.82126   0.26076   0.99302   0.00000  Uiso   1.00
C639   C     0.33623   0.77276   0.97248   0.00000  Uiso   1.00
C640   C     0.35913   0.77859   0.99777   0.00000  Uiso   1.00
C641   C     0.36604   0.77289   0.04203   0.00000  Uiso   1.00
C642   C     0.32757   0.77924   0.92592   0.00000  Uiso   1.00
N643   N     0.31224   0.80999   0.77890   0.00000  Uiso   1.00
C644   C     0.30269   0.81715   0.73752   0.00000  Uiso   1.00
C645   C     0.77566   0.32339   0.73744   0.00000  Uiso   1.00
C646   C     0.76647   0.33040   0.69657   0.00000  Uiso   1.00
C647   C     0.28425   0.83107   0.65557   0.00000  Uiso   1.00
C648   C     0.31157   0.82507   0.65651   0.00000  Uiso   1.00
C649   C     0.32081   0.81826   0.69751   0.00000  Uiso   1.00
N650   N     0.95017   0.16203   0.61640   0.00000  Uiso   1.00
C651   C     0.34406   0.23538   0.15015   0.00000  Uiso   1.00
C652   C     0.82093   0.74091   0.17635   0.00000  Uiso   1.00
C653   C     0.81052   0.73342   0.21625   0.00000  Uiso   1.00
C654   C     0.32334   0.22025   0.23145   0.00000  Uiso   1.00
C655   C     0.34574   0.21440   0.20263   0.00000  Uiso   1.00
C656   C     0.35592   0.22194   0.16253   0.00000  Uiso   1.00
C657   C     0.31409   0.21312   0.27748   0.00000  Uiso   1.00
N658   N     0.30245   0.18364   0.42885   0.00000  Uiso   1.00
C659   C     0.29609   0.17857   0.47586   0.00000  Uiso   1.00
C660   C     0.78207   0.68767   0.50968   0.00000  Uiso   1.00
C661   C     0.77588   0.68252   0.55516   0.00000  Uiso   1.00
C662   C     0.28347   0.16823   0.56725   0.00000  Uiso   1.00
C663   C     0.29828   0.15930   0.53417   0.00000  Uiso   1.00
C664   C     0.30488   0.16455   0.48862   0.00000  Uiso   1.00
C665   C     0.08331   0.98614   0.62176   0.00000  Uiso   1.00
C666   C     0.57912   0.47912   0.66594   0.00000  Uiso   1.00
C667   C     0.56530   0.46548   0.66845   0.00000  Uiso   1.00
C668   C     0.55569   0.45881   0.62655   0.00000  Uiso   1.00
C669   C     0.05919   0.96618   0.58276   0.00000  Uiso   1.00
C670   C     0.07292   0.97975   0.58042   0.00000  Uiso   1.00
C671   C     0.54287   0.44402   0.62760   0.00000  Uiso   1.00
N672   N     0.00755   0.89120   0.63940   0.00000  Uiso   1.00
C673   C     0.99338   0.87785   0.62909   0.00000  Uiso   1.00
C674   C     0.00221   0.86567   0.65385   0.00000  Uiso   1.00
C675   C     0.98928   0.85229   0.64713   0.00000  Uiso   1.00
C676   C     0.96691   0.85102   0.61566   0.00000  Uiso   1.00
C677   C     0.45909   0.36300   0.58789   0.00000  Uiso   1.00
C678   C     0.47220   0.37645   0.59440   0.00000  Uiso   1.00
C679   C     0.87155   0.75608   0.11757   0.00000  Uiso   1.00
C680   C     0.87736   0.76124   0.16591   0.00000  Uiso   1.00
C681   C     0.39904   0.25484   0.19131   0.00000  Uiso   1.00
C682   C     0.40621   0.26052   0.23539   0.00000  Uiso   1.00
C683   C     0.89156   0.77269   0.25553   0.00000  Uiso   1.00
C684   C     0.86896   0.77867   0.22986   0.00000  Uiso   1.00
C685   C     0.86202   0.77296   0.18562   0.00000  Uiso   1.00
C686   C     0.90018   0.77916   0.30211   0.00000  Uiso   1.00
N687   N     0.91423   0.80959   0.45007   0.00000  Uiso   1.00
C688   C     0.92335   0.81683   0.49158   0.00000  Uiso   1.00
C689   C     0.44920   0.32430   0.49073   0.00000  Uiso   1.00
C690   C     0.45792   0.33149   0.53156   0.00000  Uiso   1.00
C691   C     0.94086   0.83116   0.57350   0.00000  Uiso   1.00
C692   C     0.91468   0.82388   0.57355   0.00000  Uiso   1.00
C693   C     0.90589   0.81686   0.53258   0.00000  Uiso   1.00
N694   N     0.27459   0.16241   0.61252   0.00000  Uiso   1.00
C695   C     0.55905   0.56831   0.61335   0.00000  Uiso   1.00
C696   C     0.54675   0.58224   0.61312   0.00000  Uiso   1.00
C697   C     0.51821   0.58371   0.62636   0.00000  Uiso   1.00
C698   C     0.50197   0.57163   0.63987   0.00000  Uiso   1.00
C699   C     0.51415   0.55776   0.64056   0.00000  Uiso   1.00
C700   C     0.50330   0.59693   0.61616   0.00000  Uiso   1.00
C701   C     0.32041   0.56536   0.36264   0.00000  Uiso   1.00
C702   C     0.30832   0.57917   0.36184   0.00000  Uiso   1.00
C703   C     0.29181   0.58391   0.40061   0.00000  Uiso   1.00
C704   C     0.28745   0.57514   0.44089   0.00000  Uiso   1.00
C705   C     0.29945   0.56115   0.44184   0.00000  Uiso   1.00
C706   C     0.27491   0.59667   0.39366   0.00000  Uiso   1.00
C707   C     0.41758   0.27125   0.33332   0.00000  Uiso   1.00
C708   C     0.42612   0.27742   0.37585   0.00000  Uiso   1.00
C709   C     0.41722   0.29148   0.38884   0.00000  Uiso   1.00
C710   C     0.39991   0.29947   0.35869   0.00000  Uiso   1.00
C711   C     0.39161   0.29346   0.31581   0.00000  Uiso   1.00
C712   C     0.42649   0.29786   0.43349   0.00000  Uiso   1.00
C713   C     0.43997   0.29470   0.94854   0.00000  Uiso   1.00
C714   C     0.44875   0.30105   0.90529   0.00000  Uiso   1.00
C715   C     0.43213   0.29954   0.86550   0.00000  Uiso   1.00
C716   C     0.40693   0.29157   0.86808   0.00000  Uiso   1.00
C717   C     0.39812   0.28516   0.91114   0.00000  Uiso   1.00
C718   C     0.44153   0.30594   0.82070   0.00000  Uiso   1.00
C719   C     0.29655   0.22075   0.31106   0.00000  Uiso   1.00
C720   C     0.28820   0.21430   0.35374   0.00000  Uiso   1.00
C721   C     0.29735   0.20024   0.36444   0.00000  Uiso   1.00
C722   C     0.31516   0.19254   0.33283   0.00000  Uiso   1.00
C723   C     0.32326   0.19882   0.28950   0.00000  Uiso   1.00
C724   C     0.28806   0.19395   0.40930   0.00000  Uiso   1.00
C725   C     0.33657   0.20657   0.91177   0.00000  Uiso   1.00
C726   C     0.32818   0.20055   0.86894   0.00000  Uiso   1.00
C727   C     0.31038   0.20843   0.83930   0.00000  Uiso   1.00
C728   C     0.30108   0.22238   0.85274   0.00000  Uiso   1.00
C729   C     0.30967   0.22855   0.89521   0.00000  Uiso   1.00
C730   C     0.30093   0.20207   0.79471   0.00000  Uiso   1.00
H731   H     0.41738   0.75106   0.06272   0.00000  Uiso   1.00
H732   H     0.43598   0.73788   0.99155   0.00000  Uiso   1.00
H733   H     0.87227   0.20440   0.01401   0.00000  Uiso   1.00
H734   H     0.85352   0.21791   0.08409   0.00000  Uiso   1.00
H735   H     0.45338   0.69833   0.72792   0.00000  Uiso   1.00
H736   H     0.46254   0.68892   0.64793   0.00000  Uiso   1.00
H737   H     0.92045   0.14844   0.68623   0.00000  Uiso   1.00
H738   H     0.91049   0.15799   0.76751   0.00000  Uiso   1.00
H739   H     0.63983   0.48410   0.52596   0.00000  Uiso   1.00
H740   H     0.66393   0.46015   0.52137   0.00000  Uiso   1.00
H741   H     0.17552   0.96197   0.67406   0.00000  Uiso   1.00
H742   H     0.15085   0.98534   0.67765   0.00000  Uiso   1.00
H743   H     0.20747   0.86673   0.54670   0.00000  Uiso   1.00
H744   H     0.22945   0.84281   0.55945   0.00000  Uiso   1.00
H745   H     0.78241   0.36176   0.66616   0.00000  Uiso   1.00
H746   H     0.76082   0.38520   0.65435   0.00000  Uiso   1.00
H747   H     0.81622   0.24606   0.05222   0.00000  Uiso   1.00
H748   H     0.80340   0.25582   0.97638   0.00000  Uiso   1.00
H749   H     0.37198   0.78755   0.98425   0.00000  Uiso   1.00
H750   H     0.38358   0.77751   0.06077   0.00000  Uiso   1.00
H751   H     0.76190   0.32284   0.76903   0.00000  Uiso   1.00
H752   H     0.74542   0.33509   0.69648   0.00000  Uiso   1.00
H753   H     0.32562   0.82571   0.62534   0.00000  Uiso   1.00
H754   H     0.34181   0.81359   0.69775   0.00000  Uiso   1.00
H755   H     0.81113   0.75115   0.16641   0.00000  Uiso   1.00
H756   H     0.79252   0.73825   0.23460   0.00000  Uiso   1.00
H757   H     0.35636   0.20428   0.21078   0.00000  Uiso   1.00
H758   H     0.37367   0.21750   0.14208   0.00000  Uiso   1.00
H759   H     0.77599   0.69881   0.50152   0.00000  Uiso   1.00
H760   H     0.76476   0.68956   0.58058   0.00000  Uiso   1.00
H761   H     0.30451   0.14828   0.54387   0.00000  Uiso   1.00
H762   H     0.31636   0.15767   0.46310   0.00000  Uiso   1.00
H763   H     0.58694   0.48412   0.69802   0.00000  Uiso   1.00
H764   H     0.56255   0.46010   0.70276   0.00000  Uiso   1.00
H765   H     0.05145   0.96135   0.55040   0.00000  Uiso   1.00
H766   H     0.07586   0.98521   0.54635   0.00000  Uiso   1.00
H767   H     0.01912   0.86676   0.67874   0.00000  Uiso   1.00
H768   H     0.99612   0.84303   0.66782   0.00000  Uiso   1.00
H769   H     0.44230   0.36211   0.56257   0.00000  Uiso   1.00
H770   H     0.46500   0.38535   0.57239   0.00000  Uiso   1.00
H771   H     0.41091   0.24565   0.17658   0.00000  Uiso   1.00
H772   H     0.42387   0.25548   0.25230   0.00000  Uiso   1.00
H773   H     0.85638   0.78778   0.24306   0.00000  Uiso   1.00
H774   H     0.84473   0.77772   0.16662   0.00000  Uiso   1.00
H775   H     0.46242   0.32458   0.45847   0.00000  Uiso   1.00
H776   H     0.47809   0.33712   0.53081   0.00000  Uiso   1.00
H777   H     0.90116   0.82366   0.60544   0.00000  Uiso   1.00
H778   H     0.88575   0.81122   0.53308   0.00000  Uiso   1.00
H779   H     0.58097   0.56716   0.60202   0.00000  Uiso   1.00
H780   H     0.55892   0.59172   0.60099   0.00000  Uiso   1.00
H781   H     0.47971   0.57315   0.64871   0.00000  Uiso   1.00
H782   H     0.50088   0.54854   0.65030   0.00000  Uiso   1.00
H783   H     0.48825   0.59631   0.58857   0.00000  Uiso   1.00
H784   H     0.33302   0.56210   0.33166   0.00000  Uiso   1.00
H785   H     0.31114   0.58613   0.33064   0.00000  Uiso   1.00
H786   H     0.27385   0.57894   0.47023   0.00000  Uiso   1.00
H787   H     0.29503   0.55430   0.47259   0.00000  Uiso   1.00
H788   H     0.26071   0.59619   0.36476   0.00000  Uiso   1.00
H789   H     0.42475   0.26022   0.32615   0.00000  Uiso   1.00
H790   H     0.43948   0.27114   0.39894   0.00000  Uiso   1.00
H791   H     0.39309   0.31048   0.36805   0.00000  Uiso   1.00
H792   H     0.37884   0.30035   0.29384   0.00000  Uiso   1.00
H793   H     0.44343   0.29262   0.45245   0.00000  Uiso   1.00
H794   H     0.45297   0.29611   0.97917   0.00000  Uiso   1.00
H795   H     0.46817   0.30733   0.90243   0.00000  Uiso   1.00
H796   H     0.39450   0.29023   0.83650   0.00000  Uiso   1.00
H797   H     0.37873   0.27886   0.91258   0.00000  Uiso   1.00
H798   H     0.46091   0.30180   0.80410   0.00000  Uiso   1.00
H799   H     0.28909   0.23178   0.30607   0.00000  Uiso   1.00
H800   H     0.27482   0.22035   0.37895   0.00000  Uiso   1.00
H801   H     0.32236   0.18158   0.34140   0.00000  Uiso   1.00
H802   H     0.33647   0.19216   0.26624   0.00000  Uiso   1.00
H803   H     0.26965   0.19878   0.42688   0.00000  Uiso   1.00
H804   H     0.34975   0.19977   0.93335   0.00000  Uiso   1.00
H805   H     0.33537   0.18963   0.85921   0.00000  Uiso   1.00
H806   H     0.28730   0.22856   0.83010   0.00000  Uiso   1.00
H807   H     0.30212   0.23949   0.90270   0.00000  Uiso   1.00
H808   H     0.28460   0.20762   0.77513   0.00000  Uiso   1.00
C809   C     0.38393   0.26453   0.07746   0.00000  Uiso   1.00
C810   C     0.90759   0.75911   0.05192   0.00000  Uiso   1.00
C811   C     0.91819   0.76664   0.01179   0.00000  Uiso   1.00
C812   C     0.40522   0.27970   0.99704   0.00000  Uiso   1.00
C813   C     0.38222   0.28541   0.02409   0.00000  Uiso   1.00
C814   C     0.37165   0.27783   0.06413   0.00000  Uiso   1.00
C815   C     0.41451   0.28675   0.95182   0.00000  Uiso   1.00
N816   N     0.42628   0.31594   0.80107   0.00000  Uiso   1.00
C817   C     0.43216   0.32141   0.75420   0.00000  Uiso   1.00
C818   C     0.94635   0.81265   0.71976   0.00000  Uiso   1.00
C819   C     0.95129   0.81788   0.67389   0.00000  Uiso   1.00
C820   C     0.44235   0.33198   0.66200   0.00000  Uiso   1.00
C821   C     0.42755   0.34065   0.69578   0.00000  Uiso   1.00
C822   C     0.42212   0.33529   0.74169   0.00000  Uiso   1.00
C823   C     0.64338   0.51380   0.60218   0.00000  Uiso   1.00
C824   C     0.14764   0.02085   0.55810   0.00000  Uiso   1.00
C825   C     0.16147   0.03447   0.55574   0.00000  Uiso   1.00
C826   C     0.17111   0.04114   0.59779   0.00000  Uiso   1.00
C827   C     0.66760   0.53355   0.64138   0.00000  Uiso   1.00
C828   C     0.65376   0.52009   0.64354   0.00000  Uiso   1.00
C829   C     0.18393   0.05606   0.59744   0.00000  Uiso   1.00
N830   N     0.71960   0.60877   0.58523   0.00000  Uiso   1.00
C831   C     0.73292   0.62225   0.59692   0.00000  Uiso   1.00
C832   C     0.72393   0.63444   0.57238   0.00000  Uiso   1.00
C833   C     0.73626   0.64793   0.58018   0.00000  Uiso   1.00
C834   C     0.75807   0.64930   0.61269   0.00000  Uiso   1.00
C835   C     0.26598   0.13728   0.64021   0.00000  Uiso   1.00
C836   C     0.25356   0.12373   0.63250   0.00000  Uiso   1.00
C837   C     0.85630   0.74384   0.11021   0.00000  Uiso   1.00
C838   C     0.85039   0.73866   0.06207   0.00000  Uiso   1.00
C839   C     0.32835   0.24489   0.03715   0.00000  Uiso   1.00
C840   C     0.32126   0.23924   0.99302   0.00000  Uiso   1.00
C841   C     0.83623   0.72724   0.97248   0.00000  Uiso   1.00
C842   C     0.85913   0.72141   0.99777   0.00000  Uiso   1.00
C843   C     0.86604   0.72711   0.04203   0.00000  Uiso   1.00
C844   C     0.82757   0.72076   0.92592   0.00000  Uiso   1.00
N845   N     0.81224   0.69001   0.77890   0.00000  Uiso   1.00
C846   C     0.80269   0.68285   0.73752   0.00000  Uiso   1.00
C847   C     0.27566   0.17661   0.73744   0.00000  Uiso   1.00
C848   C     0.26647   0.16960   0.69657   0.00000  Uiso   1.00
C849   C     0.78425   0.66893   0.65557   0.00000  Uiso   1.00
C850   C     0.81157   0.67493   0.65651   0.00000  Uiso   1.00
C851   C     0.82081   0.68174   0.69751   0.00000  Uiso   1.00
N852   N     0.45017   0.33797   0.61640   0.00000  Uiso   1.00
C853   C     0.84406   0.26462   0.15015   0.00000  Uiso   1.00
C854   C     0.32093   0.75909   0.17635   0.00000  Uiso   1.00
C855   C     0.31052   0.76658   0.21625   0.00000  Uiso   1.00
C856   C     0.82334   0.27975   0.23145   0.00000  Uiso   1.00
C857   C     0.84574   0.28560   0.20263   0.00000  Uiso   1.00
C858   C     0.85592   0.27806   0.16253   0.00000  Uiso   1.00
C859   C     0.81409   0.28688   0.27748   0.00000  Uiso   1.00
N860   N     0.80245   0.31636   0.42885   0.00000  Uiso   1.00
C861   C     0.79609   0.32143   0.47586   0.00000  Uiso   1.00
C862   C     0.28207   0.81233   0.50968   0.00000  Uiso   1.00
C863   C     0.27588   0.81748   0.55516   0.00000  Uiso   1.00
C864   C     0.78347   0.33177   0.56725   0.00000  Uiso   1.00
C865   C     0.79828   0.34070   0.53417   0.00000  Uiso   1.00
C866   C     0.80488   0.33545   0.48862   0.00000  Uiso   1.00
C867   C     0.58331   0.51386   0.62176   0.00000  Uiso   1.00
C868   C     0.07912   0.02088   0.66594   0.00000  Uiso   1.00
C869   C     0.06530   0.03452   0.66845   0.00000  Uiso   1.00
C870   C     0.05569   0.04119   0.62655   0.00000  Uiso   1.00
C871   C     0.55919   0.53382   0.58276   0.00000  Uiso   1.00
C872   C     0.57292   0.52025   0.58042   0.00000  Uiso   1.00
C873   C     0.04287   0.05598   0.62760   0.00000  Uiso   1.00
N874   N     0.50755   0.60880   0.63940   0.00000  Uiso   1.00
C875   C     0.49338   0.62215   0.62909   0.00000  Uiso   1.00
C876   C     0.50221   0.63433   0.65385   0.00000  Uiso   1.00
C877   C     0.48928   0.64771   0.64713   0.00000  Uiso   1.00
C878   C     0.46691   0.64898   0.61566   0.00000  Uiso   1.00
C879   C     0.95909   0.13700   0.58789   0.00000  Uiso   1.00
C880   C     0.97220   0.12355   0.59440   0.00000  Uiso   1.00
C881   C     0.37155   0.74392   0.11757   0.00000  Uiso   1.00
C882   C     0.37736   0.73876   0.16591   0.00000  Uiso   1.00
C883   C     0.89904   0.24516   0.19131   0.00000  Uiso   1.00
C884   C     0.90621   0.23948   0.23539   0.00000  Uiso   1.00
C885   C     0.39156   0.72731   0.25553   0.00000  Uiso   1.00
C886   C     0.36896   0.72133   0.22986   0.00000  Uiso   1.00
C887   C     0.36202   0.72704   0.18562   0.00000  Uiso   1.00
C888   C     0.40018   0.72084   0.30211   0.00000  Uiso   1.00
N889   N     0.41423   0.69041   0.45007   0.00000  Uiso   1.00
C890   C     0.42335   0.68317   0.49158   0.00000  Uiso   1.00
C891   C     0.94920   0.17570   0.49073   0.00000  Uiso   1.00
C892   C     0.95792   0.16851   0.53156   0.00000  Uiso   1.00
C893   C     0.44086   0.66884   0.57350   0.00000  Uiso   1.00
C894   C     0.41468   0.67612   0.57355   0.00000  Uiso   1.00
C895   C     0.40589   0.68314   0.53258   0.00000  Uiso   1.00
N896   N     0.77459   0.33759   0.61252   0.00000  Uiso   1.00
C897   C     0.05905   0.93169   0.61335   0.00000  Uiso   1.00
C898   C     0.04675   0.91776   0.61312   0.00000  Uiso   1.00
C899   C     0.01821   0.91629   0.62636   0.00000  Uiso   1.00
C900   C     0.00197   0.92837   0.63987   0.00000  Uiso   1.00
C901   C     0.01415   0.94224   0.64056   0.00000  Uiso   1.00
C902   C     0.00330   0.90307   0.61616   0.00000  Uiso   1.00
C903   C     0.82041   0.93464   0.36264   0.00000  Uiso   1.00
C904   C     0.80832   0.92083   0.36184   0.00000  Uiso   1.00
C905   C     0.79181   0.91609   0.40061   0.00000  Uiso   1.00
C906   C     0.78745   0.92486   0.44089   0.00000  Uiso   1.00
C907   C     0.79945   0.93885   0.44184   0.00000  Uiso   1.00
C908   C     0.77491   0.90333   0.39366   0.00000  Uiso   1.00
C909   C     0.91758   0.22875   0.33332   0.00000  Uiso   1.00
C910   C     0.92612   0.22258   0.37585   0.00000  Uiso   1.00
C911   C     0.91722   0.20852   0.38884   0.00000  Uiso   1.00
C912   C     0.89991   0.20053   0.35869   0.00000  Uiso   1.00
C913   C     0.89161   0.20654   0.31581   0.00000  Uiso   1.00
C914   C     0.92649   0.20214   0.43349   0.00000  Uiso   1.00
C915   C     0.93997   0.20530   0.94854   0.00000  Uiso   1.00
C916   C     0.94875   0.19895   0.90529   0.00000  Uiso   1.00
C917   C     0.93213   0.20046   0.86550   0.00000  Uiso   1.00
C918   C     0.90693   0.20843   0.86808   0.00000  Uiso   1.00
C919   C     0.89812   0.21484   0.91114   0.00000  Uiso   1.00
C920   C     0.94153   0.19406   0.82070   0.00000  Uiso   1.00
C921   C     0.79655   0.27925   0.31106   0.00000  Uiso   1.00
C922   C     0.78820   0.28570   0.35374   0.00000  Uiso   1.00
C923   C     0.79735   0.29976   0.36444   0.00000  Uiso   1.00
C924   C     0.81516   0.30746   0.33283   0.00000  Uiso   1.00
C925   C     0.82326   0.30118   0.28950   0.00000  Uiso   1.00
C926   C     0.78806   0.30605   0.40930   0.00000  Uiso   1.00
C927   C     0.83657   0.29343   0.91177   0.00000  Uiso   1.00
C928   C     0.82818   0.29945   0.86894   0.00000  Uiso   1.00
C929   C     0.81038   0.29157   0.83930   0.00000  Uiso   1.00
C930   C     0.80108   0.27762   0.85274   0.00000  Uiso   1.00
C931   C     0.80967   0.27145   0.89521   0.00000  Uiso   1.00
C932   C     0.80093   0.29793   0.79471   0.00000  Uiso   1.00
H933   H     0.91738   0.74894   0.06272   0.00000  Uiso   1.00
H934   H     0.93598   0.76212   0.99155   0.00000  Uiso   1.00
H935   H     0.37227   0.29560   0.01401   0.00000  Uiso   1.00
H936   H     0.35352   0.28209   0.08409   0.00000  Uiso   1.00
H937   H     0.95338   0.80167   0.72792   0.00000  Uiso   1.00
H938   H     0.96254   0.81108   0.64793   0.00000  Uiso   1.00
H939   H     0.42045   0.35156   0.68623   0.00000  Uiso   1.00
H940   H     0.41049   0.34201   0.76751   0.00000  Uiso   1.00
H941   H     0.13983   0.01590   0.52596   0.00000  Uiso   1.00
H942   H     0.16393   0.03985   0.52137   0.00000  Uiso   1.00
H943   H     0.67552   0.53803   0.67406   0.00000  Uiso   1.00
H944   H     0.65085   0.51466   0.67765   0.00000  Uiso   1.00
H945   H     0.70747   0.63327   0.54670   0.00000  Uiso   1.00
H946   H     0.72945   0.65719   0.55945   0.00000  Uiso   1.00
H947   H     0.28241   0.13824   0.66616   0.00000  Uiso   1.00
H948   H     0.26082   0.11480   0.65435   0.00000  Uiso   1.00
H949   H     0.31622   0.25394   0.05222   0.00000  Uiso   1.00
H950   H     0.30340   0.24418   0.97638   0.00000  Uiso   1.00
H951   H     0.87198   0.71245   0.98425   0.00000  Uiso   1.00
H952   H     0.88358   0.72249   0.06077   0.00000  Uiso   1.00
H953   H     0.26190   0.17716   0.76903   0.00000  Uiso   1.00
H954   H     0.24542   0.16491   0.69648   0.00000  Uiso   1.00
H955   H     0.82562   0.67429   0.62534   0.00000  Uiso   1.00
H956   H     0.84181   0.68641   0.69775   0.00000  Uiso   1.00
H957   H     0.31113   0.74885   0.16641   0.00000  Uiso   1.00
H958   H     0.29252   0.76175   0.23460   0.00000  Uiso   1.00
H959   H     0.85636   0.29572   0.21078   0.00000  Uiso   1.00
H960   H     0.87367   0.28250   0.14208   0.00000  Uiso   1.00
H961   H     0.27599   0.80119   0.50152   0.00000  Uiso   1.00
H962   H     0.26476   0.81044   0.58058   0.00000  Uiso   1.00
H963   H     0.80451   0.35172   0.54387   0.00000  Uiso   1.00
H964   H     0.81636   0.34233   0.46310   0.00000  Uiso   1.00
H965   H     0.08694   0.01588   0.69802   0.00000  Uiso   1.00
H966   H     0.06255   0.03990   0.70276   0.00000  Uiso   1.00
H967   H     0.55145   0.53865   0.55040   0.00000  Uiso   1.00
H968   H     0.57586   0.51479   0.54635   0.00000  Uiso   1.00
H969   H     0.51912   0.63324   0.67874   0.00000  Uiso   1.00
H970   H     0.49612   0.65697   0.66782   0.00000  Uiso   1.00
H971   H     0.94230   0.13789   0.56257   0.00000  Uiso   1.00
H972   H     0.96500   0.11465   0.57239   0.00000  Uiso   1.00
H973   H     0.91091   0.25435   0.17658   0.00000  Uiso   1.00
H974   H     0.92387   0.24452   0.25230   0.00000  Uiso   1.00
H975   H     0.35638   0.71222   0.24306   0.00000  Uiso   1.00
H976   H     0.34473   0.72228   0.16662   0.00000  Uiso   1.00
H977   H     0.96242   0.17542   0.45847   0.00000  Uiso   1.00
H978   H     0.97809   0.16288   0.53081   0.00000  Uiso   1.00
H979   H     0.40116   0.67634   0.60544   0.00000  Uiso   1.00
H980   H     0.38575   0.68878   0.53308   0.00000  Uiso   1.00
H981   H     0.08097   0.93284   0.60202   0.00000  Uiso   1.00
H982   H     0.05892   0.90828   0.60099   0.00000  Uiso   1.00
H983   H     0.97971   0.92685   0.64871   0.00000  Uiso   1.00
H984   H     0.00088   0.95146   0.65030   0.00000  Uiso   1.00
H985   H     0.98825   0.90369   0.58857   0.00000  Uiso   1.00
H986   H     0.83302   0.93790   0.33166   0.00000  Uiso   1.00
H987   H     0.81114   0.91387   0.33064   0.00000  Uiso   1.00
H988   H     0.77385   0.92106   0.47023   0.00000  Uiso   1.00
H989   H     0.79503   0.94570   0.47259   0.00000  Uiso   1.00
H990   H     0.76071   0.90381   0.36476   0.00000  Uiso   1.00
H991   H     0.92475   0.23978   0.32615   0.00000  Uiso   1.00
H992   H     0.93948   0.22886   0.39894   0.00000  Uiso   1.00
H993   H     0.89309   0.18952   0.36805   0.00000  Uiso   1.00
H994   H     0.87884   0.19965   0.29384   0.00000  Uiso   1.00
H995   H     0.94343   0.20738   0.45245   0.00000  Uiso   1.00
H996   H     0.95297   0.20389   0.97917   0.00000  Uiso   1.00
H997   H     0.96817   0.19267   0.90243   0.00000  Uiso   1.00
H998   H     0.89450   0.20977   0.83650   0.00000  Uiso   1.00
H999   H     0.87873   0.22114   0.91258   0.00000  Uiso   1.00
H1000  H     0.96091   0.19820   0.80410   0.00000  Uiso   1.00
H1001  H     0.78909   0.26822   0.30607   0.00000  Uiso   1.00
H1002  H     0.77482   0.27965   0.37895   0.00000  Uiso   1.00
H1003  H     0.82236   0.31842   0.34140   0.00000  Uiso   1.00
H1004  H     0.83647   0.30784   0.26624   0.00000  Uiso   1.00
H1005  H     0.76965   0.30122   0.42688   0.00000  Uiso   1.00
H1006  H     0.84975   0.30023   0.93335   0.00000  Uiso   1.00
H1007  H     0.83537   0.31037   0.85921   0.00000  Uiso   1.00
H1008  H     0.78730   0.27144   0.83010   0.00000  Uiso   1.00
H1009  H     0.80212   0.26051   0.90270   0.00000  Uiso   1.00
H1010  H     0.78460   0.29238   0.77513   0.00000  Uiso   1.00
C1011  C     0.88393   0.76453   0.07746   0.00000  Uiso   1.00
C1012  C     0.40759   0.25911   0.05192   0.00000  Uiso   1.00
C1013  C     0.41819   0.26664   0.01179   0.00000  Uiso   1.00
C1014  C     0.90522   0.77970   0.99704   0.00000  Uiso   1.00
C1015  C     0.88222   0.78541   0.02409   0.00000  Uiso   1.00
C1016  C     0.87165   0.77783   0.06413   0.00000  Uiso   1.00
C1017  C     0.91451   0.78675   0.95182   0.00000  Uiso   1.00
N1018  N     0.92628   0.81594   0.80107   0.00000  Uiso   1.00
C1019  C     0.93216   0.82141   0.75420   0.00000  Uiso   1.00
C1020  C     0.44635   0.31265   0.71976   0.00000  Uiso   1.00
C1021  C     0.45129   0.31788   0.67389   0.00000  Uiso   1.00
C1022  C     0.94235   0.83198   0.66200   0.00000  Uiso   1.00
C1023  C     0.92755   0.84065   0.69578   0.00000  Uiso   1.00
C1024  C     0.92212   0.83529   0.74169   0.00000  Uiso   1.00
C1025  C     0.14338   0.01380   0.60218   0.00000  Uiso   1.00
C1026  C     0.64764   0.52085   0.55810   0.00000  Uiso   1.00
C1027  C     0.66147   0.53447   0.55574   0.00000  Uiso   1.00
C1028  C     0.67111   0.54114   0.59779   0.00000  Uiso   1.00
C1029  C     0.16760   0.03355   0.64138   0.00000  Uiso   1.00
C1030  C     0.15376   0.02009   0.64354   0.00000  Uiso   1.00
C1031  C     0.68393   0.55606   0.59744   0.00000  Uiso   1.00
N1032  N     0.21960   0.10877   0.58523   0.00000  Uiso   1.00
C1033  C     0.23292   0.12225   0.59692   0.00000  Uiso   1.00
C1034  C     0.22393   0.13444   0.57238   0.00000  Uiso   1.00
C1035  C     0.23626   0.14793   0.58018   0.00000  Uiso   1.00
C1036  C     0.25807   0.14930   0.61269   0.00000  Uiso   1.00
C1037  C     0.76598   0.63728   0.64021   0.00000  Uiso   1.00
C1038  C     0.75356   0.62373   0.63250   0.00000  Uiso   1.00
C1039  C     0.35630   0.24384   0.11021   0.00000  Uiso   1.00
C1040  C     0.35039   0.23866   0.06207   0.00000  Uiso   1.00
C1041  C     0.82835   0.74489   0.03715   0.00000  Uiso   1.00
C1042  C     0.82126   0.73924   0.99302   0.00000  Uiso   1.00
C1043  C     0.33623   0.22724   0.97248   0.00000  Uiso   1.00
C1044  C     0.35913   0.22141   0.99777   0.00000  Uiso   1.00
C1045  C     0.36604   0.22711   0.04203   0.00000  Uiso   1.00
C1046  C     0.32757   0.22076   0.92592   0.00000  Uiso   1.00
N1047  N     0.31224   0.19001   0.77890   0.00000  Uiso   1.00
C1048  C     0.30269   0.18285   0.73752   0.00000  Uiso   1.00
C1049  C     0.77566   0.67661   0.73744   0.00000  Uiso   1.00
C1050  C     0.76647   0.66960   0.69657   0.00000  Uiso   1.00
C1051  C     0.28425   0.16893   0.65557   0.00000  Uiso   1.00
C1052  C     0.31157   0.17493   0.65651   0.00000  Uiso   1.00
C1053  C     0.32081   0.18174   0.69751   0.00000  Uiso   1.00
N1054  N     0.95017   0.83797   0.61640   0.00000  Uiso   1.00
C1055  C     0.34406   0.76462   0.15015   0.00000  Uiso   1.00
C1056  C     0.82093   0.25909   0.17635   0.00000  Uiso   1.00
C1057  C     0.81052   0.26658   0.21625   0.00000  Uiso   1.00
C1058  C     0.32334   0.77975   0.23145   0.00000  Uiso   1.00
C1059  C     0.34574   0.78560   0.20263   0.00000  Uiso   1.00
C1060  C     0.35592   0.77806   0.16253   0.00000  Uiso   1.00
C1061  C     0.31409   0.78688   0.27748   0.00000  Uiso   1.00
N1062  N     0.30245   0.81636   0.42885   0.00000  Uiso   1.00
C1063  C     0.29609   0.82143   0.47586   0.00000  Uiso   1.00
C1064  C     0.78207   0.31233   0.50968   0.00000  Uiso   1.00
C1065  C     0.77588   0.31748   0.55516   0.00000  Uiso   1.00
C1066  C     0.28347   0.83177   0.56725   0.00000  Uiso   1.00
C1067  C     0.29828   0.84070   0.53417   0.00000  Uiso   1.00
C1068  C     0.30488   0.83545   0.48862   0.00000  Uiso   1.00
C1069  C     0.08331   0.01386   0.62176   0.00000  Uiso   1.00
C1070  C     0.57912   0.52088   0.66594   0.00000  Uiso   1.00
C1071  C     0.56530   0.53452   0.66845   0.00000  Uiso   1.00
C1072  C     0.55569   0.54119   0.62655   0.00000  Uiso   1.00
C1073  C     0.05919   0.03382   0.58276   0.00000  Uiso   1.00
C1074  C     0.07292   0.02025   0.58042   0.00000  Uiso   1.00
C1075  C     0.54287   0.55598   0.62760   0.00000  Uiso   1.00
N1076  N     0.00755   0.10880   0.63940   0.00000  Uiso   1.00
C1077  C     0.99338   0.12215   0.62909   0.00000  Uiso   1.00
C1078  C     0.00221   0.13433   0.65385   0.00000  Uiso   1.00
C1079  C     0.98928   0.14771   0.64713   0.00000  Uiso   1.00
C1080  C     0.96691   0.14898   0.61566   0.00000  Uiso   1.00
C1081  C     0.45909   0.63700   0.58789   0.00000  Uiso   1.00
C1082  C     0.47220   0.62355   0.59440   0.00000  Uiso   1.00
C1083  C     0.87155   0.24392   0.11757   0.00000  Uiso   1.00
C1084  C     0.87736   0.23876   0.16591   0.00000  Uiso   1.00
C1085  C     0.39904   0.74516   0.19131   0.00000  Uiso   1.00
C1086  C     0.40621   0.73948   0.23539   0.00000  Uiso   1.00
C1087  C     0.89156   0.22731   0.25553   0.00000  Uiso   1.00
C1088  C     0.86896   0.22133   0.22986   0.00000  Uiso   1.00
C1089  C     0.86202   0.22704   0.18562   0.00000  Uiso   1.00
C1090  C     0.90018   0.22084   0.30211   0.00000  Uiso   1.00
N1091  N     0.91423   0.19041   0.45007   0.00000  Uiso   1.00
C1092  C     0.92335   0.18317   0.49158   0.00000  Uiso   1.00
C1093  C     0.44920   0.67570   0.49073   0.00000  Uiso   1.00
C1094  C     0.45792   0.66851   0.53156   0.00000  Uiso   1.00
C1095  C     0.94086   0.16884   0.57350   0.00000  Uiso   1.00
C1096  C     0.91468   0.17612   0.57355   0.00000  Uiso   1.00
C1097  C     0.90589   0.18314   0.53258   0.00000  Uiso   1.00
N1098  N     0.27459   0.83759   0.61252   0.00000  Uiso   1.00
C1099  C     0.55905   0.43169   0.61335   0.00000  Uiso   1.00
C1100  C     0.54675   0.41776   0.61312   0.00000  Uiso   1.00
C1101  C     0.51821   0.41629   0.62636   0.00000  Uiso   1.00
C1102  C     0.50197   0.42837   0.63987   0.00000  Uiso   1.00
C1103  C     0.51415   0.44224   0.64056   0.00000  Uiso   1.00
C1104  C     0.50330   0.40307   0.61616   0.00000  Uiso   1.00
C1105  C     0.32041   0.43464   0.36264   0.00000  Uiso   1.00
C1106  C     0.30832   0.42083   0.36184   0.00000  Uiso   1.00
C1107  C     0.29181   0.41609   0.40061   0.00000  Uiso   1.00
C1108  C     0.28745   0.42486   0.44089   0.00000  Uiso   1.00
C1109  C     0.29945   0.43885   0.44184   0.00000  Uiso   1.00
C1110  C     0.27491   0.40333   0.39366   0.00000  Uiso   1.00
C1111  C     0.41758   0.72875   0.33332   0.00000  Uiso   1.00
C1112  C     0.42612   0.72258   0.37585   0.00000  Uiso   1.00
C1113  C     0.41722   0.70852   0.38884   0.00000  Uiso   1.00
C1114  C     0.39991   0.70053   0.35869   0.00000  Uiso   1.00
C1115  C     0.39161   0.70654   0.31581   0.00000  Uiso   1.00
C1116  C     0.42649   0.70214   0.43349   0.00000  Uiso   1.00
C1117  C     0.43997   0.70530   0.94854   0.00000  Uiso   1.00
C1118  C     0.44875   0.69895   0.90529   0.00000  Uiso   1.00
C1119  C     0.43213   0.70046   0.86550   0.00000  Uiso   1.00
C1120  C     0.40693   0.70843   0.86808   0.00000  Uiso   1.00
C1121  C     0.39812   0.71484   0.91114   0.00000  Uiso   1.00
C1122  C     0.44153   0.69406   0.82070   0.00000  Uiso   1.00
C1123  C     0.29655   0.77925   0.31106   0.00000  Uiso   1.00
C1124  C     0.28820   0.78570   0.35374   0.00000  Uiso   1.00
C1125  C     0.29735   0.79976   0.36444   0.00000  Uiso   1.00
C1126  C     0.31516   0.80746   0.33283   0.00000  Uiso   1.00
C1127  C     0.32326   0.80118   0.28950   0.00000  Uiso   1.00
C1128  C     0.28806   0.80605   0.40930   0.00000  Uiso   1.00
C1129  C     0.33657   0.79343   0.91177   0.00000  Uiso   1.00
C1130  C     0.32818   0.79945   0.86894   0.00000  Uiso   1.00
C1131  C     0.31038   0.79157   0.83930   0.00000  Uiso   1.00
C1132  C     0.30108   0.77762   0.85274   0.00000  Uiso   1.00
C1133  C     0.30967   0.77145   0.89521   0.00000  Uiso   1.00
C1134  C     0.30093   0.79793   0.79471   0.00000  Uiso   1.00
H1135  H     0.41738   0.24894   0.06272   0.00000  Uiso   1.00
H1136  H     0.43598   0.26212   0.99155   0.00000  Uiso   1.00
H1137  H     0.87227   0.79560   0.01401   0.00000  Uiso   1.00
H1138  H     0.85352   0.78209   0.08409   0.00000  Uiso   1.00
H1139  H     0.45338   0.30167   0.72792   0.00000  Uiso   1.00
H1140  H     0.46254   0.31108   0.64793   0.00000  Uiso   1.00
H1141  H     0.92045   0.85156   0.68623   0.00000  Uiso   1.00
H1142  H     0.91049   0.84201   0.76751   0.00000  Uiso   1.00
H1143  H     0.63983   0.51590   0.52596   0.00000  Uiso   1.00
H1144  H     0.66393   0.53985   0.52137   0.00000  Uiso   1.00
H1145  H     0.17552   0.03803   0.67406   0.00000  Uiso   1.00
H1146  H     0.15085   0.01466   0.67765   0.00000  Uiso   1.00
H1147  H     0.20747   0.13327   0.54670   0.00000  Uiso   1.00
H1148  H     0.22945   0.15719   0.55945   0.00000  Uiso   1.00
H1149  H     0.78241   0.63824   0.66616   0.00000  Uiso   1.00
H1150  H     0.76082   0.61480   0.65435   0.00000  Uiso   1.00
H1151  H     0.81622   0.75394   0.05222   0.00000  Uiso   1.00
H1152  H     0.80340   0.74418   0.97638   0.00000  Uiso   1.00
H1153  H     0.37198   0.21245   0.98425   0.00000  Uiso   1.00
H1154  H     0.38358   0.22249   0.06077   0.00000  Uiso   1.00
H1155  H     0.76190   0.67716   0.76903   0.00000  Uiso   1.00
H1156  H     0.74542   0.66491   0.69648   0.00000  Uiso   1.00
H1157  H     0.32562   0.17429   0.62534   0.00000  Uiso   1.00
H1158  H     0.34181   0.18641   0.69775   0.00000  Uiso   1.00
H1159  H     0.81113   0.24885   0.16641   0.00000  Uiso   1.00
H1160  H     0.79252   0.26175   0.23460   0.00000  Uiso   1.00
H1161  H     0.35636   0.79572   0.21078   0.00000  Uiso   1.00
H1162  H     0.37367   0.78250   0.14208   0.00000  Uiso   1.00
H1163  H     0.77599   0.30119   0.50152   0.00000  Uiso   1.00
H1164  H     0.76476   0.31044   0.58058   0.00000  Uiso   1.00
H1165  H     0.30451   0.85172   0.54387   0.00000  Uiso   1.00
H1166  H     0.31636   0.84233   0.46310   0.00000  Uiso   1.00
H1167  H     0.58694   0.51588   0.69802   0.00000  Uiso   1.00
H1168  H     0.56255   0.53990   0.70276   0.00000  Uiso   1.00
H1169  H     0.05145   0.03865   0.55040   0.00000  Uiso   1.00
H1170  H     0.07586   0.01479   0.54635   0.00000  Uiso   1.00
H1171  H     0.01912   0.13324   0.67874   0.00000  Uiso   1.00
H1172  H     0.99612   0.15697   0.66782   0.00000  Uiso   1.00
H1173  H     0.44230   0.63789   0.56257   0.00000  Uiso   1.00
H1174  H     0.46500   0.61465   0.57239   0.00000  Uiso   1.00
H1175  H     0.41091   0.75435   0.17658   0.00000  Uiso   1.00
H1176  H     0.42387   0.74452   0.25230   0.00000  Uiso   1.00
H1177  H     0.85638   0.21222   0.24306   0.00000  Uiso   1.00
H1178  H     0.84473   0.22228   0.16662   0.00000  Uiso   1.00
H1179  H     0.46242   0.67542   0.45847   0.00000  Uiso   1.00
H1180  H     0.47809   0.66288   0.53081   0.00000  Uiso   1.00
H1181  H     0.90116   0.17634   0.60544   0.00000  Uiso   1.00
H1182  H     0.88575   0.18878   0.53308   0.00000  Uiso   1.00
H1183  H     0.58097   0.43284   0.60202   0.00000  Uiso   1.00
H1184  H     0.55892   0.40828   0.60099   0.00000  Uiso   1.00
H1185  H     0.47971   0.42685   0.64871   0.00000  Uiso   1.00
H1186  H     0.50088   0.45146   0.65030   0.00000  Uiso   1.00
H1187  H     0.48825   0.40369   0.58857   0.00000  Uiso   1.00
H1188  H     0.33302   0.43790   0.33166   0.00000  Uiso   1.00
H1189  H     0.31114   0.41387   0.33064   0.00000  Uiso   1.00
H1190  H     0.27385   0.42106   0.47023   0.00000  Uiso   1.00
H1191  H     0.29503   0.44570   0.47259   0.00000  Uiso   1.00
H1192  H     0.26071   0.40381   0.36476   0.00000  Uiso   1.00
H1193  H     0.42475   0.73978   0.32615   0.00000  Uiso   1.00
H1194  H     0.43948   0.72886   0.39894   0.00000  Uiso   1.00
H1195  H     0.39309   0.68952   0.36805   0.00000  Uiso   1.00
H1196  H     0.37884   0.69965   0.29384   0.00000  Uiso   1.00
H1197  H     0.44343   0.70738   0.45245   0.00000  Uiso   1.00
H1198  H     0.45297   0.70389   0.97917   0.00000  Uiso   1.00
H1199  H     0.46817   0.69267   0.90243   0.00000  Uiso   1.00
H1200  H     0.39450   0.70977   0.83650   0.00000  Uiso   1.00
H1201  H     0.37873   0.72114   0.91258   0.00000  Uiso   1.00
H1202  H     0.46091   0.69820   0.80410   0.00000  Uiso   1.00
H1203  H     0.28909   0.76822   0.30607   0.00000  Uiso   1.00
H1204  H     0.27482   0.77965   0.37895   0.00000  Uiso   1.00
H1205  H     0.32236   0.81842   0.34140   0.00000  Uiso   1.00
H1206  H     0.33647   0.80784   0.26624   0.00000  Uiso   1.00
H1207  H     0.26965   0.80122   0.42688   0.00000  Uiso   1.00
H1208  H     0.34975   0.80023   0.93335   0.00000  Uiso   1.00
H1209  H     0.33537   0.81037   0.85921   0.00000  Uiso   1.00
H1210  H     0.28730   0.77144   0.83010   0.00000  Uiso   1.00
H1211  H     0.30212   0.76051   0.90270   0.00000  Uiso   1.00
H1212  H     0.28460   0.79238   0.77513   0.00000  Uiso   1.00
C1213  C     0.61607   0.26453   0.92254   0.00000  Uiso   1.00
C1214  C     0.09241   0.75911   0.94808   0.00000  Uiso   1.00
C1215  C     0.08181   0.76664   0.98821   0.00000  Uiso   1.00
C1216  C     0.59478   0.27970   0.00296   0.00000  Uiso   1.00
C1217  C     0.61778   0.28541   0.97591   0.00000  Uiso   1.00
C1218  C     0.62835   0.27783   0.93587   0.00000  Uiso   1.00
C1219  C     0.58549   0.28675   0.04818   0.00000  Uiso   1.00
N1220  N     0.57372   0.31594   0.19893   0.00000  Uiso   1.00
C1221  C     0.56784   0.32141   0.24580   0.00000  Uiso   1.00
C1222  C     0.05365   0.81265   0.28024   0.00000  Uiso   1.00
C1223  C     0.04871   0.81788   0.32611   0.00000  Uiso   1.00
C1224  C     0.55765   0.33198   0.33800   0.00000  Uiso   1.00
C1225  C     0.57245   0.34065   0.30422   0.00000  Uiso   1.00
C1226  C     0.57788   0.33529   0.25831   0.00000  Uiso   1.00
C1227  C     0.35662   0.51380   0.39782   0.00000  Uiso   1.00
C1228  C     0.85236   0.02085   0.44190   0.00000  Uiso   1.00
C1229  C     0.83853   0.03447   0.44426   0.00000  Uiso   1.00
C1230  C     0.82889   0.04114   0.40221   0.00000  Uiso   1.00
C1231  C     0.33240   0.53355   0.35862   0.00000  Uiso   1.00
C1232  C     0.34624   0.52009   0.35646   0.00000  Uiso   1.00
C1233  C     0.81607   0.05606   0.40256   0.00000  Uiso   1.00
N1234  N     0.28040   0.60877   0.41477   0.00000  Uiso   1.00
C1235  C     0.26708   0.62225   0.40308   0.00000  Uiso   1.00
C1236  C     0.27607   0.63444   0.42762   0.00000  Uiso   1.00
C1237  C     0.26374   0.64793   0.41982   0.00000  Uiso   1.00
C1238  C     0.24193   0.64930   0.38731   0.00000  Uiso   1.00
C1239  C     0.73402   0.13728   0.35979   0.00000  Uiso   1.00
C1240  C     0.74644   0.12373   0.36750   0.00000  Uiso   1.00
C1241  C     0.14370   0.74384   0.88979   0.00000  Uiso   1.00
C1242  C     0.14961   0.73866   0.93793   0.00000  Uiso   1.00
C1243  C     0.67165   0.24489   0.96285   0.00000  Uiso   1.00
C1244  C     0.67874   0.23924   0.00698   0.00000  Uiso   1.00
C1245  C     0.16377   0.72724   0.02752   0.00000  Uiso   1.00
C1246  C     0.14087   0.72141   0.00223   0.00000  Uiso   1.00
C1247  C     0.13396   0.72711   0.95797   0.00000  Uiso   1.00
C1248  C     0.17243   0.72076   0.07408   0.00000  Uiso   1.00
N1249  N     0.18776   0.69001   0.22110   0.00000  Uiso   1.00
C1250  C     0.19731   0.68285   0.26248   0.00000  Uiso   1.00
C1251  C     0.72434   0.17661   0.26256   0.00000  Uiso   1.00
C1252  C     0.73353   0.16960   0.30343   0.00000  Uiso   1.00
C1253  C     0.21575   0.66893   0.34443   0.00000  Uiso   1.00
C1254  C     0.18843   0.67493   0.34349   0.00000  Uiso   1.00
C1255  C     0.17919   0.68174   0.30249   0.00000  Uiso   1.00
N1256  N     0.54983   0.33797   0.38360   0.00000  Uiso   1.00
C1257  C     0.15594   0.26462   0.84985   0.00000  Uiso   1.00
C1258  C     0.67907   0.75909   0.82365   0.00000  Uiso   1.00
C1259  C     0.68948   0.76658   0.78375   0.00000  Uiso   1.00
C1260  C     0.17666   0.27975   0.76855   0.00000  Uiso   1.00
C1261  C     0.15426   0.28560   0.79737   0.00000  Uiso   1.00
C1262  C     0.14408   0.27806   0.83747   0.00000  Uiso   1.00
C1263  C     0.18591   0.28688   0.72252   0.00000  Uiso   1.00
N1264  N     0.19755   0.31636   0.57115   0.00000  Uiso   1.00
C1265  C     0.20391   0.32143   0.52414   0.00000  Uiso   1.00
C1266  C     0.71793   0.81233   0.49032   0.00000  Uiso   1.00
C1267  C     0.72412   0.81748   0.44484   0.00000  Uiso   1.00
C1268  C     0.21653   0.33177   0.43275   0.00000  Uiso   1.00
C1269  C     0.20172   0.34070   0.46583   0.00000  Uiso   1.00
C1270  C     0.19512   0.33545   0.51138   0.00000  Uiso   1.00
C1271  C     0.41669   0.51386   0.37824   0.00000  Uiso   1.00
C1272  C     0.92088   0.02088   0.33406   0.00000  Uiso   1.00
C1273  C     0.93470   0.03452   0.33155   0.00000  Uiso   1.00
C1274  C     0.94431   0.04119   0.37345   0.00000  Uiso   1.00
C1275  C     0.44081   0.53382   0.41724   0.00000  Uiso   1.00
C1276  C     0.42708   0.52025   0.41958   0.00000  Uiso   1.00
C1277  C     0.95713   0.05598   0.37240   0.00000  Uiso   1.00
N1278  N     0.49245   0.60880   0.36060   0.00000  Uiso   1.00
C1279  C     0.50662   0.62215   0.37091   0.00000  Uiso   1.00
C1280  C     0.49779   0.63433   0.34615   0.00000  Uiso   1.00
C1281  C     0.51072   0.64771   0.35287   0.00000  Uiso   1.00
C1282  C     0.53309   0.64898   0.38434   0.00000  Uiso   1.00
C1283  C     0.04091   0.13700   0.41211   0.00000  Uiso   1.00
C1284  C     0.02780   0.12355   0.40560   0.00000  Uiso   1.00
C1285  C     0.62845   0.74392   0.88243   0.00000  Uiso   1.00
C1286  C     0.62264   0.73876   0.83409   0.00000  Uiso   1.00
C1287  C     0.10096   0.24516   0.80869   0.00000  Uiso   1.00
C1288  C     0.09379   0.23948   0.76461   0.00000  Uiso   1.00
C1289  C     0.60844   0.72731   0.74447   0.00000  Uiso   1.00
C1290  C     0.63104   0.72133   0.77014   0.00000  Uiso   1.00
C1291  C     0.63798   0.72704   0.81438   0.00000  Uiso   1.00
C1292  C     0.59982   0.72084   0.69789   0.00000  Uiso   1.00
N1293  N     0.58577   0.69041   0.54993   0.00000  Uiso   1.00
C1294  C     0.57665   0.68317   0.50842   0.00000  Uiso   1.00
C1295  C     0.05080   0.17570   0.50927   0.00000  Uiso   1.00
C1296  C     0.04208   0.16851   0.46844   0.00000  Uiso   1.00
C1297  C     0.55914   0.66884   0.42650   0.00000  Uiso   1.00
C1298  C     0.58532   0.67612   0.42645   0.00000  Uiso   1.00
C1299  C     0.59411   0.68314   0.46742   0.00000  Uiso   1.00
N1300  N     0.22541   0.33759   0.38748   0.00000  Uiso   1.00
C1301  C     0.94095   0.93169   0.38665   0.00000  Uiso   1.00
C1302  C     0.95325   0.91776   0.38688   0.00000  Uiso   1.00
C1303  C     0.98179   0.91629   0.37364   0.00000  Uiso   1.00
C1304  C     0.99803   0.92837   0.36013   0.00000  Uiso   1.00
C1305  C     0.98585   0.94224   0.35944   0.00000  Uiso   1.00
C1306  C     0.99670   0.90307   0.38384   0.00000  Uiso   1.00
C1307  C     0.17959   0.93464   0.63736   0.00000  Uiso   1.00
C1308  C     0.19168   0.92083   0.63816   0.00000  Uiso   1.00
C1309  C     0.20819   0.91609   0.59939   0.00000  Uiso   1.00
C1310  C     0.21255   0.92486   0.55911   0.00000  Uiso   1.00
C1311  C     0.20055   0.93885   0.55816   0.00000  Uiso   1.00
C1312  C     0.22509   0.90333   0.60634   0.00000  Uiso   1.00
C1313  C     0.08242   0.22875   0.66668   0.00000  Uiso   1.00
C1314  C     0.07388   0.22258   0.62415   0.00000  Uiso   1.00
C1315  C     0.08278   0.20852   0.61116   0.00000  Uiso   1.00
C1316  C     0.10009   0.20053   0.64131   0.00000  Uiso   1.00
C1317  C     0.10839   0.20654   0.68419   0.00000  Uiso   1.00
C1318  C     0.07351   0.20214   0.56651   0.00000  Uiso   1.00
C1319  C     0.06003   0.20530   0.05146   0.00000  Uiso   1.00
C1320  C     0.05125   0.19895   0.09471   0.00000  Uiso   1.00
C1321  C     0.06787   0.20046   0.13450   0.00000  Uiso   1.00
C1322  C     0.09307   0.20843   0.13192   0.00000  Uiso   1.00
C1323  C     0.10188   0.21484   0.08886   0.00000  Uiso   1.00
C1324  C     0.05847   0.19406   0.17930   0.00000  Uiso   1.00
C1325  C     0.20345   0.27925   0.68894   0.00000  Uiso   1.00
C1326  C     0.21180   0.28570   0.64626   0.00000  Uiso   1.00
C1327  C     0.20265   0.29976   0.63556   0.00000  Uiso   1.00
C1328  C     0.18484   0.30746   0.66717   0.00000  Uiso   1.00
C1329  C     0.17674   0.30118   0.71050   0.00000  Uiso   1.00
C1330  C     0.21194   0.30605   0.59070   0.00000  Uiso   1.00
C1331  C     0.16343   0.29343   0.08823   0.00000  Uiso   1.00
C1332  C     0.17182   0.29945   0.13106   0.00000  Uiso   1.00
C1333  C     0.18962   0.29157   0.16070   0.00000  Uiso   1.00
C1334  C     0.19892   0.27762   0.14726   0.00000  Uiso   1.00
C1335  C     0.19033   0.27145   0.10479   0.00000  Uiso   1.00
C1336  C     0.19907   0.29793   0.20529   0.00000  Uiso   1.00
H1337  H     0.08262   0.74894   0.93728   0.00000  Uiso   1.00
H1338  H     0.06402   0.76212   0.00845   0.00000  Uiso   1.00
H1339  H     0.62773   0.29560   0.98599   0.00000  Uiso   1.00
H1340  H     0.64648   0.28209   0.91591   0.00000  Uiso   1.00
H1341  H     0.04662   0.80167   0.27208   0.00000  Uiso   1.00
H1342  H     0.03746   0.81108   0.35207   0.00000  Uiso   1.00
H1343  H     0.57955   0.35156   0.31377   0.00000  Uiso   1.00
H1344  H     0.58951   0.34201   0.23249   0.00000  Uiso   1.00
H1345  H     0.86017   0.01590   0.47404   0.00000  Uiso   1.00
H1346  H     0.83607   0.03985   0.47863   0.00000  Uiso   1.00
H1347  H     0.32448   0.53803   0.32594   0.00000  Uiso   1.00
H1348  H     0.34915   0.51466   0.32235   0.00000  Uiso   1.00
H1349  H     0.29253   0.63327   0.45330   0.00000  Uiso   1.00
H1350  H     0.27055   0.65719   0.44055   0.00000  Uiso   1.00
H1351  H     0.71759   0.13824   0.33384   0.00000  Uiso   1.00
H1352  H     0.73918   0.11480   0.34565   0.00000  Uiso   1.00
H1353  H     0.68378   0.25394   0.94778   0.00000  Uiso   1.00
H1354  H     0.69660   0.24418   0.02362   0.00000  Uiso   1.00
H1355  H     0.12802   0.71245   0.01575   0.00000  Uiso   1.00
H1356  H     0.11642   0.72249   0.93923   0.00000  Uiso   1.00
H1357  H     0.73810   0.17716   0.23097   0.00000  Uiso   1.00
H1358  H     0.75458   0.16491   0.30352   0.00000  Uiso   1.00
H1359  H     0.17438   0.67429   0.37466   0.00000  Uiso   1.00
H1360  H     0.15819   0.68641   0.30225   0.00000  Uiso   1.00
H1361  H     0.68887   0.74885   0.83359   0.00000  Uiso   1.00
H1362  H     0.70748   0.76175   0.76540   0.00000  Uiso   1.00
H1363  H     0.14364   0.29572   0.78922   0.00000  Uiso   1.00
H1364  H     0.12633   0.28250   0.85792   0.00000  Uiso   1.00
H1365  H     0.72401   0.80119   0.49848   0.00000  Uiso   1.00
H1366  H     0.73524   0.81044   0.41942   0.00000  Uiso   1.00
H1367  H     0.19549   0.35172   0.45613   0.00000  Uiso   1.00
H1368  H     0.18364   0.34233   0.53690   0.00000  Uiso   1.00
H1369  H     0.91306   0.01588   0.30198   0.00000  Uiso   1.00
H1370  H     0.93745   0.03990   0.29724   0.00000  Uiso   1.00
H1371  H     0.44855   0.53865   0.44960   0.00000  Uiso   1.00
H1372  H     0.42414   0.51479   0.45365   0.00000  Uiso   1.00
H1373  H     0.48088   0.63324   0.32126   0.00000  Uiso   1.00
H1374  H     0.50388   0.65697   0.33218   0.00000  Uiso   1.00
H1375  H     0.05770   0.13789   0.43743   0.00000  Uiso   1.00
H1376  H     0.03500   0.11465   0.42761   0.00000  Uiso   1.00
H1377  H     0.08909   0.25435   0.82342   0.00000  Uiso   1.00
H1378  H     0.07613   0.24452   0.74770   0.00000  Uiso   1.00
H1379  H     0.64362   0.71222   0.75694   0.00000  Uiso   1.00
H1380  H     0.65527   0.72228   0.83338   0.00000  Uiso   1.00
H1381  H     0.03758   0.17542   0.54153   0.00000  Uiso   1.00
H1382  H     0.02191   0.16288   0.46919   0.00000  Uiso   1.00
H1383  H     0.59884   0.67634   0.39456   0.00000  Uiso   1.00
H1384  H     0.61425   0.68878   0.46692   0.00000  Uiso   1.00
H1385  H     0.91903   0.93284   0.39798   0.00000  Uiso   1.00
H1386  H     0.94108   0.90828   0.39901   0.00000  Uiso   1.00
H1387  H     0.02029   0.92685   0.35129   0.00000  Uiso   1.00
H1388  H     0.99912   0.95146   0.34970   0.00000  Uiso   1.00
H1389  H     0.01175   0.90369   0.41143   0.00000  Uiso   1.00
H1390  H     0.16698   0.93790   0.66834   0.00000  Uiso   1.00
H1391  H     0.18886   0.91387   0.66936   0.00000  Uiso   1.00
H1392  H     0.22615   0.92106   0.52977   0.00000  Uiso   1.00
H1393  H     0.20497   0.94570   0.52741   0.00000  Uiso   1.00
H1394  H     0.23929   0.90381   0.63524   0.00000  Uiso   1.00
H1395  H     0.07525   0.23978   0.67385   0.00000  Uiso   1.00
H1396  H     0.06052   0.22886   0.60106   0.00000  Uiso   1.00
H1397  H     0.10691   0.18952   0.63195   0.00000  Uiso   1.00
H1398  H     0.12116   0.19965   0.70616   0.00000  Uiso   1.00
H1399  H     0.05657   0.20738   0.54755   0.00000  Uiso   1.00
H1400  H     0.04703   0.20389   0.02083   0.00000  Uiso   1.00
H1401  H     0.03183   0.19267   0.09757   0.00000  Uiso   1.00
H1402  H     0.10550   0.20977   0.16350   0.00000  Uiso   1.00
H1403  H     0.12127   0.22114   0.08742   0.00000  Uiso   1.00
H1404  H     0.03909   0.19820   0.19590   0.00000  Uiso   1.00
H1405  H     0.21091   0.26822   0.69393   0.00000  Uiso   1.00
H1406  H     0.22518   0.27965   0.62105   0.00000  Uiso   1.00
H1407  H     0.17764   0.31842   0.65860   0.00000  Uiso   1.00
H1408  H     0.16353   0.30784   0.73376   0.00000  Uiso   1.00
H1409  H     0.23035   0.30122   0.57312   0.00000  Uiso   1.00
H1410  H     0.15025   0.30023   0.06665   0.00000  Uiso   1.00
H1411  H     0.16463   0.31037   0.14079   0.00000  Uiso   1.00
H1412  H     0.21270   0.27144   0.16990   0.00000  Uiso   1.00
H1413  H     0.19788   0.26051   0.09730   0.00000  Uiso   1.00
H1414  H     0.21540   0.29238   0.22487   0.00000  Uiso   1.00
C1415  C     0.11607   0.76453   0.92254   0.00000  Uiso   1.00
C1416  C     0.59241   0.25911   0.94808   0.00000  Uiso   1.00
C1417  C     0.58181   0.26664   0.98821   0.00000  Uiso   1.00
C1418  C     0.09478   0.77970   0.00296   0.00000  Uiso   1.00
C1419  C     0.11778   0.78541   0.97591   0.00000  Uiso   1.00
C1420  C     0.12835   0.77783   0.93587   0.00000  Uiso   1.00
C1421  C     0.08549   0.78675   0.04818   0.00000  Uiso   1.00
N1422  N     0.07372   0.81594   0.19893   0.00000  Uiso   1.00
C1423  C     0.06784   0.82141   0.24580   0.00000  Uiso   1.00
C1424  C     0.55365   0.31265   0.28024   0.00000  Uiso   1.00
C1425  C     0.54871   0.31788   0.32611   0.00000  Uiso   1.00
C1426  C     0.05765   0.83198   0.33800   0.00000  Uiso   1.00
C1427  C     0.07245   0.84065   0.30422   0.00000  Uiso   1.00
C1428  C     0.07788   0.83529   0.25831   0.00000  Uiso   1.00
C1429  C     0.85662   0.01380   0.39782   0.00000  Uiso   1.00
C1430  C     0.35236   0.52085   0.44190   0.00000  Uiso   1.00
C1431  C     0.33853   0.53447   0.44426   0.00000  Uiso   1.00
C1432  C     0.32889   0.54114   0.40221   0.00000  Uiso   1.00
C1433  C     0.83240   0.03355   0.35862   0.00000  Uiso   1.00
C1434  C     0.84624   0.02009   0.35646   0.00000  Uiso   1.00
C1435  C     0.31607   0.55606   0.40256   0.00000  Uiso   1.00
N1436  N     0.78040   0.10877   0.41477   0.00000  Uiso   1.00
C1437  C     0.76708   0.12225   0.40308   0.00000  Uiso   1.00
C1438  C     0.77607   0.13444   0.42762   0.00000  Uiso   1.00
C1439  C     0.76374   0.14793   0.41982   0.00000  Uiso   1.00
C1440  C     0.74193   0.14930   0.38731   0.00000  Uiso   1.00
C1441  C     0.23402   0.63728   0.35979   0.00000  Uiso   1.00
C1442  C     0.24644   0.62373   0.36750   0.00000  Uiso   1.00
C1443  C     0.64370   0.24384   0.88979   0.00000  Uiso   1.00
C1444  C     0.64961   0.23866   0.93793   0.00000  Uiso   1.00
C1445  C     0.17165   0.74489   0.96285   0.00000  Uiso   1.00
C1446  C     0.17874   0.73924   0.00698   0.00000  Uiso   1.00
C1447  C     0.66377   0.22724   0.02752   0.00000  Uiso   1.00
C1448  C     0.64087   0.22141   0.00223   0.00000  Uiso   1.00
C1449  C     0.63396   0.22711   0.95797   0.00000  Uiso   1.00
C1450  C     0.67243   0.22076   0.07408   0.00000  Uiso   1.00
N1451  N     0.68776   0.19001   0.22110   0.00000  Uiso   1.00
C1452  C     0.69731   0.18285   0.26248   0.00000  Uiso   1.00
C1453  C     0.22434   0.67661   0.26256   0.00000  Uiso   1.00
C1454  C     0.23353   0.66960   0.30343   0.00000  Uiso   1.00
C1455  C     0.71575   0.16893   0.34443   0.00000  Uiso   1.00
C1456  C     0.68843   0.17493   0.34349   0.00000  Uiso   1.00
C1457  C     0.67919   0.18174   0.30249   0.00000  Uiso   1.00
N1458  N     0.04983   0.83797   0.38360   0.00000  Uiso   1.00
C1459  C     0.65594   0.76462   0.84985   0.00000  Uiso   1.00
C1460  C     0.17907   0.25909   0.82365   0.00000  Uiso   1.00
C1461  C     0.18948   0.26658   0.78375   0.00000  Uiso   1.00
C1462  C     0.67666   0.77975   0.76855   0.00000  Uiso   1.00
C1463  C     0.65426   0.78560   0.79737   0.00000  Uiso   1.00
C1464  C     0.64408   0.77806   0.83747   0.00000  Uiso   1.00
C1465  C     0.68591   0.78688   0.72252   0.00000  Uiso   1.00
N1466  N     0.69755   0.81636   0.57115   0.00000  Uiso   1.00
C1467  C     0.70391   0.82143   0.52414   0.00000  Uiso   1.00
C1468  C     0.21793   0.31233   0.49032   0.00000  Uiso   1.00
C1469  C     0.22412   0.31748   0.44484   0.00000  Uiso   1.00
C1470  C     0.71653   0.83177   0.43275   0.00000  Uiso   1.00
C1471  C     0.70172   0.84070   0.46583   0.00000  Uiso   1.00
C1472  C     0.69512   0.83545   0.51138   0.00000  Uiso   1.00
C1473  C     0.91669   0.01386   0.37824   0.00000  Uiso   1.00
C1474  C     0.42088   0.52088   0.33406   0.00000  Uiso   1.00
C1475  C     0.43470   0.53452   0.33155   0.00000  Uiso   1.00
C1476  C     0.44431   0.54119   0.37345   0.00000  Uiso   1.00
C1477  C     0.94081   0.03382   0.41724   0.00000  Uiso   1.00
C1478  C     0.92708   0.02025   0.41958   0.00000  Uiso   1.00
C1479  C     0.45713   0.55598   0.37240   0.00000  Uiso   1.00
N1480  N     0.99245   0.10880   0.36060   0.00000  Uiso   1.00
C1481  C     0.00662   0.12215   0.37091   0.00000  Uiso   1.00
C1482  C     0.99779   0.13433   0.34615   0.00000  Uiso   1.00
C1483  C     0.01072   0.14771   0.35287   0.00000  Uiso   1.00
C1484  C     0.03309   0.14898   0.38434   0.00000  Uiso   1.00
C1485  C     0.54091   0.63700   0.41211   0.00000  Uiso   1.00
C1486  C     0.52780   0.62355   0.40560   0.00000  Uiso   1.00
C1487  C     0.12845   0.24392   0.88243   0.00000  Uiso   1.00
C1488  C     0.12264   0.23876   0.83409   0.00000  Uiso   1.00
C1489  C     0.60096   0.74516   0.80869   0.00000  Uiso   1.00
C1490  C     0.59379   0.73948   0.76461   0.00000  Uiso   1.00
C1491  C     0.10844   0.22731   0.74447   0.00000  Uiso   1.00
C1492  C     0.13104   0.22133   0.77014   0.00000  Uiso   1.00
C1493  C     0.13798   0.22704   0.81438   0.00000  Uiso   1.00
C1494  C     0.09982   0.22084   0.69789   0.00000  Uiso   1.00
N1495  N     0.08577   0.19041   0.54993   0.00000  Uiso   1.00
C1496  C     0.07665   0.18317   0.50842   0.00000  Uiso   1.00
C1497  C     0.55080   0.67570   0.50927   0.00000  Uiso   1.00
C1498  C     0.54208   0.66851   0.46844   0.00000  Uiso   1.00
C1499  C     0.05914   0.16884   0.42650   0.00000  Uiso   1.00
C1500  C     0.08532   0.17612   0.42645   0.00000  Uiso   1.00
C1501  C     0.09411   0.18314   0.46742   0.00000  Uiso   1.00
N1502  N     0.72541   0.83759   0.38748   0.00000  Uiso   1.00
C1503  C     0.44095   0.43169   0.38665   0.00000  Uiso   1.00
C1504  C     0.45325   0.41776   0.38688   0.00000  Uiso   1.00
C1505  C     0.48179   0.41629   0.37364   0.00000  Uiso   1.00
C1506  C     0.49803   0.42837   0.36013   0.00000  Uiso   1.00
C1507  C     0.48585   0.44224   0.35944   0.00000  Uiso   1.00
C1508  C     0.49670   0.40307   0.38384   0.00000  Uiso   1.00
C1509  C     0.67959   0.43464   0.63736   0.00000  Uiso   1.00
C1510  C     0.69168   0.42083   0.63816   0.00000  Uiso   1.00
C1511  C     0.70819   0.41609   0.59939   0.00000  Uiso   1.00
C1512  C     0.71255   0.42486   0.55911   0.00000  Uiso   1.00
C1513  C     0.70055   0.43885   0.55816   0.00000  Uiso   1.00
C1514  C     0.72509   0.40333   0.60634   0.00000  Uiso   1.00
C1515  C     0.58242   0.72875   0.66668   0.00000  Uiso   1.00
C1516  C     0.57388   0.72258   0.62415   0.00000  Uiso   1.00
C1517  C     0.58278   0.70852   0.61116   0.00000  Uiso   1.00
C1518  C     0.60009   0.70053   0.64131   0.00000  Uiso   1.00
C1519  C     0.60839   0.70654   0.68419   0.00000  Uiso   1.00
C1520  C     0.57351   0.70214   0.56651   0.00000  Uiso   1.00
C1521  C     0.56003   0.70530   0.05146   0.00000  Uiso   1.00
C1522  C     0.55125   0.69895   0.09471   0.00000  Uiso   1.00
C1523  C     0.56787   0.70046   0.13450   0.00000  Uiso   1.00
C1524  C     0.59307   0.70843   0.13192   0.00000  Uiso   1.00
C1525  C     0.60188   0.71484   0.08886   0.00000  Uiso   1.00
C1526  C     0.55847   0.69406   0.17930   0.00000  Uiso   1.00
C1527  C     0.70345   0.77925   0.68894   0.00000  Uiso   1.00
C1528  C     0.71180   0.78570   0.64626   0.00000  Uiso   1.00
C1529  C     0.70265   0.79976   0.63556   0.00000  Uiso   1.00
C1530  C     0.68484   0.80746   0.66717   0.00000  Uiso   1.00
C1531  C     0.67674   0.80118   0.71050   0.00000  Uiso   1.00
C1532  C     0.71194   0.80605   0.59070   0.00000  Uiso   1.00
C1533  C     0.66343   0.79343   0.08823   0.00000  Uiso   1.00
C1534  C     0.67182   0.79945   0.13106   0.00000  Uiso   1.00
C1535  C     0.68962   0.79157   0.16070   0.00000  Uiso   1.00
C1536  C     0.69892   0.77762   0.14726   0.00000  Uiso   1.00
C1537  C     0.69033   0.77145   0.10479   0.00000  Uiso   1.00
C1538  C     0.69907   0.79793   0.20529   0.00000  Uiso   1.00
H1539  H     0.58262   0.24894   0.93728   0.00000  Uiso   1.00
H1540  H     0.56402   0.26212   0.00845   0.00000  Uiso   1.00
H1541  H     0.12773   0.79560   0.98599   0.00000  Uiso   1.00
H1542  H     0.14648   0.78209   0.91591   0.00000  Uiso   1.00
H1543  H     0.54662   0.30167   0.27208   0.00000  Uiso   1.00
H1544  H     0.53746   0.31108   0.35207   0.00000  Uiso   1.00
H1545  H     0.07955   0.85156   0.31377   0.00000  Uiso   1.00
H1546  H     0.08951   0.84201   0.23249   0.00000  Uiso   1.00
H1547  H     0.36017   0.51590   0.47404   0.00000  Uiso   1.00
H1548  H     0.33607   0.53985   0.47863   0.00000  Uiso   1.00
H1549  H     0.82448   0.03803   0.32594   0.00000  Uiso   1.00
H1550  H     0.84915   0.01466   0.32235   0.00000  Uiso   1.00
H1551  H     0.79253   0.13327   0.45330   0.00000  Uiso   1.00
H1552  H     0.77055   0.15719   0.44055   0.00000  Uiso   1.00
H1553  H     0.21759   0.63824   0.33384   0.00000  Uiso   1.00
H1554  H     0.23918   0.61480   0.34565   0.00000  Uiso   1.00
H1555  H     0.18378   0.75394   0.94778   0.00000  Uiso   1.00
H1556  H     0.19660   0.74418   0.02362   0.00000  Uiso   1.00
H1557  H     0.62802   0.21245   0.01575   0.00000  Uiso   1.00
H1558  H     0.61642   0.22249   0.93923   0.00000  Uiso   1.00
H1559  H     0.23810   0.67716   0.23097   0.00000  Uiso   1.00
H1560  H     0.25458   0.66491   0.30352   0.00000  Uiso   1.00
H1561  H     0.67438   0.17429   0.37466   0.00000  Uiso   1.00
H1562  H     0.65819   0.18641   0.30225   0.00000  Uiso   1.00
H1563  H     0.18887   0.24885   0.83359   0.00000  Uiso   1.00
H1564  H     0.20748   0.26175   0.76540   0.00000  Uiso   1.00
H1565  H     0.64364   0.79572   0.78922   0.00000  Uiso   1.00
H1566  H     0.62633   0.78250   0.85792   0.00000  Uiso   1.00
H1567  H     0.22401   0.30119   0.49848   0.00000  Uiso   1.00
H1568  H     0.23524   0.31044   0.41942   0.00000  Uiso   1.00
H1569  H     0.69549   0.85172   0.45613   0.00000  Uiso   1.00
H1570  H     0.68364   0.84233   0.53690   0.00000  Uiso   1.00
H1571  H     0.41306   0.51588   0.30198   0.00000  Uiso   1.00
H1572  H     0.43745   0.53990   0.29724   0.00000  Uiso   1.00
H1573  H     0.94855   0.03865   0.44960   0.00000  Uiso   1.00
H1574  H     0.92414   0.01479   0.45365   0.00000  Uiso   1.00
H1575  H     0.98088   0.13324   0.32126   0.00000  Uiso   1.00
H1576  H     0.00388   0.15697   0.33218   0.00000  Uiso   1.00
H1577  H     0.55770   0.63789   0.43743   0.00000  Uiso   1.00
H1578  H     0.53500   0.61465   0.42761   0.00000  Uiso   1.00
H1579  H     0.58909   0.75435   0.82342   0.00000  Uiso   1.00
H1580  H     0.57613   0.74452   0.74770   0.00000  Uiso   1.00
H1581  H     0.14362   0.21222   0.75694   0.00000  Uiso   1.00
H1582  H     0.15527   0.22228   0.83338   0.00000  Uiso   1.00
H1583  H     0.53758   0.67542   0.54153   0.00000  Uiso   1.00
H1584  H     0.52191   0.66288   0.46919   0.00000  Uiso   1.00
H1585  H     0.09884   0.17634   0.39456   0.00000  Uiso   1.00
H1586  H     0.11425   0.18878   0.46692   0.00000  Uiso   1.00
H1587  H     0.41903   0.43284   0.39798   0.00000  Uiso   1.00
H1588  H     0.44108   0.40828   0.39901   0.00000  Uiso   1.00
H1589  H     0.52029   0.42685   0.35129   0.00000  Uiso   1.00
H1590  H     0.49912   0.45146   0.34970   0.00000  Uiso   1.00
H1591  H     0.51175   0.40369   0.41143   0.00000  Uiso   1.00
H1592  H     0.66698   0.43790   0.66834   0.00000  Uiso   1.00
H1593  H     0.68886   0.41387   0.66936   0.00000  Uiso   1.00
H1594  H     0.72615   0.42106   0.52977   0.00000  Uiso   1.00
H1595  H     0.70497   0.44570   0.52741   0.00000  Uiso   1.00
H1596  H     0.73929   0.40381   0.63524   0.00000  Uiso   1.00
H1597  H     0.57525   0.73978   0.67385   0.00000  Uiso   1.00
H1598  H     0.56052   0.72886   0.60106   0.00000  Uiso   1.00
H1599  H     0.60691   0.68952   0.63195   0.00000  Uiso   1.00
H1600  H     0.62116   0.69965   0.70616   0.00000  Uiso   1.00
H1601  H     0.55657   0.70738   0.54755   0.00000  Uiso   1.00
H1602  H     0.54703   0.70389   0.02083   0.00000  Uiso   1.00
H1603  H     0.53183   0.69267   0.09757   0.00000  Uiso   1.00
H1604  H     0.60550   0.70977   0.16350   0.00000  Uiso   1.00
H1605  H     0.62127   0.72114   0.08742   0.00000  Uiso   1.00
H1606  H     0.53909   0.69820   0.19590   0.00000  Uiso   1.00
H1607  H     0.71091   0.76822   0.69393   0.00000  Uiso   1.00
H1608  H     0.72518   0.77965   0.62105   0.00000  Uiso   1.00
H1609  H     0.67764   0.81842   0.65860   0.00000  Uiso   1.00
H1610  H     0.66353   0.80784   0.73376   0.00000  Uiso   1.00
H1611  H     0.73035   0.80122   0.57312   0.00000  Uiso   1.00
H1612  H     0.65025   0.80023   0.06665   0.00000  Uiso   1.00
H1613  H     0.66463   0.81037   0.14079   0.00000  Uiso   1.00
H1614  H     0.71270   0.77144   0.16990   0.00000  Uiso   1.00
H1615  H     0.69788   0.76051   0.09730   0.00000  Uiso   1.00
H1616  H     0.71540   0.79238   0.22487   0.00000  Uiso   1.00
C1617  C     0.37270   0.50000   0.39413   0.00000  Uiso   1.00
C1618  C     0.40062   0.50000   0.38201   0.00000  Uiso   1.00
C1619  C     0.87270   0.00000   0.39413   0.00000  Uiso   1.00
C1620  C     0.90062   0.00000   0.38201   0.00000  Uiso   1.00
C1621  C     0.62730   0.50000   0.60587   0.00000  Uiso   1.00
C1622  C     0.59938   0.50000   0.61799   0.00000  Uiso   1.00
C1623  C     0.12730   0.00000   0.60587   0.00000  Uiso   1.00
C1624  C     0.09938   0.00000   0.61799   0.00000  Uiso   1.00
loop_
_geom_bond_atom_site_label_1
_geom_bond_atom_site_label_2
_geom_bond_distance
_geom_bond_site_symmetry_2
_ccdc_geom_bond_type
C1     C6      1.398   .     D
C1     C204    1.400   .     S
C1     C1285   1.469   .     S
C2     C3      1.397   .     S
C2     H125    1.082   .     S
C2     C203    1.400   .     D
C3     H126    1.082   1_556 S
C3     C206    1.405   1_556 D
C4     C7      1.475   .     S
C4     C5      1.407   1_554 D
C4     C205    1.405   1_554 S
C5     C6      1.397   .     S
C5     H127    1.081   .     S
C5     C4      1.407   1_556 D
C6     H128    1.082   .     S
C7     C1521   1.406   .     D
C7     C1525   1.405   .     S
N8     C9      1.424   .     S
N8     C1526   1.294   .     D
C9     C14     1.397   .     D
C9     C212    1.407   .     S
C10    C11     1.384   .     S
C10    H129    1.079   .     S
C10    C211    1.407   .     D
C11    H130    1.083   .     S
C11    C214    1.394   .     D
C12    C13     1.403   .     D
C12    N44     1.427   .     S
C12    C213    1.394   .     S
C13    C14     1.392   .     S
C13    H131    1.084   .     S
C14    H132    1.085   .     S
C15    C20     1.394   .     S
C15    C1617   1.470   .     S
C15    C218    1.401   .     D
C16    C17     1.402   .     S
C16    H133    1.081   .     S
C16    C217    1.401   .     D
C17    C18     1.413   .     D
C17    H134    1.083   .     S
C18    C21     1.487   .     S
C18    C221    1.408   .     S
C19    C20     1.389   .     D
C19    H135    1.079   .     S
C19    C220    1.408   .     S
C20    H136    1.081   .     S
C21    C907    1.412   .     S
C21    C903    1.412   .     D
N22    C23     1.421   .     S
N22    C1110   1.280   .     D
C23    C24     1.379   .     S
C23    C230    1.422   .     D
C24    C25     1.379   .     D
C24    H137    1.081   .     S
C25    C26     1.402   .     S
C25    H138    1.078   .     S
C26    N1300   1.426   .     S
C26    C229    1.395   .     D
C27    C28     1.385   .     S
C27    H139    1.083   .     S
C27    C228    1.395   .     D
C28    H140    1.079   .     S
C28    C225    1.422   .     D
C29    C30     1.463   .     S
C29    C1487   1.346   .     D
C29    C1257   1.463   .     S
C30    C35     1.394   .     D
C30    C233    1.393   .     S
C31    H141    1.082   .     S
C31    C232    1.393   .     D
C31    C32     1.389   1_556 S
C32    H142    1.075   .     S
C32    C235    1.414   .     D
C32    C31     1.389   1_554 S
C33    C34     1.415   .     D
C33    C36     1.499   .     S
C33    C234    1.414   .     S
C34    H143    1.079   .     S
C34    C35     1.392   1_554 S
C35    H144    1.080   .     S
C35    C34     1.392   1_556 S
C36    C1331   1.412   .     D
C36    C1335   1.415   .     S
N37    C38     1.415   .     S
N37    C1336   1.293   .     D
C38    C43     1.395   .     D
C38    C241    1.399   .     S
C39    C40     1.391   .     S
C39    H145    1.084   .     S
C39    C240    1.399   .     D
C40    H146    1.084   .     S
C40    C243    1.405   .     D
C41    C42     1.404   .     D
C41    C242    1.405   .     S
C41    N1300   1.431   .     S
C42    C43     1.387   .     S
C42    H147    1.083   .     S
C43    H148    1.081   .     S
N44    C1282   1.427   .     S
N44    C1297   1.433   .     S
C45    C50     1.393   .     D
C45    C1241   1.463   .     S
C45    C248    1.394   .     S
C46    C47     1.387   .     S
C46    H149    1.081   .     S
C46    C247    1.394   .     D
C47    H150    1.076   .     S
C47    C250    1.414   .     D
C48    C49     1.417   .     D
C48    C51     1.497   .     S
C48    C249    1.414   .     S
C49    C50     1.390   .     S
C49    H151    1.077   .     S
C50    H152    1.081   .     S
C51    C113    1.418   .     D
C51    C117    1.415   .     S
N52    C53     1.419   .     S
N52    C118    1.290   .     D
C53    C58     1.391   .     D
C53    C256    1.409   .     S
C54    C55     1.381   .     S
C54    H153    1.080   .     S
C54    C255    1.409   .     D
C55    H154    1.083   .     S
C55    C258    1.393   .     D
C56    C57     1.404   .     D
C56    N88     1.426   .     S
C56    C257    1.393   .     S
C57    C58     1.389   .     S
C57    H155    1.082   .     S
C58    H156    1.084   .     S
C59    C64     1.398   .     S
C59    C1618   1.475   .     S
C59    C262    1.402   .     D
C60    C61     1.403   .     S
C60    H157    1.082   .     S
C60    C261    1.402   .     D
C61    C62     1.409   .     D
C61    H158    1.083   .     S
C62    C65     1.476   .     S
C62    C265    1.403   .     S
C63    C64     1.396   .     D
C63    H159    1.081   .     S
C63    C264    1.403   .     S
C64    H160    1.081   .     S
C65    C1305   1.406   .     D
C65    C1301   1.409   .     S
N66    C67     1.421   .     S
N66    C1508   1.280   .     D
C67    C68     1.379   .     S
C67    C274    1.422   .     D
C68    C69     1.378   .     D
C68    H161    1.081   .     S
C69    C70     1.402   .     S
C69    H162    1.078   .     S
C70    N1256   1.427   .     S
C70    C273    1.395   .     D
C71    C72     1.386   .     S
C71    H163    1.084   .     S
C71    C272    1.395   .     D
C72    H164    1.079   .     S
C72    C269    1.422   .     D
C73    C74     1.467   .     S
C73    C1213   1.469   .     S
C73    C1443   1.346   .     D
C74    C79     1.395   .     D
C74    C277    1.393   .     S
C75    C76     1.390   .     S
C75    H165    1.082   .     S
C75    C276    1.393   .     D
C76    H166    1.075   .     S
C76    C279    1.415   .     D
C77    C78     1.415   .     D
C77    C80     1.499   .     S
C77    C278    1.415   .     S
C78    C79     1.392   .     S
C78    H167    1.079   .     S
C79    H168    1.080   .     S
C80    C307    1.412   .     D
C80    C303    1.415   .     S
N81    C82     1.415   .     S
N81    C308    1.294   .     D
C82    C87     1.395   .     D
C82    C285    1.399   .     S
C83    C84     1.391   .     S
C83    H169    1.084   .     S
C83    C284    1.399   .     D
C84    H170    1.083   .     S
C84    C287    1.406   .     D
C85    C86     1.405   .     D
C85    N1256   1.433   .     S
C85    C286    1.406   .     S
C86    C87     1.388   .     S
C86    H171    1.083   .     S
C87    H172    1.082   .     S
N88    C1238   1.426   .     S
N88    C1253   1.431   .     S
C89    C90     1.395   .     D
C89    H173    1.081   .     S
C89    C1277   1.409   .     S
C90    C91     1.396   .     S
C90    H174    1.086   .     S
C91    C92     1.387   .     D
C91    C94     1.427   .     S
C92    C93     1.388   .     S
C92    H175    1.084   1_655 S
C93    H176    1.078   .     S
C93    C1277   1.406   .     D
C94    N1480   1.280   .     D
C94    H177    1.068   1_655 S
C95    C96     1.381   .     S
C95    H178    1.080   .     S
C95    C829    1.412   .     D
C96    C97     1.388   .     D
C96    H179    1.084   .     S
C97    C98     1.392   .     S
C97    C100    1.426   .     S
C98    C99     1.394   .     D
C98    H180    1.085   .     S
C99    H181    1.079   .     S
C99    C829    1.412   .     S
C100   H182    1.068   .     S
C100   N1032   1.280   .     D
C101   C102    1.388   .     S
C101   H183    1.076   .     S
C101   C282    1.415   .     D
C102   C103    1.392   .     D
C102   H184    1.081   .     S
C103   C104    1.398   .     S
C103   C106    1.458   .     S
C104   C105    1.387   .     D
C104   H185    1.082   .     S
C105   H186    1.076   .     S
C105   C282    1.412   .     S
C106   H187    1.085   .     S
C106   N283    1.294   .     D
C107   C108    1.394   .     S
C107   H188    1.078   .     S
C107   C1421   1.406   .     D
C108   C109    1.390   .     D
C108   H189    1.083   .     S
C109   C110    1.396   .     S
C109   C112    1.442   .     S
C110   C111    1.392   .     D
C110   H190    1.084   .     S
C111   H191    1.082   .     S
C111   C1421   1.405   .     S
C112   H192    1.083   .     S
C112   N1422   1.294   .     D
C113   C114    1.379   .     S
C113   H193    1.074   .     S
C114   C115    1.386   .     D
C114   H194    1.084   .     S
C115   C116    1.393   .     S
C115   C118    1.438   .     S
C116   C117    1.385   .     D
C116   H195    1.083   .     S
C117   H196    1.076   .     S
C118   H197    1.081   .     S
C119   C120    1.387   .     S
C119   H198    1.077   .     S
C119   C1248   1.412   .     D
C120   C121    1.398   .     D
C120   H199    1.082   .     S
C121   C122    1.391   .     S
C121   C124    1.459   .     S
C122   C123    1.387   .     D
C122   H200    1.081   .     S
C123   H201    1.076   .     S
C123   C1248   1.415   .     S
C124   H202    1.085   .     S
C124   N1249   1.293   .     D
H126   C3      1.082   1_554 S
H175   C92     1.084   1_455 S
H177   C94     1.068   1_455 S
C203   C208    1.398   .     S
C203   C1487   1.469   .     S
C204   C205    1.397   .     D
C204   H327    1.082   .     S
C205   C4      1.405   1_556 S
C205   H328    1.082   1_556 S
C206   C209    1.475   .     S
C206   C3      1.405   1_554 D
C206   C207    1.407   1_554 S
C207   C208    1.397   .     D
C207   H329    1.081   .     S
C207   C206    1.407   1_556 S
C208   H330    1.082   .     S
C209   C1319   1.406   .     D
C209   C1323   1.405   .     S
N210   C211    1.424   .     S
N210   C1324   1.294   .     D
C211   C216    1.397   .     S
C212   C213    1.384   .     D
C212   H331    1.079   .     S
C213   H332    1.083   .     S
C214   C215    1.403   .     S
C214   N246    1.427   .     S
C215   C216    1.392   .     D
C215   H333    1.084   .     S
C216   H334    1.085   .     S
C217   C222    1.394   .     S
C217   C1619   1.470   1_565 S
C218   C219    1.402   .     S
C218   H335    1.081   .     S
C219   C220    1.413   .     D
C219   H336    1.083   .     S
C220   C223    1.487   .     S
C221   C222    1.389   .     D
C221   H337    1.079   .     S
C222   H338    1.081   .     S
C223   C1109   1.412   .     S
C223   C1105   1.412   .     D
N224   C225    1.421   .     S
N224   C908    1.280   .     D
C225   C226    1.379   .     S
C226   C227    1.379   .     D
C226   H339    1.081   .     S
C227   C228    1.402   .     S
C227   H340    1.078   .     S
C228   N1502   1.426   .     S
C229   C230    1.385   .     S
C229   H341    1.083   .     S
C230   H342    1.079   .     S
C231   C232    1.463   .     S
C231   C1285   1.346   .     D
C231   C1459   1.463   .     S
C232   C237    1.394   .     S
C233   H343    1.082   .     S
C233   C234    1.389   1_556 D
C234   H344    1.075   .     S
C234   C233    1.389   1_554 D
C235   C236    1.415   .     S
C235   C238    1.499   .     S
C236   H345    1.079   .     S
C236   C237    1.392   1_554 D
C237   H346    1.080   .     S
C237   C236    1.392   1_556 D
C238   C1533   1.412   .     S
C238   C1537   1.415   .     D
N239   C240    1.415   .     S
N239   C1538   1.293   .     D
C240   C245    1.395   .     S
C241   C242    1.391   .     D
C241   H347    1.084   .     S
C242   H348    1.084   .     S
C243   C244    1.404   .     S
C243   N1502   1.431   .     S
C244   C245    1.387   .     D
C244   H349    1.083   .     S
C245   H350    1.081   .     S
N246   C1484   1.427   .     S
N246   C1499   1.433   .     S
C247   C252    1.393   .     S
C247   C1443   1.463   .     S
C248   C249    1.387   .     D
C248   H351    1.081   .     S
C249   H352    1.076   .     S
C250   C251    1.417   .     S
C250   C253    1.497   .     S
C251   C252    1.390   .     D
C251   H353    1.077   .     S
C252   H354    1.081   .     S
C253   C315    1.418   .     D
C253   C319    1.415   .     S
N254   C255    1.419   .     S
N254   C320    1.290   .     D
C255   C260    1.391   .     S
C256   C257    1.381   .     D
C256   H355    1.080   .     S
C257   H356    1.083   .     S
C258   C259    1.404   .     S
C258   N290    1.426   .     S
C259   C260    1.389   .     D
C259   H357    1.082   .     S
C260   H358    1.084   .     S
C261   C266    1.398   .     S
C261   C1620   1.475   1_565 S
C262   C263    1.403   .     S
C262   H359    1.082   .     S
C263   C264    1.409   .     D
C263   H360    1.083   .     S
C264   C267    1.476   .     S
C265   C266    1.396   .     D
C265   H361    1.081   .     S
C266   H362    1.081   .     S
C267   C1507   1.406   .     D
C267   C1503   1.409   .     S
N268   C1306   1.280   .     D
N268   C269    1.421   1_655 S
C269   N268    1.421   1_455 S
C269   C270    1.379   1_455 S
C270   H363    1.081   .     S
C270   C269    1.379   1_655 S
C270   C271    1.378   1_655 D
C271   C272    1.402   .     S
C271   H364    1.078   .     S
C271   C270    1.378   1_455 D
C272   N1458   1.427   .     S
C273   C274    1.386   .     S
C273   H365    1.084   .     S
C274   H366    1.079   .     S
C275   C276    1.467   .     S
C275   C1415   1.469   .     S
C275   C1241   1.346   .     D
C276   C281    1.395   .     S
C277   C278    1.390   .     D
C277   H367    1.082   .     S
C278   H368    1.075   .     S
C279   C280    1.415   .     S
C279   C282    1.499   .     S
C280   C281    1.392   .     D
C280   H369    1.079   .     S
C281   H370    1.080   .     S
N283   C284    1.415   .     S
C284   C289    1.395   .     S
C285   C286    1.391   .     D
C285   H371    1.084   .     S
C286   H372    1.083   .     S
C287   C288    1.405   .     S
C287   N1458   1.433   .     S
C288   C289    1.388   .     D
C288   H373    1.083   .     S
C289   H374    1.082   .     S
N290   C1440   1.426   .     S
N290   C1455   1.431   .     S
C291   C292    1.395   .     S
C291   H375    1.081   .     S
C291   C1479   1.409   .     D
C292   C293    1.396   .     D
C292   H376    1.086   .     S
C293   C294    1.387   .     S
C293   C296    1.427   .     S
C294   C295    1.388   .     D
C294   H377    1.084   .     S
C295   H378    1.078   .     S
C295   C1479   1.406   .     S
C296   H379    1.068   .     S
C296   N1278   1.280   .     D
C297   C298    1.381   .     D
C297   H380    1.080   .     S
C297   C1031   1.412   .     S
C298   C299    1.388   .     S
C298   H381    1.084   .     S
C299   C300    1.392   .     D
C299   C302    1.426   .     S
C300   C301    1.394   .     S
C300   H382    1.085   .     S
C301   H383    1.079   .     S
C301   C1031   1.412   .     D
C302   H384    1.068   .     S
C302   N830    1.280   .     D
C303   C304    1.388   .     D
C303   H385    1.076   .     S
C304   C305    1.392   .     S
C304   H386    1.081   .     S
C305   C306    1.398   .     D
C305   C308    1.458   .     S
C306   C307    1.387   .     S
C306   H387    1.082   .     S
C307   H388    1.076   .     S
C308   H389    1.085   .     S
C309   C310    1.394   .     S
C309   H390    1.078   .     S
C309   C1219   1.406   .     D
C310   C311    1.390   .     D
C310   H391    1.083   .     S
C311   C312    1.396   .     S
C311   C314    1.442   .     S
C312   C313    1.392   .     D
C312   H392    1.084   .     S
C313   H393    1.082   .     S
C313   C1219   1.405   .     S
C314   H394    1.083   .     S
C314   N1220   1.294   .     D
C315   C316    1.379   .     S
C315   H395    1.074   .     S
C316   C317    1.386   .     D
C316   H396    1.084   .     S
C317   C318    1.393   .     S
C317   C320    1.438   .     S
C318   C319    1.385   .     D
C318   H397    1.083   .     S
C319   H398    1.076   .     S
C320   H399    1.081   .     S
C321   C322    1.387   .     S
C321   H400    1.077   .     S
C321   C1450   1.412   .     D
C322   C323    1.398   .     D
C322   H401    1.082   .     S
C323   C324    1.391   .     S
C323   C326    1.459   .     S
C324   C325    1.387   .     D
C324   H402    1.081   .     S
C325   H403    1.076   .     S
C325   C1450   1.415   .     S
C326   H404    1.085   .     S
C326   N1451   1.293   .     D
H328   C205    1.082   1_554 S
C405   C410    1.398   .     D
C405   C608    1.400   .     S
C405   C881    1.469   .     S
C406   C407    1.397   .     S
C406   H529    1.082   .     S
C406   C607    1.400   .     D
C407   H530    1.082   1_554 S
C407   C610    1.405   1_554 D
C408   C411    1.475   .     S
C408   C409    1.407   1_556 D
C408   C609    1.405   1_556 S
C409   C410    1.397   .     S
C409   H531    1.081   .     S
C409   C408    1.407   1_554 D
C410   H532    1.082   .     S
C411   C1117   1.406   .     D
C411   C1121   1.405   .     S
N412   C413    1.424   .     S
N412   C1122   1.294   .     D
C413   C418    1.397   .     D
C413   C616    1.407   .     S
C414   C415    1.384   .     S
C414   H533    1.079   .     S
C414   C615    1.407   .     D
C415   H534    1.083   .     S
C415   C618    1.394   .     D
C416   C417    1.403   .     D
C416   N448    1.427   .     S
C416   C617    1.394   .     S
C417   C418    1.392   .     S
C417   H535    1.084   .     S
C418   H536    1.085   .     S
C419   C424    1.394   .     D
C419   C1621   1.470   .     S
C419   C622    1.401   .     S
C420   C421    1.402   .     S
C420   H537    1.081   .     S
C420   C621    1.401   .     D
C421   C422    1.413   .     D
C421   H538    1.083   .     S
C422   C425    1.487   .     S
C422   C625    1.408   .     S
C423   C424    1.389   .     S
C423   H539    1.079   .     S
C423   C624    1.408   .     D
C424   H540    1.081   .     S
C425   C1311   1.412   .     D
C425   C1307   1.412   .     S
N426   C427    1.421   .     S
N426   C1514   1.280   .     D
C427   C428    1.379   .     D
C427   C634    1.422   .     S
C428   C429    1.379   .     S
C428   H541    1.081   .     S
C429   C430    1.402   .     D
C429   H542    1.078   .     S
C430   N896    1.426   .     S
C430   C633    1.395   .     S
C431   C432    1.385   .     S
C431   H543    1.083   .     S
C431   C632    1.395   .     D
C432   H544    1.079   .     S
C432   C629    1.422   .     D
C433   C434    1.463   .     S
C433   C1083   1.346   .     D
C433   C853    1.463   .     S
C434   C439    1.394   .     D
C434   C637    1.393   .     S
C435   H545    1.082   .     S
C435   C636    1.393   .     D
C435   C436    1.389   1_554 S
C436   H546    1.075   .     S
C436   C639    1.414   .     D
C436   C435    1.389   1_556 S
C437   C438    1.415   .     D
C437   C440    1.499   .     S
C437   C638    1.414   .     S
C438   H547    1.079   .     S
C438   C439    1.392   1_556 S
C439   H548    1.080   .     S
C439   C438    1.392   1_554 S
C440   C927    1.412   .     D
C440   C931    1.415   .     S
N441   C442    1.415   .     S
N441   C932    1.293   .     D
C442   C447    1.395   .     D
C442   C645    1.399   .     S
C443   C444    1.391   .     S
C443   H549    1.084   .     S
C443   C644    1.399   .     D
C444   H550    1.084   .     S
C444   C647    1.405   .     D
C445   C446    1.404   .     D
C445   C646    1.405   .     S
C445   N896    1.431   .     S
C446   C447    1.387   .     S
C446   H551    1.083   .     S
C447   H552    1.081   .     S
N448   C878    1.427   .     S
N448   C893    1.433   .     S
C449   C454    1.393   .     D
C449   C837    1.463   .     S
C449   C652    1.394   .     S
C450   C451    1.387   .     S
C450   H553    1.081   .     S
C450   C651    1.394   .     D
C451   H554    1.076   .     S
C451   C654    1.414   .     D
C452   C453    1.417   .     D
C452   C455    1.497   .     S
C452   C653    1.414   .     S
C453   C454    1.390   .     S
C453   H555    1.077   .     S
C454   H556    1.081   .     S
C455   C517    1.418   .     D
C455   C521    1.415   .     S
N456   C457    1.419   .     S
N456   C522    1.290   .     D
C457   C462    1.391   .     D
C457   C660    1.409   .     S
C458   C459    1.381   .     S
C458   H557    1.080   .     S
C458   C659    1.409   .     D
C459   H558    1.083   .     S
C459   C662    1.393   .     D
C460   C461    1.404   .     D
C460   N492    1.426   .     S
C460   C661    1.393   .     S
C461   C462    1.389   .     S
C461   H559    1.082   .     S
C462   H560    1.084   .     S
C463   C468    1.398   .     S
C463   C1622   1.475   .     S
C463   C666    1.402   .     D
C464   C465    1.403   .     S
C464   H561    1.082   .     S
C464   C665    1.402   .     D
C465   C466    1.409   .     D
C465   H562    1.083   .     S
C466   C469    1.476   .     S
C466   C669    1.403   .     S
C467   C468    1.396   .     D
C467   H563    1.081   .     S
C467   C668    1.403   .     S
C468   H564    1.081   .     S
C469   C901    1.406   .     D
C469   C897    1.409   .     S
N470   C471    1.421   .     S
N470   C1104   1.280   .     D
C471   C472    1.379   .     S
C471   C678    1.422   .     D
C472   C473    1.378   .     D
C472   H565    1.081   .     S
C473   C474    1.402   .     S
C473   H566    1.078   .     S
C474   N852    1.427   .     S
C474   C677    1.395   .     D
C475   C476    1.386   .     S
C475   H567    1.084   .     S
C475   C676    1.395   .     D
C476   H568    1.079   .     S
C476   C673    1.422   .     D
C477   C478    1.467   .     S
C477   C809    1.469   .     S
C477   C1039   1.346   .     D
C478   C483    1.395   .     D
C478   C681    1.393   .     S
C479   C480    1.390   .     S
C479   H569    1.082   .     S
C479   C680    1.393   .     D
C480   H570    1.075   .     S
C480   C683    1.415   .     D
C481   C482    1.415   .     D
C481   C484    1.499   .     S
C481   C682    1.415   .     S
C482   C483    1.392   .     S
C482   H571    1.079   .     S
C483   H572    1.080   .     S
C484   C711    1.412   .     S
C484   C707    1.415   .     D
N485   C486    1.415   .     S
N485   C712    1.294   .     D
C486   C491    1.395   .     D
C486   C689    1.399   .     S
C487   C488    1.391   .     S
C487   H573    1.084   .     S
C487   C688    1.399   .     D
C488   H574    1.083   .     S
C488   C691    1.406   .     D
C489   C490    1.405   .     D
C489   N852    1.433   .     S
C489   C690    1.406   .     S
C490   C491    1.388   .     S
C490   H575    1.083   .     S
C491   H576    1.082   .     S
N492   C834    1.426   .     S
N492   C849    1.431   .     S
C493   C494    1.395   .     S
C493   H577    1.081   .     S
C493   C873    1.409   .     D
C494   C495    1.396   .     D
C494   H578    1.086   .     S
C495   C496    1.387   .     S
C495   C498    1.427   .     S
C496   C497    1.388   .     D
C496   H579    1.084   1_455 S
C497   H580    1.078   .     S
C497   C873    1.406   .     S
C498   N1076   1.280   .     D
C498   H581    1.068   1_455 S
C499   C500    1.381   .     D
C499   H582    1.080   .     S
C499   C1233   1.412   .     S
C500   C501    1.388   .     S
C500   H583    1.084   .     S
C501   C502    1.392   .     D
C501   C504    1.426   .     S
C502   C503    1.394   .     S
C502   H584    1.085   .     S
C503   H585    1.079   .     S
C503   C1233   1.412   .     D
C504   H586    1.068   .     S
C504   N1436   1.280   .     D
C505   C506    1.388   .     S
C505   H587    1.076   .     S
C505   C686    1.415   .     D
C506   C507    1.392   .     D
C506   H588    1.081   .     S
C507   C508    1.398   .     S
C507   C510    1.458   .     S
C508   C509    1.387   .     D
C508   H589    1.082   .     S
C509   H590    1.076   .     S
C509   C686    1.412   .     S
C510   H591    1.085   .     S
C510   N687    1.294   .     D
C511   C512    1.394   .     S
C511   H592    1.078   .     S
C511   C1017   1.406   .     D
C512   C513    1.390   .     D
C512   H593    1.083   .     S
C513   C514    1.396   .     S
C513   C516    1.442   .     S
C514   C515    1.392   .     D
C514   H594    1.084   .     S
C515   H595    1.082   .     S
C515   C1017   1.405   .     S
C516   H596    1.083   .     S
C516   N1018   1.294   .     D
C517   C518    1.379   .     S
C517   H597    1.074   .     S
C518   C519    1.386   .     D
C518   H598    1.084   .     S
C519   C520    1.393   .     S
C519   C522    1.438   .     S
C520   C521    1.385   .     D
C520   H599    1.083   .     S
C521   H600    1.076   .     S
C522   H601    1.081   .     S
C523   C524    1.387   .     S
C523   H602    1.077   .     S
C523   C844    1.412   .     D
C524   C525    1.398   .     D
C524   H603    1.082   .     S
C525   C526    1.391   .     S
C525   C528    1.459   .     S
C526   C527    1.387   .     D
C526   H604    1.081   .     S
C527   H605    1.076   .     S
C527   C844    1.415   .     S
C528   H606    1.085   .     S
C528   N845    1.293   .     D
H530   C407    1.082   1_556 S
H579   C496    1.084   1_655 S
H581   C498    1.068   1_655 S
C607   C612    1.398   .     S
C607   C1083   1.469   .     S
C608   C609    1.397   .     D
C608   H731    1.082   .     S
C609   C408    1.405   1_554 S
C609   H732    1.082   1_554 S
C610   C613    1.475   .     S
C610   C407    1.405   1_556 D
C610   C611    1.407   1_556 S
C611   C612    1.397   .     D
C611   H733    1.081   .     S
C611   C610    1.407   1_554 S
C612   H734    1.082   .     S
C613   C915    1.406   .     D
C613   C919    1.405   .     S
N614   C615    1.424   .     S
N614   C920    1.294   .     D
C615   C620    1.397   .     S
C616   C617    1.384   .     D
C616   H735    1.079   .     S
C617   H736    1.083   .     S
C618   C619    1.403   .     S
C618   N650    1.427   .     S
C619   C620    1.392   .     D
C619   H737    1.084   .     S
C620   H738    1.085   .     S
C621   C626    1.394   .     S
C621   C1623   1.470   1_565 S
C622   C623    1.402   .     D
C622   H739    1.081   .     S
C623   C624    1.413   .     S
C623   H740    1.083   .     S
C624   C627    1.487   .     S
C625   C626    1.389   .     D
C625   H741    1.079   .     S
C626   H742    1.081   .     S
C627   C1513   1.412   .     D
C627   C1509   1.412   .     S
N628   C629    1.421   .     S
N628   C1312   1.280   .     D
C629   C630    1.379   .     S
C630   C631    1.379   .     D
C630   H743    1.081   .     S
C631   C632    1.402   .     S
C631   H744    1.078   .     S
C632   N1098   1.426   .     S
C633   C634    1.385   .     D
C633   H745    1.083   .     S
C634   H746    1.079   .     S
C635   C636    1.463   .     S
C635   C881    1.346   .     D
C635   C1055   1.463   .     S
C636   C641    1.394   .     S
C637   H747    1.082   .     S
C637   C638    1.389   1_554 D
C638   H748    1.075   .     S
C638   C637    1.389   1_556 D
C639   C640    1.415   .     S
C639   C642    1.499   .     S
C640   H749    1.079   .     S
C640   C641    1.392   1_556 D
C641   H750    1.080   .     S
C641   C640    1.392   1_554 D
C642   C1129   1.412   .     D
C642   C1133   1.415   .     S
N643   C644    1.415   .     S
N643   C1134   1.293   .     D
C644   C649    1.395   .     S
C645   C646    1.391   .     D
C645   H751    1.084   .     S
C646   H752    1.084   .     S
C647   C648    1.404   .     S
C647   N1098   1.431   .     S
C648   C649    1.387   .     D
C648   H753    1.083   .     S
C649   H754    1.081   .     S
N650   C1080   1.427   .     S
N650   C1095   1.433   .     S
C651   C656    1.393   .     S
C651   C1039   1.463   .     S
C652   C653    1.387   .     D
C652   H755    1.081   .     S
C653   H756    1.076   .     S
C654   C655    1.417   .     S
C654   C657    1.497   .     S
C655   C656    1.390   .     D
C655   H757    1.077   .     S
C656   H758    1.081   .     S
C657   C719    1.418   .     D
C657   C723    1.415   .     S
N658   C659    1.419   .     S
N658   C724    1.290   .     D
C659   C664    1.391   .     S
C660   C661    1.381   .     D
C660   H759    1.080   .     S
C661   H760    1.083   .     S
C662   C663    1.404   .     S
C662   N694    1.426   .     S
C663   C664    1.389   .     D
C663   H761    1.082   .     S
C664   H762    1.084   .     S
C665   C670    1.398   .     S
C665   C1624   1.475   1_565 S
C666   C667    1.403   .     S
C666   H763    1.082   .     S
C667   C668    1.409   .     D
C667   H764    1.083   .     S
C668   C671    1.476   .     S
C669   C670    1.396   .     D
C669   H765    1.081   .     S
C670   H766    1.081   .     S
C671   C1103   1.406   .     S
C671   C1099   1.409   .     D
N672   C902    1.280   .     D
N672   C673    1.421   1_455 S
C673   N672    1.421   1_655 S
C673   C674    1.379   1_655 S
C674   H767    1.081   .     S
C674   C673    1.379   1_455 S
C674   C675    1.378   1_455 D
C675   C676    1.402   .     S
C675   H768    1.078   .     S
C675   C674    1.378   1_655 D
C676   N1054   1.427   .     S
C677   C678    1.386   .     S
C677   H769    1.084   .     S
C678   H770    1.079   .     S
C679   C680    1.467   .     S
C679   C1011   1.469   .     S
C679   C837    1.346   .     D
C680   C685    1.395   .     S
C681   C682    1.390   .     D
C681   H771    1.082   .     S
C682   H772    1.075   .     S
C683   C684    1.415   .     S
C683   C686    1.499   .     S
C684   C685    1.392   .     D
C684   H773    1.079   .     S
C685   H774    1.080   .     S
N687   C688    1.415   .     S
C688   C693    1.395   .     S
C689   C690    1.391   .     D
C689   H775    1.084   .     S
C690   H776    1.083   .     S
C691   C692    1.405   .     S
C691   N1054   1.433   .     S
C692   C693    1.388   .     D
C692   H777    1.083   .     S
C693   H778    1.082   .     S
N694   C1036   1.426   .     S
N694   C1051   1.431   .     S
C695   C696    1.395   .     S
C695   H779    1.081   .     S
C695   C1075   1.409   .     D
C696   C697    1.396   .     D
C696   H780    1.086   .     S
C697   C698    1.387   .     S
C697   C700    1.427   .     S
C698   C699    1.388   .     D
C698   H781    1.084   .     S
C699   H782    1.078   .     S
C699   C1075   1.406   .     S
C700   H783    1.068   .     S
C700   N874    1.280   .     D
C701   C702    1.381   .     S
C701   H784    1.080   .     S
C701   C1435   1.412   .     D
C702   C703    1.388   .     D
C702   H785    1.084   .     S
C703   C704    1.392   .     S
C703   C706    1.426   .     S
C704   C705    1.394   .     D
C704   H786    1.085   .     S
C705   H787    1.079   .     S
C705   C1435   1.412   .     S
C706   H788    1.068   .     S
C706   N1234   1.280   .     D
C707   C708    1.388   .     S
C707   H789    1.076   .     S
C708   C709    1.392   .     D
C708   H790    1.081   .     S
C709   C710    1.398   .     S
C709   C712    1.458   .     S
C710   C711    1.387   .     D
C710   H791    1.082   .     S
C711   H792    1.076   .     S
C712   H793    1.085   .     S
C713   C714    1.394   .     S
C713   H794    1.078   .     S
C713   C815    1.406   .     D
C714   C715    1.390   .     D
C714   H795    1.083   .     S
C715   C716    1.396   .     S
C715   C718    1.442   .     S
C716   C717    1.392   .     D
C716   H796    1.084   .     S
C717   H797    1.082   .     S
C717   C815    1.405   .     S
C718   H798    1.083   .     S
C718   N816    1.294   .     D
C719   C720    1.379   .     S
C719   H799    1.074   .     S
C720   C721    1.386   .     D
C720   H800    1.084   .     S
C721   C722    1.393   .     S
C721   C724    1.438   .     S
C722   C723    1.385   .     D
C722   H801    1.083   .     S
C723   H802    1.076   .     S
C724   H803    1.081   .     S
C725   C726    1.387   .     S
C725   H804    1.077   .     S
C725   C1046   1.412   .     D
C726   C727    1.398   .     D
C726   H805    1.082   .     S
C727   C728    1.391   .     S
C727   C730    1.459   .     S
C728   C729    1.387   .     D
C728   H806    1.081   .     S
C729   H807    1.076   .     S
C729   C1046   1.415   .     S
C730   H808    1.085   .     S
C730   N1047   1.293   .     D
H732   C609    1.082   1_556 S
C809   C814    1.398   .     D
C809   C1012   1.400   .     S
C810   C811    1.397   .     S
C810   H933    1.082   .     S
C810   C1011   1.400   .     D
C811   H934    1.082   1_554 S
C811   C1014   1.405   1_554 D
C812   C815    1.475   .     S
C812   C813    1.407   1_556 D
C812   C1013   1.405   1_556 S
C813   C814    1.397   .     S
C813   H935    1.081   .     S
C813   C812    1.407   1_554 D
C814   H936    1.082   .     S
N816   C817    1.424   .     S
C817   C822    1.397   .     D
C817   C1020   1.407   .     S
C818   C819    1.384   .     S
C818   H937    1.079   .     S
C818   C1019   1.407   .     D
C819   H938    1.083   .     S
C819   C1022   1.394   .     D
C820   C821    1.403   .     D
C820   N852    1.427   .     S
C820   C1021   1.394   .     S
C821   C822    1.392   .     S
C821   H939    1.084   .     S
C822   H940    1.085   .     S
C823   C828    1.394   .     S
C823   C1621   1.470   .     S
C823   C1026   1.401   .     D
C824   C825    1.402   .     S
C824   H941    1.081   .     S
C824   C1025   1.401   .     D
C825   C826    1.413   .     D
C825   H942    1.083   .     S
C826   C829    1.487   .     S
C826   C1029   1.408   .     S
C827   C828    1.389   .     D
C827   H943    1.079   .     S
C827   C1028   1.408   .     S
C828   H944    1.081   .     S
N830   C831    1.421   .     S
C831   C832    1.379   .     S
C831   C1038   1.422   .     D
C832   C833    1.379   .     D
C832   H945    1.081   .     S
C833   C834    1.402   .     S
C833   H946    1.078   .     S
C834   C1037   1.395   .     D
C835   C836    1.385   .     S
C835   H947    1.083   .     S
C835   C1036   1.395   .     D
C836   H948    1.079   .     S
C836   C1033   1.422   .     D
C837   C838    1.463   .     S
C838   C843    1.394   .     D
C838   C1041   1.393   .     S
C839   H949    1.082   .     S
C839   C1040   1.393   .     D
C839   C840    1.389   1_554 S
C840   H950    1.075   .     S
C840   C1043   1.414   .     D
C840   C839    1.389   1_556 S
C841   C842    1.415   .     D
C841   C844    1.499   .     S
C841   C1042   1.414   .     S
C842   H951    1.079   .     S
C842   C843    1.392   1_556 S
C843   H952    1.080   .     S
C843   C842    1.392   1_554 S
N845   C846    1.415   .     S
C846   C851    1.395   .     D
C846   C1049   1.399   .     S
C847   C848    1.391   .     S
C847   H953    1.084   .     S
C847   C1048   1.399   .     D
C848   H954    1.084   .     S
C848   C1051   1.405   .     D
C849   C850    1.404   .     D
C849   C1050   1.405   .     S
C850   C851    1.387   .     S
C850   H955    1.083   .     S
C851   H956    1.081   .     S
C853   C858    1.393   .     D
C853   C1056   1.394   .     S
C854   C855    1.387   .     S
C854   H957    1.081   .     S
C854   C1055   1.394   .     D
C855   H958    1.076   .     S
C855   C1058   1.414   .     D
C856   C857    1.417   .     D
C856   C859    1.497   .     S
C856   C1057   1.414   .     S
C857   C858    1.390   .     S
C857   H959    1.077   .     S
C858   H960    1.081   .     S
C859   C921    1.418   .     D
C859   C925    1.415   .     S
N860   C861    1.419   .     S
N860   C926    1.290   .     D
C861   C866    1.391   .     D
C861   C1064   1.409   .     S
C862   C863    1.381   .     S
C862   H961    1.080   .     S
C862   C1063   1.409   .     D
C863   H962    1.083   .     S
C863   C1066   1.393   .     D
C864   C865    1.404   .     D
C864   N896    1.426   .     S
C864   C1065   1.393   .     S
C865   C866    1.389   .     S
C865   H963    1.082   .     S
C866   H964    1.084   .     S
C867   C872    1.398   .     D
C867   C1622   1.475   .     S
C867   C1070   1.402   .     S
C868   C869    1.403   .     S
C868   H965    1.082   .     S
C868   C1069   1.402   .     D
C869   C870    1.409   .     D
C869   H966    1.083   .     S
C870   C873    1.476   .     S
C870   C1073   1.403   .     S
C871   C872    1.396   .     S
C871   H967    1.081   .     S
C871   C1072   1.403   .     D
C872   H968    1.081   .     S
N874   C875    1.421   .     S
C875   C876    1.379   .     D
C875   C1082   1.422   .     S
C876   C877    1.378   .     S
C876   H969    1.081   .     S
C877   C878    1.402   .     D
C877   H970    1.078   .     S
C878   C1081   1.395   .     S
C879   C880    1.386   .     S
C879   H971    1.084   .     S
C879   C1080   1.395   .     D
C880   H972    1.079   .     S
C880   C1077   1.422   .     D
C881   C882    1.467   .     S
C882   C887    1.395   .     D
C882   C1085   1.393   .     S
C883   C884    1.390   .     S
C883   H973    1.082   .     S
C883   C1084   1.393   .     D
C884   H974    1.075   .     S
C884   C1087   1.415   .     D
C885   C886    1.415   .     D
C885   C888    1.499   .     S
C885   C1086   1.415   .     S
C886   C887    1.392   .     S
C886   H975    1.079   .     S
C887   H976    1.080   .     S
C888   C1115   1.412   .     S
C888   C1111   1.415   .     D
N889   C890    1.415   .     S
N889   C1116   1.294   .     D
C890   C895    1.395   .     D
C890   C1093   1.399   .     S
C891   C892    1.391   .     S
C891   H977    1.084   .     S
C891   C1092   1.399   .     D
C892   H978    1.083   .     S
C892   C1095   1.406   .     D
C893   C894    1.405   .     D
C893   C1094   1.406   .     S
C894   C895    1.388   .     S
C894   H979    1.083   .     S
C895   H980    1.082   .     S
C897   C898    1.395   .     D
C897   H981    1.081   .     S
C898   C899    1.396   .     S
C898   H982    1.086   .     S
C899   C900    1.387   .     D
C899   C902    1.427   .     S
C900   C901    1.388   .     S
C900   H983    1.084   1_455 S
C901   H984    1.078   .     S
C902   H985    1.068   1_455 S
C903   C904    1.381   .     S
C903   H986    1.080   .     S
C904   C905    1.388   .     D
C904   H987    1.084   .     S
C905   C906    1.392   .     S
C905   C908    1.426   .     S
C906   C907    1.394   .     D
C906   H988    1.085   .     S
C907   H989    1.079   .     S
C908   H990    1.068   .     S
C909   C910    1.388   .     S
C909   H991    1.076   .     S
C909   C1090   1.415   .     D
C910   C911    1.392   .     D
C910   H992    1.081   .     S
C911   C912    1.398   .     S
C911   C914    1.458   .     S
C912   C913    1.387   .     D
C912   H993    1.082   .     S
C913   H994    1.076   .     S
C913   C1090   1.412   .     S
C914   H995    1.085   .     S
C914   N1091   1.294   .     D
C915   C916    1.394   .     S
C915   H996    1.078   .     S
C916   C917    1.390   .     D
C916   H997    1.083   .     S
C917   C918    1.396   .     S
C917   C920    1.442   .     S
C918   C919    1.392   .     D
C918   H998    1.084   .     S
C919   H999    1.082   .     S
C920   H1000   1.083   .     S
C921   C922    1.379   .     S
C921   H1001   1.074   .     S
C922   C923    1.386   .     D
C922   H1002   1.084   .     S
C923   C924    1.393   .     S
C923   C926    1.438   .     S
C924   C925    1.385   .     D
C924   H1003   1.083   .     S
C925   H1004   1.076   .     S
C926   H1005   1.081   .     S
C927   C928    1.387   .     S
C927   H1006   1.077   .     S
C928   C929    1.398   .     D
C928   H1007   1.082   .     S
C929   C930    1.391   .     S
C929   C932    1.459   .     S
C930   C931    1.387   .     D
C930   H1008   1.081   .     S
C931   H1009   1.076   .     S
C932   H1010   1.085   .     S
H934   C811    1.082   1_556 S
H983   C900    1.084   1_655 S
H985   C902    1.068   1_655 S
C1011  C1016   1.398   .     S
C1012  C1013   1.397   .     D
C1012  H1135   1.082   .     S
C1013  C812    1.405   1_554 S
C1013  H1136   1.082   1_554 S
C1014  C1017   1.475   .     S
C1014  C811    1.405   1_556 D
C1014  C1015   1.407   1_556 S
C1015  C1016   1.397   .     D
C1015  H1137   1.081   .     S
C1015  C1014   1.407   1_554 S
C1016  H1138   1.082   .     S
N1018  C1019   1.424   .     S
C1019  C1024   1.397   .     S
C1020  C1021   1.384   .     D
C1020  H1139   1.079   .     S
C1021  H1140   1.083   .     S
C1022  C1023   1.403   .     S
C1022  N1054   1.427   .     S
C1023  C1024   1.392   .     D
C1023  H1141   1.084   .     S
C1024  H1142   1.085   .     S
C1025  C1030   1.394   .     S
C1025  C1623   1.470   .     S
C1026  C1027   1.402   .     S
C1026  H1143   1.081   .     S
C1027  C1028   1.413   .     D
C1027  H1144   1.083   .     S
C1028  C1031   1.487   .     S
C1029  C1030   1.389   .     D
C1029  H1145   1.079   .     S
C1030  H1146   1.081   .     S
N1032  C1033   1.421   .     S
C1033  C1034   1.379   .     S
C1034  C1035   1.379   .     D
C1034  H1147   1.081   .     S
C1035  C1036   1.402   .     S
C1035  H1148   1.078   .     S
C1037  C1038   1.385   .     S
C1037  H1149   1.083   .     S
C1038  H1150   1.079   .     S
C1039  C1040   1.463   .     S
C1040  C1045   1.394   .     S
C1041  H1151   1.082   .     S
C1041  C1042   1.389   1_554 D
C1042  H1152   1.075   .     S
C1042  C1041   1.389   1_556 D
C1043  C1044   1.415   .     S
C1043  C1046   1.499   .     S
C1044  H1153   1.079   .     S
C1044  C1045   1.392   1_556 D
C1045  H1154   1.080   .     S
C1045  C1044   1.392   1_554 D
N1047  C1048   1.415   .     S
C1048  C1053   1.395   .     S
C1049  C1050   1.391   .     D
C1049  H1155   1.084   .     S
C1050  H1156   1.084   .     S
C1051  C1052   1.404   .     S
C1052  C1053   1.387   .     D
C1052  H1157   1.083   .     S
C1053  H1158   1.081   .     S
C1055  C1060   1.393   .     S
C1056  C1057   1.387   .     D
C1056  H1159   1.081   .     S
C1057  H1160   1.076   .     S
C1058  C1059   1.417   .     S
C1058  C1061   1.497   .     S
C1059  C1060   1.390   .     D
C1059  H1161   1.077   .     S
C1060  H1162   1.081   .     S
C1061  C1123   1.418   .     D
C1061  C1127   1.415   .     S
N1062  C1063   1.419   .     S
N1062  C1128   1.290   .     D
C1063  C1068   1.391   .     S
C1064  C1065   1.381   .     D
C1064  H1163   1.080   .     S
C1065  H1164   1.083   .     S
C1066  C1067   1.404   .     S
C1066  N1098   1.426   .     S
C1067  C1068   1.389   .     D
C1067  H1165   1.082   .     S
C1068  H1166   1.084   .     S
C1069  C1074   1.398   .     S
C1069  C1624   1.475   .     S
C1070  C1071   1.403   .     D
C1070  H1167   1.082   .     S
C1071  C1072   1.409   .     S
C1071  H1168   1.083   .     S
C1072  C1075   1.476   .     S
C1073  C1074   1.396   .     D
C1073  H1169   1.081   .     S
C1074  H1170   1.081   .     S
N1076  C1077   1.421   1_455 S
C1077  N1076   1.421   1_655 S
C1077  C1078   1.379   1_655 S
C1078  H1171   1.081   .     S
C1078  C1077   1.379   1_455 S
C1078  C1079   1.378   1_455 D
C1079  C1080   1.402   .     S
C1079  H1172   1.078   .     S
C1079  C1078   1.378   1_655 D
C1081  C1082   1.386   .     D
C1081  H1173   1.084   .     S
C1082  H1174   1.079   .     S
C1083  C1084   1.467   .     S
C1084  C1089   1.395   .     S
C1085  C1086   1.390   .     D
C1085  H1175   1.082   .     S
C1086  H1176   1.075   .     S
C1087  C1088   1.415   .     S
C1087  C1090   1.499   .     S
C1088  C1089   1.392   .     D
C1088  H1177   1.079   .     S
C1089  H1178   1.080   .     S
N1091  C1092   1.415   .     S
C1092  C1097   1.395   .     S
C1093  C1094   1.391   .     D
C1093  H1179   1.084   .     S
C1094  H1180   1.083   .     S
C1095  C1096   1.405   .     S
C1096  C1097   1.388   .     D
C1096  H1181   1.083   .     S
C1097  H1182   1.082   .     S
C1099  C1100   1.395   .     S
C1099  H1183   1.081   .     S
C1100  C1101   1.396   .     D
C1100  H1184   1.086   .     S
C1101  C1102   1.387   .     S
C1101  C1104   1.427   .     S
C1102  C1103   1.388   .     D
C1102  H1185   1.084   .     S
C1103  H1186   1.078   .     S
C1104  H1187   1.068   .     S
C1105  C1106   1.381   .     S
C1105  H1188   1.080   .     S
C1106  C1107   1.388   .     D
C1106  H1189   1.084   .     S
C1107  C1108   1.392   .     S
C1107  C1110   1.426   .     S
C1108  C1109   1.394   .     D
C1108  H1190   1.085   .     S
C1109  H1191   1.079   .     S
C1110  H1192   1.068   .     S
C1111  C1112   1.388   .     S
C1111  H1193   1.076   .     S
C1112  C1113   1.392   .     D
C1112  H1194   1.081   .     S
C1113  C1114   1.398   .     S
C1113  C1116   1.458   .     S
C1114  C1115   1.387   .     D
C1114  H1195   1.082   .     S
C1115  H1196   1.076   .     S
C1116  H1197   1.085   .     S
C1117  C1118   1.394   .     S
C1117  H1198   1.078   .     S
C1118  C1119   1.390   .     D
C1118  H1199   1.083   .     S
C1119  C1120   1.396   .     S
C1119  C1122   1.442   .     S
C1120  C1121   1.392   .     D
C1120  H1200   1.084   .     S
C1121  H1201   1.082   .     S
C1122  H1202   1.083   .     S
C1123  C1124   1.379   .     S
C1123  H1203   1.074   .     S
C1124  C1125   1.386   .     D
C1124  H1204   1.084   .     S
C1125  C1126   1.393   .     S
C1125  C1128   1.438   .     S
C1126  C1127   1.385   .     D
C1126  H1205   1.083   .     S
C1127  H1206   1.076   .     S
C1128  H1207   1.081   .     S
C1129  C1130   1.387   .     S
C1129  H1208   1.077   .     S
C1130  C1131   1.398   .     D
C1130  H1209   1.082   .     S
C1131  C1132   1.391   .     S
C1131  C1134   1.459   .     S
C1132  C1133   1.387   .     D
C1132  H1210   1.081   .     S
C1133  H1211   1.076   .     S
C1134  H1212   1.085   .     S
H1136  C1013   1.082   1_556 S
C1213  C1218   1.398   .     D
C1213  C1416   1.400   .     S
C1214  C1215   1.397   .     S
C1214  H1337   1.082   .     S
C1214  C1415   1.400   .     D
C1215  H1338   1.082   1_556 S
C1215  C1418   1.405   1_556 D
C1216  C1219   1.475   .     S
C1216  C1217   1.407   1_554 D
C1216  C1417   1.405   1_554 S
C1217  C1218   1.397   .     S
C1217  H1339   1.081   .     S
C1217  C1216   1.407   1_556 D
C1218  H1340   1.082   .     S
N1220  C1221   1.424   .     S
C1221  C1226   1.397   .     D
C1221  C1424   1.407   .     S
C1222  C1223   1.384   .     S
C1222  H1341   1.079   .     S
C1222  C1423   1.407   .     D
C1223  H1342   1.083   .     S
C1223  C1426   1.394   .     D
C1224  C1225   1.403   .     D
C1224  N1256   1.427   .     S
C1224  C1425   1.394   .     S
C1225  C1226   1.392   .     S
C1225  H1343   1.084   .     S
C1226  H1344   1.085   .     S
C1227  C1232   1.394   .     D
C1227  C1617   1.470   .     S
C1227  C1430   1.401   .     S
C1228  C1229   1.402   .     D
C1228  H1345   1.081   .     S
C1228  C1429   1.401   .     S
C1229  C1230   1.413   .     S
C1229  H1346   1.083   .     S
C1230  C1233   1.487   .     S
C1230  C1433   1.408   .     D
C1231  C1232   1.389   .     S
C1231  H1347   1.079   .     S
C1231  C1432   1.408   .     D
C1232  H1348   1.081   .     S
N1234  C1235   1.421   .     S
C1235  C1236   1.379   .     D
C1235  C1442   1.422   .     S
C1236  C1237   1.379   .     S
C1236  H1349   1.081   .     S
C1237  C1238   1.402   .     D
C1237  H1350   1.078   .     S
C1238  C1441   1.395   .     S
C1239  C1240   1.385   .     D
C1239  H1351   1.083   .     S
C1239  C1440   1.395   .     S
C1240  H1352   1.079   .     S
C1240  C1437   1.422   .     S
C1241  C1242   1.463   .     S
C1242  C1247   1.394   .     D
C1242  C1445   1.393   .     S
C1243  H1353   1.082   .     S
C1243  C1444   1.393   .     D
C1243  C1244   1.389   1_556 S
C1244  H1354   1.075   .     S
C1244  C1447   1.414   .     D
C1244  C1243   1.389   1_554 S
C1245  C1246   1.415   .     D
C1245  C1248   1.499   .     S
C1245  C1446   1.414   .     S
C1246  H1355   1.079   .     S
C1246  C1247   1.392   1_554 S
C1247  H1356   1.080   .     S
C1247  C1246   1.392   1_556 S
N1249  C1250   1.415   .     S
C1250  C1255   1.395   .     D
C1250  C1453   1.399   .     S
C1251  C1252   1.391   .     S
C1251  H1357   1.084   .     S
C1251  C1452   1.399   .     D
C1252  H1358   1.084   .     S
C1252  C1455   1.405   .     D
C1253  C1254   1.404   .     D
C1253  C1454   1.405   .     S
C1254  C1255   1.387   .     S
C1254  H1359   1.083   .     S
C1255  H1360   1.081   .     S
C1257  C1262   1.393   .     D
C1257  C1460   1.394   .     S
C1258  C1259   1.387   .     S
C1258  H1361   1.081   .     S
C1258  C1459   1.394   .     D
C1259  H1362   1.076   .     S
C1259  C1462   1.414   .     D
C1260  C1261   1.417   .     D
C1260  C1263   1.497   .     S
C1260  C1461   1.414   .     S
C1261  C1262   1.390   .     S
C1261  H1363   1.077   .     S
C1262  H1364   1.081   .     S
C1263  C1325   1.418   .     D
C1263  C1329   1.415   .     S
N1264  C1265   1.419   .     S
N1264  C1330   1.290   .     D
C1265  C1270   1.391   .     D
C1265  C1468   1.409   .     S
C1266  C1267   1.381   .     S
C1266  H1365   1.080   .     S
C1266  C1467   1.409   .     D
C1267  H1366   1.083   .     S
C1267  C1470   1.393   .     D
C1268  C1269   1.404   .     D
C1268  N1300   1.426   .     S
C1268  C1469   1.393   .     S
C1269  C1270   1.389   .     S
C1269  H1367   1.082   .     S
C1270  H1368   1.084   .     S
C1271  C1276   1.398   .     D
C1271  C1618   1.475   .     S
C1271  C1474   1.402   .     S
C1272  C1273   1.403   .     D
C1272  H1369   1.082   .     S
C1272  C1473   1.402   .     S
C1273  C1274   1.409   .     S
C1273  H1370   1.083   .     S
C1274  C1277   1.476   .     S
C1274  C1477   1.403   .     D
C1275  C1276   1.396   .     S
C1275  H1371   1.081   .     S
C1275  C1476   1.403   .     D
C1276  H1372   1.081   .     S
N1278  C1279   1.421   .     S
C1279  C1280   1.379   .     D
C1279  C1486   1.422   .     S
C1280  C1281   1.378   .     S
C1280  H1373   1.081   .     S
C1281  C1282   1.402   .     D
C1281  H1374   1.078   .     S
C1282  C1485   1.395   .     S
C1283  C1284   1.386   .     D
C1283  H1375   1.084   .     S
C1283  C1484   1.395   .     S
C1284  H1376   1.079   .     S
C1284  C1481   1.422   .     S
C1285  C1286   1.467   .     S
C1286  C1291   1.395   .     D
C1286  C1489   1.393   .     S
C1287  C1288   1.390   .     S
C1287  H1377   1.082   .     S
C1287  C1488   1.393   .     D
C1288  H1378   1.075   .     S
C1288  C1491   1.415   .     D
C1289  C1290   1.415   .     D
C1289  C1292   1.499   .     S
C1289  C1490   1.415   .     S
C1290  C1291   1.392   .     S
C1290  H1379   1.079   .     S
C1291  H1380   1.080   .     S
C1292  C1519   1.412   .     D
C1292  C1515   1.415   .     S
N1293  C1294   1.415   .     S
N1293  C1520   1.294   .     D
C1294  C1299   1.395   .     D
C1294  C1497   1.399   .     S
C1295  C1296   1.391   .     S
C1295  H1381   1.084   .     S
C1295  C1496   1.399   .     D
C1296  H1382   1.083   .     S
C1296  C1499   1.406   .     D
C1297  C1298   1.405   .     D
C1297  C1498   1.406   .     S
C1298  C1299   1.388   .     S
C1298  H1383   1.083   .     S
C1299  H1384   1.082   .     S
C1301  C1302   1.395   .     D
C1301  H1385   1.081   .     S
C1302  C1303   1.396   .     S
C1302  H1386   1.086   .     S
C1303  C1304   1.387   .     D
C1303  C1306   1.427   .     S
C1304  C1305   1.388   .     S
C1304  H1387   1.084   1_655 S
C1305  H1388   1.078   .     S
C1306  H1389   1.068   1_655 S
C1307  C1308   1.381   .     D
C1307  H1390   1.080   .     S
C1308  C1309   1.388   .     S
C1308  H1391   1.084   .     S
C1309  C1310   1.392   .     D
C1309  C1312   1.426   .     S
C1310  C1311   1.394   .     S
C1310  H1392   1.085   .     S
C1311  H1393   1.079   .     S
C1312  H1394   1.068   .     S
C1313  C1314   1.388   .     S
C1313  H1395   1.076   .     S
C1313  C1494   1.415   .     D
C1314  C1315   1.392   .     D
C1314  H1396   1.081   .     S
C1315  C1316   1.398   .     S
C1315  C1318   1.458   .     S
C1316  C1317   1.387   .     D
C1316  H1397   1.082   .     S
C1317  H1398   1.076   .     S
C1317  C1494   1.412   .     S
C1318  H1399   1.085   .     S
C1318  N1495   1.294   .     D
C1319  C1320   1.394   .     S
C1319  H1400   1.078   .     S
C1320  C1321   1.390   .     D
C1320  H1401   1.083   .     S
C1321  C1322   1.396   .     S
C1321  C1324   1.442   .     S
C1322  C1323   1.392   .     D
C1322  H1402   1.084   .     S
C1323  H1403   1.082   .     S
C1324  H1404   1.083   .     S
C1325  C1326   1.379   .     S
C1325  H1405   1.074   .     S
C1326  C1327   1.386   .     D
C1326  H1406   1.084   .     S
C1327  C1328   1.393   .     S
C1327  C1330   1.438   .     S
C1328  C1329   1.385   .     D
C1328  H1407   1.083   .     S
C1329  H1408   1.076   .     S
C1330  H1409   1.081   .     S
C1331  C1332   1.387   .     S
C1331  H1410   1.077   .     S
C1332  C1333   1.398   .     D
C1332  H1411   1.082   .     S
C1333  C1334   1.391   .     S
C1333  C1336   1.459   .     S
C1334  C1335   1.387   .     D
C1334  H1412   1.081   .     S
C1335  H1413   1.076   .     S
C1336  H1414   1.085   .     S
H1338  C1215   1.082   1_554 S
H1387  C1304   1.084   1_455 S
H1389  C1306   1.068   1_455 S
C1415  C1420   1.398   .     S
C1416  C1417   1.397   .     D
C1416  H1539   1.082   .     S
C1417  C1216   1.405   1_556 S
C1417  H1540   1.082   1_556 S
C1418  C1421   1.475   .     S
C1418  C1215   1.405   1_554 D
C1418  C1419   1.407   1_554 S
C1419  C1420   1.397   .     D
C1419  H1541   1.081   .     S
C1419  C1418   1.407   1_556 S
C1420  H1542   1.082   .     S
N1422  C1423   1.424   .     S
C1423  C1428   1.397   .     S
C1424  C1425   1.384   .     D
C1424  H1543   1.079   .     S
C1425  H1544   1.083   .     S
C1426  C1427   1.403   .     S
C1426  N1458   1.427   .     S
C1427  C1428   1.392   .     D
C1427  H1545   1.084   .     S
C1428  H1546   1.085   .     S
C1429  C1434   1.394   .     D
C1429  C1619   1.470   .     S
C1430  C1431   1.402   .     D
C1430  H1547   1.081   .     S
C1431  C1432   1.413   .     S
C1431  H1548   1.083   .     S
C1432  C1435   1.487   .     S
C1433  C1434   1.389   .     S
C1433  H1549   1.079   .     S
C1434  H1550   1.081   .     S
N1436  C1437   1.421   .     S
C1437  C1438   1.379   .     D
C1438  C1439   1.379   .     S
C1438  H1551   1.081   .     S
C1439  C1440   1.402   .     D
C1439  H1552   1.078   .     S
C1441  C1442   1.385   .     D
C1441  H1553   1.083   .     S
C1442  H1554   1.079   .     S
C1443  C1444   1.463   .     S
C1444  C1449   1.394   .     S
C1445  H1555   1.082   .     S
C1445  C1446   1.389   1_556 D
C1446  H1556   1.075   .     S
C1446  C1445   1.389   1_554 D
C1447  C1448   1.415   .     S
C1447  C1450   1.499   .     S
C1448  H1557   1.079   .     S
C1448  C1449   1.392   1_554 D
C1449  H1558   1.080   .     S
C1449  C1448   1.392   1_556 D
N1451  C1452   1.415   .     S
C1452  C1457   1.395   .     S
C1453  C1454   1.391   .     D
C1453  H1559   1.084   .     S
C1454  H1560   1.084   .     S
C1455  C1456   1.404   .     S
C1456  C1457   1.387   .     D
C1456  H1561   1.083   .     S
C1457  H1562   1.081   .     S
C1459  C1464   1.393   .     S
C1460  C1461   1.387   .     D
C1460  H1563   1.081   .     S
C1461  H1564   1.076   .     S
C1462  C1463   1.417   .     S
C1462  C1465   1.497   .     S
C1463  C1464   1.390   .     D
C1463  H1565   1.077   .     S
C1464  H1566   1.081   .     S
C1465  C1527   1.418   .     D
C1465  C1531   1.415   .     S
N1466  C1467   1.419   .     S
N1466  C1532   1.290   .     D
C1467  C1472   1.391   .     S
C1468  C1469   1.381   .     D
C1468  H1567   1.080   .     S
C1469  H1568   1.083   .     S
C1470  C1471   1.404   .     S
C1470  N1502   1.426   .     S
C1471  C1472   1.389   .     D
C1471  H1569   1.082   .     S
C1472  H1570   1.084   .     S
C1473  C1478   1.398   .     D
C1473  C1620   1.475   .     S
C1474  C1475   1.403   .     D
C1474  H1571   1.082   .     S
C1475  C1476   1.409   .     S
C1475  H1572   1.083   .     S
C1476  C1479   1.476   .     S
C1477  C1478   1.396   .     S
C1477  H1573   1.081   .     S
C1478  H1574   1.081   .     S
N1480  C1481   1.421   1_655 S
C1481  N1480   1.421   1_455 S
C1481  C1482   1.379   1_455 D
C1482  H1575   1.081   .     S
C1482  C1481   1.379   1_655 D
C1482  C1483   1.378   1_655 S
C1483  C1484   1.402   .     D
C1483  H1576   1.078   .     S
C1483  C1482   1.378   1_455 S
C1485  C1486   1.386   .     D
C1485  H1577   1.084   .     S
C1486  H1578   1.079   .     S
C1487  C1488   1.467   .     S
C1488  C1493   1.395   .     S
C1489  C1490   1.390   .     D
C1489  H1579   1.082   .     S
C1490  H1580   1.075   .     S
C1491  C1492   1.415   .     S
C1491  C1494   1.499   .     S
C1492  C1493   1.392   .     D
C1492  H1581   1.079   .     S
C1493  H1582   1.080   .     S
N1495  C1496   1.415   .     S
C1496  C1501   1.395   .     S
C1497  C1498   1.391   .     D
C1497  H1583   1.084   .     S
C1498  H1584   1.083   .     S
C1499  C1500   1.405   .     S
C1500  C1501   1.388   .     D
C1500  H1585   1.083   .     S
C1501  H1586   1.082   .     S
C1503  C1504   1.395   .     D
C1503  H1587   1.081   .     S
C1504  C1505   1.396   .     S
C1504  H1588   1.086   .     S
C1505  C1506   1.387   .     D
C1505  C1508   1.427   .     S
C1506  C1507   1.388   .     S
C1506  H1589   1.084   .     S
C1507  H1590   1.078   .     S
C1508  H1591   1.068   .     S
C1509  C1510   1.381   .     D
C1509  H1592   1.080   .     S
C1510  C1511   1.388   .     S
C1510  H1593   1.084   .     S
C1511  C1512   1.392   .     D
C1511  C1514   1.426   .     S
C1512  C1513   1.394   .     S
C1512  H1594   1.085   .     S
C1513  H1595   1.079   .     S
C1514  H1596   1.068   .     S
C1515  C1516   1.388   .     D
C1515  H1597   1.076   .     S
C1516  C1517   1.392   .     S
C1516  H1598   1.081   .     S
C1517  C1518   1.398   .     D
C1517  C1520   1.458   .     S
C1518  C1519   1.387   .     S
C1518  H1599   1.082   .     S
C1519  H1600   1.076   .     S
C1520  H1601   1.085   .     S
C1521  C1522   1.394   .     S
C1521  H1602   1.078   .     S
C1522  C1523   1.390   .     D
C1522  H1603   1.083   .     S
C1523  C1524   1.396   .     S
C1523  C1526   1.442   .     S
C1524  C1525   1.392   .     D
C1524  H1604   1.084   .     S
C1525  H1605   1.082   .     S
C1526  H1606   1.083   .     S
C1527  C1528   1.379   .     S
C1527  H1607   1.074   .     S
C1528  C1529   1.386   .     D
C1528  H1608   1.084   .     S
C1529  C1530   1.393   .     S
C1529  C1532   1.438   .     S
C1530  C1531   1.385   .     D
C1530  H1609   1.083   .     S
C1531  H1610   1.076   .     S
C1532  H1611   1.081   .     S
C1533  C1534   1.387   .     D
C1533  H1612   1.077   .     S
C1534  C1535   1.398   .     S
C1534  H1613   1.082   .     S
C1535  C1536   1.391   .     D
C1535  C1538   1.459   .     S
C1536  C1537   1.387   .     S
C1536  H1614   1.081   .     S
C1537  H1615   1.076   .     S
C1538  H1616   1.085   .     S
H1540  C1417   1.082   1_554 S
C1617  C1618   1.354   .     D
C1619  C1620   1.354   .     D
C1619  C217    1.470   1_545 S
C1620  C261    1.475   1_545 S
C1621  C1622   1.354   .     D
C1623  C1624   1.354   .     D
C1623  C621    1.470   1_545 S
C1624  C665    1.475   1_545 S
