data_1101
_audit_creation_date              2023-09-08
_audit_creation_method            'Materials Studio'
_symmetry_space_group_name_H-M    'P1'
_symmetry_Int_Tables_number       1
_symmetry_cell_setting            triclinic
loop_
_symmetry_equiv_pos_as_xyz
  x,y,z
_cell_length_a                    62.5000
_cell_length_b                    62.7500
_cell_length_c                    37.7900
_cell_angle_alpha                 90.0000
_cell_angle_beta                  90.0000
_cell_angle_gamma                 90.0000
loop_
_atom_site_label
_atom_site_type_symbol
_atom_site_fract_x
_atom_site_fract_y
_atom_site_fract_z
_atom_site_U_iso_or_equiv
_atom_site_adp_type
_atom_site_occupancy
C1     C     0.56887   0.98462   0.56123   0.00000  Uiso   1.00
C2     C     0.58197   0.97528   0.58717   0.00000  Uiso   1.00
C3     C     0.60418   0.97737   0.58541   0.00000  Uiso   1.00
C4     C     0.61370   0.98914   0.55818   0.00000  Uiso   1.00
C5     C     0.60066   0.99852   0.53208   0.00000  Uiso   1.00
C6     C     0.57843   0.99604   0.53341   0.00000  Uiso   1.00
N1     N     0.63661   0.99008   0.55660   0.00000  Uiso   1.00
C7     C     0.64769   0.00544   0.54263   0.00000  Uiso   1.00
C8     C     0.67127   0.00440   0.54206   0.00000  Uiso   1.00
C9     C     0.68208   0.98501   0.54721   0.00000  Uiso   1.00
C10    C     0.68317   0.02298   0.53601   0.00000  Uiso   1.00
C11    C     0.70441   0.98425   0.54617   0.00000  Uiso   1.00
C12    C     0.71640   0.00289   0.54052   0.00000  Uiso   1.00
C13    C     0.70552   0.02229   0.53558   0.00000  Uiso   1.00
C14    C     0.53588   0.01868   0.56271   0.00000  Uiso   1.00
C15    C     0.52993   0.99709   0.56207   0.00000  Uiso   1.00
C16    C     0.54545   0.98062   0.56171   0.00000  Uiso   1.00
C17    C     0.98693   0.67302   0.04860   0.00000  Uiso   1.00
C18    C     0.00758   0.68149   0.05285   0.00000  Uiso   1.00
C19    C     0.96968   0.68691   0.04314   0.00000  Uiso   1.00
C20    C     0.01091   0.70352   0.05102   0.00000  Uiso   1.00
C21    C     0.99361   0.71745   0.04537   0.00000  Uiso   1.00
C22    C     0.97295   0.70890   0.04183   0.00000  Uiso   1.00
C23    C     0.96165   0.77897   0.57514   0.00000  Uiso   1.00
C24    C     0.95985   0.77317   0.61089   0.00000  Uiso   1.00
C25    C     0.97184   0.75590   0.62361   0.00000  Uiso   1.00
C26    C     0.94590   0.78517   0.63528   0.00000  Uiso   1.00
N2     N     0.93875   0.80389   0.62659   0.00000  Uiso   1.00
C27    C     0.92548   0.81726   0.64825   0.00000  Uiso   1.00
C28    C     0.92595   0.83928   0.64245   0.00000  Uiso   1.00
C29    C     0.91349   0.85297   0.66306   0.00000  Uiso   1.00
C30    C     0.90008   0.84476   0.68953   0.00000  Uiso   1.00
C31    C     0.89894   0.82260   0.69445   0.00000  Uiso   1.00
C32    C     0.91168   0.80893   0.67420   0.00000  Uiso   1.00
C33    C     0.88666   0.85940   0.71094   0.00000  Uiso   1.00
C34    C     0.88751   0.86005   0.74837   0.00000  Uiso   1.00
C35    C     0.90222   0.84774   0.76783   0.00000  Uiso   1.00
C36    C     0.98587   0.74496   0.60123   0.00000  Uiso   1.00
C37    C     0.98790   0.75090   0.56552   0.00000  Uiso   1.00
C38    C     0.97542   0.76785   0.55265   0.00000  Uiso   1.00
C39    C     0.09732   0.15308   0.88329   0.00000  Uiso   1.00
C40    C     0.08327   0.14431   0.90833   0.00000  Uiso   1.00
C41    C     0.07068   0.15757   0.92947   0.00000  Uiso   1.00
C42    C     0.07168   0.17974   0.92573   0.00000  Uiso   1.00
C43    C     0.08602   0.18860   0.90105   0.00000  Uiso   1.00
C44    C     0.09883   0.17534   0.88019   0.00000  Uiso   1.00
N3     N     0.05871   0.19268   0.94857   0.00000  Uiso   1.00
C45    C     0.05260   0.21209   0.94208   0.00000  Uiso   1.00
C46    C     0.03962   0.22400   0.96805   0.00000  Uiso   1.00
C47    C     0.03625   0.21617   0.00243   0.00000  Uiso   1.00
C48    C     0.03065   0.24367   0.95846   0.00000  Uiso   1.00
C49    C     0.02425   0.22789   0.02680   0.00000  Uiso   1.00
C50    C     0.01522   0.24756   0.01721   0.00000  Uiso   1.00
C51    C     0.01846   0.25528   0.98273   0.00000  Uiso   1.00
C52    C     0.09729   0.15187   0.80474   0.00000  Uiso   1.00
C53    C     0.11145   0.13913   0.82448   0.00000  Uiso   1.00
C54    C     0.11127   0.13892   0.86195   0.00000  Uiso   1.00
N4     N     0.00300   0.25980   0.04257   0.00000  Uiso   1.00
C55    C     0.48810   0.06927   0.56008   0.00000  Uiso   1.00
C56    C     0.48011   0.08167   0.53209   0.00000  Uiso   1.00
C57    C     0.48319   0.10369   0.53171   0.00000  Uiso   1.00
C58    C     0.49434   0.11373   0.55938   0.00000  Uiso   1.00
C59    C     0.50292   0.10130   0.58676   0.00000  Uiso   1.00
C60    C     0.49946   0.07926   0.58753   0.00000  Uiso   1.00
N5     N     0.49727   0.13643   0.56000   0.00000  Uiso   1.00
C61    C     0.48298   0.14985   0.54863   0.00000  Uiso   1.00
C62    C     0.52057   0.03475   0.56191   0.00000  Uiso   1.00
C63    C     0.49862   0.02994   0.56206   0.00000  Uiso   1.00
C64    C     0.48290   0.04620   0.56156   0.00000  Uiso   1.00
C65    C     0.78034   0.03660   0.07434   0.00000  Uiso   1.00
C66    C     0.77395   0.03881   0.10980   0.00000  Uiso   1.00
C67    C     0.75592   0.02762   0.12177   0.00000  Uiso   1.00
C68    C     0.78589   0.05255   0.13459   0.00000  Uiso   1.00
N6     N     0.80470   0.05979   0.12628   0.00000  Uiso   1.00
C69    C     0.81784   0.07312   0.14822   0.00000  Uiso   1.00
C70    C     0.84000   0.07298   0.14271   0.00000  Uiso   1.00
C71    C     0.85343   0.08567   0.16340   0.00000  Uiso   1.00
C72    C     0.84487   0.09895   0.18974   0.00000  Uiso   1.00
C73    C     0.82259   0.09969   0.19445   0.00000  Uiso   1.00
C74    C     0.80914   0.08677   0.17406   0.00000  Uiso   1.00
C75    C     0.85925   0.11272   0.21106   0.00000  Uiso   1.00
C76    C     0.85992   0.11205   0.24852   0.00000  Uiso   1.00
C77    C     0.84772   0.09737   0.26818   0.00000  Uiso   1.00
C78    C     0.74465   0.01419   0.09888   0.00000  Uiso   1.00
C79    C     0.75103   0.01194   0.06342   0.00000  Uiso   1.00
C80    C     0.76893   0.02338   0.05137   0.00000  Uiso   1.00
C81    C     0.15339   0.90226   0.38354   0.00000  Uiso   1.00
C82    C     0.14481   0.91625   0.40878   0.00000  Uiso   1.00
C83    C     0.15832   0.92861   0.42989   0.00000  Uiso   1.00
C84    C     0.18056   0.92740   0.42589   0.00000  Uiso   1.00
C85    C     0.18922   0.91311   0.40101   0.00000  Uiso   1.00
C86    C     0.17571   0.90055   0.38018   0.00000  Uiso   1.00
N7     N     0.19378   0.94018   0.44855   0.00000  Uiso   1.00
C87    C     0.21314   0.94639   0.44150   0.00000  Uiso   1.00
C88    C     0.22526   0.95939   0.46714   0.00000  Uiso   1.00
C89    C     0.21820   0.96185   0.50222   0.00000  Uiso   1.00
C90    C     0.24419   0.96952   0.45643   0.00000  Uiso   1.00
C91    C     0.22986   0.97428   0.52605   0.00000  Uiso   1.00
C92    C     0.24867   0.98466   0.51524   0.00000  Uiso   1.00
C93    C     0.25571   0.98216   0.48019   0.00000  Uiso   1.00
C94    C     0.15189   0.90290   0.30511   0.00000  Uiso   1.00
C95    C     0.13920   0.88860   0.32465   0.00000  Uiso   1.00
C96    C     0.13899   0.88861   0.36211   0.00000  Uiso   1.00
N8     N     0.26046   0.99789   0.53976   0.00000  Uiso   1.00
C97    C     0.46125   0.04063   0.56148   0.00000  Uiso   1.00
C98    C     0.49216   0.00823   0.56217   0.00000  Uiso   1.00
C99    C     0.12738   0.87304   0.19296   0.00000  Uiso   1.00
C100   C     0.12622   0.87402   0.26684   0.00000  Uiso   1.00
C101   C     0.12572   0.87440   0.30619   0.00000  Uiso   1.00
C102   C     0.12500   0.87495   0.38011   0.00000  Uiso   1.00
H1     H     0.57500   0.96607   0.60851   0.00000  Uiso   1.00
H2     H     0.61405   0.96974   0.60527   0.00000  Uiso   1.00
H3     H     0.60765   0.00708   0.51008   0.00000  Uiso   1.00
H4     H     0.56871   0.00276   0.51248   0.00000  Uiso   1.00
H5     H     0.63982   0.01960   0.53262   0.00000  Uiso   1.00
H6     H     0.67327   0.97037   0.55149   0.00000  Uiso   1.00
H7     H     0.67517   0.03811   0.53202   0.00000  Uiso   1.00
H8     H     0.71236   0.96906   0.54957   0.00000  Uiso   1.00
H9     H     0.71435   0.03693   0.53161   0.00000  Uiso   1.00
H10    H     0.55247   0.02348   0.56374   0.00000  Uiso   1.00
H11    H     0.02119   0.67109   0.05692   0.00000  Uiso   1.00
H12    H     0.95362   0.68074   0.03978   0.00000  Uiso   1.00
H13    H     0.02701   0.70969   0.05357   0.00000  Uiso   1.00
H14    H     0.95933   0.71927   0.03777   0.00000  Uiso   1.00
H15    H     0.95243   0.79211   0.56456   0.00000  Uiso   1.00
H16    H     0.97071   0.75117   0.65110   0.00000  Uiso   1.00
H17    H     0.94284   0.77870   0.66133   0.00000  Uiso   1.00
H18    H     0.93625   0.84584   0.62217   0.00000  Uiso   1.00
H19    H     0.91439   0.87000   0.65850   0.00000  Uiso   1.00
H20    H     0.88822   0.81590   0.71402   0.00000  Uiso   1.00
H21    H     0.91038   0.79193   0.67844   0.00000  Uiso   1.00
H22    H     0.91392   0.83783   0.75471   0.00000  Uiso   1.00
H23    H     0.99543   0.73209   0.61193   0.00000  Uiso   1.00
H24    H     0.97649   0.77259   0.52517   0.00000  Uiso   1.00
H25    H     0.08209   0.12718   0.91149   0.00000  Uiso   1.00
H26    H     0.05998   0.15054   0.94874   0.00000  Uiso   1.00
H27    H     0.08780   0.20568   0.89846   0.00000  Uiso   1.00
H28    H     0.11008   0.18242   0.86183   0.00000  Uiso   1.00
H29    H     0.05637   0.21960   0.91707   0.00000  Uiso   1.00
H30    H     0.04307   0.20110   0.01066   0.00000  Uiso   1.00
H31    H     0.03303   0.25003   0.93212   0.00000  Uiso   1.00
H32    H     0.02215   0.22171   0.05330   0.00000  Uiso   1.00
H33    H     0.01154   0.27034   0.97468   0.00000  Uiso   1.00
H34    H     0.08527   0.16153   0.81760   0.00000  Uiso   1.00
H35    H     0.47126   0.07427   0.51071   0.00000  Uiso   1.00
H36    H     0.47691   0.11283   0.50975   0.00000  Uiso   1.00
H37    H     0.51170   0.10881   0.60808   0.00000  Uiso   1.00
H38    H     0.50543   0.07002   0.60965   0.00000  Uiso   1.00
H39    H     0.46749   0.14416   0.53979   0.00000  Uiso   1.00
H40    H     0.52623   0.05101   0.56109   0.00000  Uiso   1.00
H41    H     0.79410   0.04514   0.06427   0.00000  Uiso   1.00
H42    H     0.75072   0.02908   0.14900   0.00000  Uiso   1.00
H43    H     0.77917   0.05562   0.16049   0.00000  Uiso   1.00
H44    H     0.84686   0.06285   0.12247   0.00000  Uiso   1.00
H45    H     0.87054   0.08517   0.15893   0.00000  Uiso   1.00
H46    H     0.81565   0.11028   0.21394   0.00000  Uiso   1.00
H47    H     0.79204   0.08781   0.17813   0.00000  Uiso   1.00
H48    H     0.83787   0.08557   0.25520   0.00000  Uiso   1.00
H49    H     0.73104   0.00540   0.10887   0.00000  Uiso   1.00
H50    H     0.77406   0.02205   0.02411   0.00000  Uiso   1.00
H51    H     0.12764   0.91757   0.41213   0.00000  Uiso   1.00
H52    H     0.15144   0.93933   0.44926   0.00000  Uiso   1.00
H53    H     0.20634   0.91120   0.39821   0.00000  Uiso   1.00
H54    H     0.18263   0.88934   0.36162   0.00000  Uiso   1.00
H55    H     0.22034   0.94288   0.41610   0.00000  Uiso   1.00
H56    H     0.20374   0.95409   0.51135   0.00000  Uiso   1.00
H57    H     0.24995   0.96789   0.42953   0.00000  Uiso   1.00
H58    H     0.22421   0.97581   0.55301   0.00000  Uiso   1.00
H59    H     0.27005   0.99016   0.47117   0.00000  Uiso   1.00
H60    H     0.16147   0.91487   0.31821   0.00000  Uiso   1.00
H61    H     0.44931   0.05316   0.56096   0.00000  Uiso   1.00
H62    H     0.12810   0.87236   0.16431   0.00000  Uiso   1.00
H63    H     0.12510   0.87477   0.40880   0.00000  Uiso   1.00
C103   C     0.06887   0.48462   0.06123   0.00000  Uiso   1.00
C104   C     0.08197   0.47528   0.08717   0.00000  Uiso   1.00
C105   C     0.10418   0.47737   0.08541   0.00000  Uiso   1.00
C106   C     0.11370   0.48914   0.05818   0.00000  Uiso   1.00
C107   C     0.10066   0.49852   0.03208   0.00000  Uiso   1.00
C108   C     0.07843   0.49604   0.03341   0.00000  Uiso   1.00
N9     N     0.13661   0.49008   0.05660   0.00000  Uiso   1.00
C109   C     0.14769   0.50544   0.04263   0.00000  Uiso   1.00
C110   C     0.17127   0.50440   0.04206   0.00000  Uiso   1.00
C111   C     0.18208   0.48501   0.04721   0.00000  Uiso   1.00
C112   C     0.18317   0.52298   0.03601   0.00000  Uiso   1.00
C113   C     0.20441   0.48425   0.04617   0.00000  Uiso   1.00
C114   C     0.21640   0.50289   0.04052   0.00000  Uiso   1.00
C115   C     0.20552   0.52229   0.03558   0.00000  Uiso   1.00
C116   C     0.03588   0.51868   0.06271   0.00000  Uiso   1.00
C117   C     0.02993   0.49709   0.06207   0.00000  Uiso   1.00
C118   C     0.04545   0.48062   0.06171   0.00000  Uiso   1.00
C119   C     0.48693   0.17302   0.54860   0.00000  Uiso   1.00
C120   C     0.50758   0.18149   0.55285   0.00000  Uiso   1.00
C121   C     0.46968   0.18691   0.54314   0.00000  Uiso   1.00
C122   C     0.51091   0.20352   0.55102   0.00000  Uiso   1.00
C123   C     0.49361   0.21745   0.54537   0.00000  Uiso   1.00
C124   C     0.47295   0.20890   0.54183   0.00000  Uiso   1.00
C125   C     0.46165   0.27897   0.07514   0.00000  Uiso   1.00
C126   C     0.45985   0.27317   0.11089   0.00000  Uiso   1.00
C127   C     0.47184   0.25590   0.12361   0.00000  Uiso   1.00
C128   C     0.44590   0.28517   0.13528   0.00000  Uiso   1.00
N10    N     0.43875   0.30389   0.12659   0.00000  Uiso   1.00
C129   C     0.42548   0.31726   0.14825   0.00000  Uiso   1.00
C130   C     0.42595   0.33928   0.14245   0.00000  Uiso   1.00
C131   C     0.41349   0.35297   0.16306   0.00000  Uiso   1.00
C132   C     0.40008   0.34476   0.18953   0.00000  Uiso   1.00
C133   C     0.39894   0.32260   0.19445   0.00000  Uiso   1.00
C134   C     0.41168   0.30893   0.17420   0.00000  Uiso   1.00
C135   C     0.38666   0.35940   0.21094   0.00000  Uiso   1.00
C136   C     0.38751   0.36005   0.24837   0.00000  Uiso   1.00
C137   C     0.40222   0.34774   0.26783   0.00000  Uiso   1.00
C138   C     0.48587   0.24496   0.10123   0.00000  Uiso   1.00
C139   C     0.48790   0.25090   0.06552   0.00000  Uiso   1.00
C140   C     0.47542   0.26785   0.05265   0.00000  Uiso   1.00
C141   C     0.59732   0.65308   0.38329   0.00000  Uiso   1.00
C142   C     0.58327   0.64431   0.40833   0.00000  Uiso   1.00
C143   C     0.57068   0.65757   0.42947   0.00000  Uiso   1.00
C144   C     0.57168   0.67974   0.42573   0.00000  Uiso   1.00
C145   C     0.58602   0.68860   0.40105   0.00000  Uiso   1.00
C146   C     0.59883   0.67534   0.38019   0.00000  Uiso   1.00
N11    N     0.55871   0.69268   0.44857   0.00000  Uiso   1.00
C147   C     0.55260   0.71209   0.44208   0.00000  Uiso   1.00
C148   C     0.53962   0.72400   0.46805   0.00000  Uiso   1.00
C149   C     0.53625   0.71617   0.50243   0.00000  Uiso   1.00
C150   C     0.53065   0.74367   0.45846   0.00000  Uiso   1.00
C151   C     0.52425   0.72789   0.52680   0.00000  Uiso   1.00
C152   C     0.51522   0.74756   0.51721   0.00000  Uiso   1.00
C153   C     0.51846   0.75528   0.48273   0.00000  Uiso   1.00
C154   C     0.59729   0.65187   0.30474   0.00000  Uiso   1.00
C155   C     0.61145   0.63913   0.32448   0.00000  Uiso   1.00
C156   C     0.61127   0.63892   0.36195   0.00000  Uiso   1.00
N12    N     0.50300   0.75980   0.54257   0.00000  Uiso   1.00
C157   C     0.98810   0.56927   0.06008   0.00000  Uiso   1.00
C158   C     0.98011   0.58167   0.03209   0.00000  Uiso   1.00
C159   C     0.98319   0.60369   0.03171   0.00000  Uiso   1.00
C160   C     0.99434   0.61373   0.05938   0.00000  Uiso   1.00
C161   C     0.00292   0.60130   0.08676   0.00000  Uiso   1.00
C162   C     0.99946   0.57926   0.08753   0.00000  Uiso   1.00
N13    N     0.99727   0.63643   0.06000   0.00000  Uiso   1.00
C163   C     0.98298   0.64985   0.04863   0.00000  Uiso   1.00
C164   C     0.02057   0.53475   0.06191   0.00000  Uiso   1.00
C165   C     0.99862   0.52994   0.06206   0.00000  Uiso   1.00
C166   C     0.98290   0.54620   0.06156   0.00000  Uiso   1.00
C167   C     0.28034   0.53660   0.57434   0.00000  Uiso   1.00
C168   C     0.27395   0.53881   0.60980   0.00000  Uiso   1.00
C169   C     0.25592   0.52762   0.62177   0.00000  Uiso   1.00
C170   C     0.28589   0.55255   0.63459   0.00000  Uiso   1.00
N14    N     0.30470   0.55979   0.62628   0.00000  Uiso   1.00
C171   C     0.31784   0.57312   0.64822   0.00000  Uiso   1.00
C172   C     0.34000   0.57298   0.64271   0.00000  Uiso   1.00
C173   C     0.35343   0.58567   0.66340   0.00000  Uiso   1.00
C174   C     0.34487   0.59895   0.68974   0.00000  Uiso   1.00
C175   C     0.32259   0.59969   0.69445   0.00000  Uiso   1.00
C176   C     0.30914   0.58677   0.67406   0.00000  Uiso   1.00
C177   C     0.35925   0.61272   0.71106   0.00000  Uiso   1.00
C178   C     0.35992   0.61205   0.74852   0.00000  Uiso   1.00
C179   C     0.34772   0.59737   0.76818   0.00000  Uiso   1.00
C180   C     0.24465   0.51419   0.59888   0.00000  Uiso   1.00
C181   C     0.25103   0.51194   0.56342   0.00000  Uiso   1.00
C182   C     0.26893   0.52338   0.55137   0.00000  Uiso   1.00
C183   C     0.65339   0.40226   0.88354   0.00000  Uiso   1.00
C184   C     0.64481   0.41625   0.90878   0.00000  Uiso   1.00
C185   C     0.65832   0.42861   0.92989   0.00000  Uiso   1.00
C186   C     0.68056   0.42740   0.92589   0.00000  Uiso   1.00
C187   C     0.68922   0.41311   0.90101   0.00000  Uiso   1.00
C188   C     0.67571   0.40055   0.88018   0.00000  Uiso   1.00
N15    N     0.69378   0.44018   0.94855   0.00000  Uiso   1.00
C189   C     0.71314   0.44639   0.94150   0.00000  Uiso   1.00
C190   C     0.72526   0.45939   0.96714   0.00000  Uiso   1.00
C191   C     0.71820   0.46185   0.00222   0.00000  Uiso   1.00
C192   C     0.74419   0.46952   0.95643   0.00000  Uiso   1.00
C193   C     0.72986   0.47428   0.02605   0.00000  Uiso   1.00
C194   C     0.74867   0.48466   0.01524   0.00000  Uiso   1.00
C195   C     0.75571   0.48216   0.98019   0.00000  Uiso   1.00
C196   C     0.65189   0.40290   0.80511   0.00000  Uiso   1.00
C197   C     0.63920   0.38860   0.82465   0.00000  Uiso   1.00
C198   C     0.63899   0.38861   0.86211   0.00000  Uiso   1.00
N16    N     0.76046   0.49789   0.03976   0.00000  Uiso   1.00
C199   C     0.96125   0.54063   0.06148   0.00000  Uiso   1.00
C200   C     0.99216   0.50823   0.06217   0.00000  Uiso   1.00
C201   C     0.62738   0.37304   0.69296   0.00000  Uiso   1.00
C202   C     0.62622   0.37402   0.76684   0.00000  Uiso   1.00
C203   C     0.62572   0.37440   0.80619   0.00000  Uiso   1.00
C204   C     0.62500   0.37495   0.88011   0.00000  Uiso   1.00
H64    H     0.07500   0.46607   0.10851   0.00000  Uiso   1.00
H65    H     0.11405   0.46974   0.10527   0.00000  Uiso   1.00
H66    H     0.10765   0.50708   0.01008   0.00000  Uiso   1.00
H67    H     0.06871   0.50276   0.01248   0.00000  Uiso   1.00
H68    H     0.13982   0.51960   0.03262   0.00000  Uiso   1.00
H69    H     0.17327   0.47037   0.05149   0.00000  Uiso   1.00
H70    H     0.17517   0.53811   0.03202   0.00000  Uiso   1.00
H71    H     0.21236   0.46906   0.04957   0.00000  Uiso   1.00
H72    H     0.21435   0.53693   0.03161   0.00000  Uiso   1.00
H73    H     0.05247   0.52348   0.06374   0.00000  Uiso   1.00
H74    H     0.52119   0.17109   0.55692   0.00000  Uiso   1.00
H75    H     0.45362   0.18074   0.53978   0.00000  Uiso   1.00
H76    H     0.52701   0.20969   0.55357   0.00000  Uiso   1.00
H77    H     0.45933   0.21927   0.53777   0.00000  Uiso   1.00
H78    H     0.45243   0.29211   0.06456   0.00000  Uiso   1.00
H79    H     0.47071   0.25117   0.15110   0.00000  Uiso   1.00
H80    H     0.44284   0.27870   0.16133   0.00000  Uiso   1.00
H81    H     0.43625   0.34584   0.12217   0.00000  Uiso   1.00
H82    H     0.41439   0.37000   0.15850   0.00000  Uiso   1.00
H83    H     0.38822   0.31590   0.21402   0.00000  Uiso   1.00
H84    H     0.41038   0.29193   0.17844   0.00000  Uiso   1.00
H85    H     0.41392   0.33783   0.25471   0.00000  Uiso   1.00
H86    H     0.49543   0.23209   0.11193   0.00000  Uiso   1.00
H87    H     0.47649   0.27259   0.02517   0.00000  Uiso   1.00
H88    H     0.58209   0.62718   0.41149   0.00000  Uiso   1.00
H89    H     0.55998   0.65054   0.44874   0.00000  Uiso   1.00
H90    H     0.58780   0.70568   0.39846   0.00000  Uiso   1.00
H91    H     0.61008   0.68242   0.36183   0.00000  Uiso   1.00
H92    H     0.55637   0.71960   0.41707   0.00000  Uiso   1.00
H93    H     0.54307   0.70110   0.51066   0.00000  Uiso   1.00
H94    H     0.53303   0.75003   0.43212   0.00000  Uiso   1.00
H95    H     0.52215   0.72171   0.55330   0.00000  Uiso   1.00
H96    H     0.51154   0.77034   0.47468   0.00000  Uiso   1.00
H97    H     0.58527   0.66153   0.31760   0.00000  Uiso   1.00
H98    H     0.97126   0.57427   0.01071   0.00000  Uiso   1.00
H99    H     0.97691   0.61283   0.00975   0.00000  Uiso   1.00
H100   H     0.01170   0.60881   0.10808   0.00000  Uiso   1.00
H101   H     0.00543   0.57002   0.10965   0.00000  Uiso   1.00
H102   H     0.96749   0.64416   0.03979   0.00000  Uiso   1.00
H103   H     0.02623   0.55101   0.06109   0.00000  Uiso   1.00
H104   H     0.29410   0.54514   0.56427   0.00000  Uiso   1.00
H105   H     0.25072   0.52908   0.64900   0.00000  Uiso   1.00
H106   H     0.27917   0.55562   0.66049   0.00000  Uiso   1.00
H107   H     0.34686   0.56285   0.62247   0.00000  Uiso   1.00
H108   H     0.37054   0.58517   0.65893   0.00000  Uiso   1.00
H109   H     0.31565   0.61028   0.71394   0.00000  Uiso   1.00
H110   H     0.29204   0.58781   0.67813   0.00000  Uiso   1.00
H111   H     0.33787   0.58557   0.75520   0.00000  Uiso   1.00
H112   H     0.23104   0.50540   0.60887   0.00000  Uiso   1.00
H113   H     0.27406   0.52205   0.52411   0.00000  Uiso   1.00
H114   H     0.62764   0.41757   0.91213   0.00000  Uiso   1.00
H115   H     0.65144   0.43933   0.94926   0.00000  Uiso   1.00
H116   H     0.70634   0.41120   0.89821   0.00000  Uiso   1.00
H117   H     0.68263   0.38934   0.86162   0.00000  Uiso   1.00
H118   H     0.72034   0.44288   0.91610   0.00000  Uiso   1.00
H119   H     0.70374   0.45409   0.01135   0.00000  Uiso   1.00
H120   H     0.74995   0.46789   0.92953   0.00000  Uiso   1.00
H121   H     0.72421   0.47581   0.05301   0.00000  Uiso   1.00
H122   H     0.77005   0.49016   0.97117   0.00000  Uiso   1.00
H123   H     0.66147   0.41487   0.81821   0.00000  Uiso   1.00
H124   H     0.94931   0.55316   0.06096   0.00000  Uiso   1.00
H125   H     0.62810   0.37236   0.66431   0.00000  Uiso   1.00
H126   H     0.62510   0.37477   0.90880   0.00000  Uiso   1.00
C205   C     0.43113   0.01538   0.56123   0.00000  Uiso   1.00
C206   C     0.41803   0.02472   0.58717   0.00000  Uiso   1.00
C207   C     0.39582   0.02263   0.58541   0.00000  Uiso   1.00
C208   C     0.38630   0.01086   0.55818   0.00000  Uiso   1.00
C209   C     0.39934   0.00148   0.53208   0.00000  Uiso   1.00
C210   C     0.42157   0.00396   0.53341   0.00000  Uiso   1.00
N17    N     0.36339   0.00992   0.55660   0.00000  Uiso   1.00
C211   C     0.35231   0.99456   0.54263   0.00000  Uiso   1.00
C212   C     0.32873   0.99560   0.54206   0.00000  Uiso   1.00
C213   C     0.31792   0.01499   0.54721   0.00000  Uiso   1.00
C214   C     0.31683   0.97702   0.53601   0.00000  Uiso   1.00
C215   C     0.29559   0.01575   0.54617   0.00000  Uiso   1.00
C216   C     0.28360   0.99711   0.54052   0.00000  Uiso   1.00
C217   C     0.29448   0.97771   0.53558   0.00000  Uiso   1.00
C218   C     0.46412   0.98132   0.56271   0.00000  Uiso   1.00
C219   C     0.47007   0.00291   0.56207   0.00000  Uiso   1.00
C220   C     0.45455   0.01938   0.56171   0.00000  Uiso   1.00
C221   C     0.01307   0.32698   0.04860   0.00000  Uiso   1.00
C222   C     0.99242   0.31851   0.05285   0.00000  Uiso   1.00
C223   C     0.03032   0.31309   0.04314   0.00000  Uiso   1.00
C224   C     0.98909   0.29648   0.05102   0.00000  Uiso   1.00
C225   C     0.00639   0.28255   0.04537   0.00000  Uiso   1.00
C226   C     0.02705   0.29110   0.04183   0.00000  Uiso   1.00
C227   C     0.03835   0.22103   0.57514   0.00000  Uiso   1.00
C228   C     0.04015   0.22683   0.61089   0.00000  Uiso   1.00
C229   C     0.02816   0.24410   0.62361   0.00000  Uiso   1.00
C230   C     0.05410   0.21483   0.63528   0.00000  Uiso   1.00
N18    N     0.06125   0.19611   0.62659   0.00000  Uiso   1.00
C231   C     0.07452   0.18274   0.64825   0.00000  Uiso   1.00
C232   C     0.07405   0.16072   0.64245   0.00000  Uiso   1.00
C233   C     0.08651   0.14703   0.66306   0.00000  Uiso   1.00
C234   C     0.09992   0.15524   0.68953   0.00000  Uiso   1.00
C235   C     0.10106   0.17740   0.69445   0.00000  Uiso   1.00
C236   C     0.08832   0.19107   0.67420   0.00000  Uiso   1.00
C237   C     0.11334   0.14060   0.71094   0.00000  Uiso   1.00
C238   C     0.11249   0.13995   0.74837   0.00000  Uiso   1.00
C239   C     0.09778   0.15226   0.76783   0.00000  Uiso   1.00
C240   C     0.01413   0.25504   0.60123   0.00000  Uiso   1.00
C241   C     0.01210   0.24910   0.56552   0.00000  Uiso   1.00
C242   C     0.02458   0.23215   0.55265   0.00000  Uiso   1.00
C243   C     0.90268   0.84692   0.88329   0.00000  Uiso   1.00
C244   C     0.91673   0.85569   0.90833   0.00000  Uiso   1.00
C245   C     0.92932   0.84243   0.92947   0.00000  Uiso   1.00
C246   C     0.92832   0.82026   0.92573   0.00000  Uiso   1.00
C247   C     0.91398   0.81140   0.90105   0.00000  Uiso   1.00
C248   C     0.90117   0.82466   0.88019   0.00000  Uiso   1.00
N19    N     0.94129   0.80732   0.94857   0.00000  Uiso   1.00
C249   C     0.94740   0.78791   0.94208   0.00000  Uiso   1.00
C250   C     0.96038   0.77600   0.96805   0.00000  Uiso   1.00
C251   C     0.96375   0.78383   0.00243   0.00000  Uiso   1.00
C252   C     0.96935   0.75633   0.95846   0.00000  Uiso   1.00
C253   C     0.97575   0.77211   0.02680   0.00000  Uiso   1.00
C254   C     0.98478   0.75244   0.01721   0.00000  Uiso   1.00
C255   C     0.98154   0.74472   0.98273   0.00000  Uiso   1.00
C256   C     0.90271   0.84813   0.80474   0.00000  Uiso   1.00
C257   C     0.88855   0.86087   0.82448   0.00000  Uiso   1.00
C258   C     0.88873   0.86108   0.86195   0.00000  Uiso   1.00
N20    N     0.99700   0.74020   0.04257   0.00000  Uiso   1.00
C259   C     0.51190   0.93073   0.56008   0.00000  Uiso   1.00
C260   C     0.51989   0.91833   0.53209   0.00000  Uiso   1.00
C261   C     0.51681   0.89631   0.53171   0.00000  Uiso   1.00
C262   C     0.50566   0.88627   0.55938   0.00000  Uiso   1.00
C263   C     0.49708   0.89870   0.58676   0.00000  Uiso   1.00
C264   C     0.50054   0.92074   0.58753   0.00000  Uiso   1.00
N21    N     0.50273   0.86357   0.56000   0.00000  Uiso   1.00
C265   C     0.51702   0.85015   0.54863   0.00000  Uiso   1.00
C266   C     0.47943   0.96525   0.56191   0.00000  Uiso   1.00
C267   C     0.50138   0.97006   0.56206   0.00000  Uiso   1.00
C268   C     0.51710   0.95380   0.56156   0.00000  Uiso   1.00
C269   C     0.21966   0.96340   0.07434   0.00000  Uiso   1.00
C270   C     0.22605   0.96119   0.10980   0.00000  Uiso   1.00
C271   C     0.24408   0.97238   0.12177   0.00000  Uiso   1.00
C272   C     0.21411   0.94745   0.13459   0.00000  Uiso   1.00
N22    N     0.19530   0.94021   0.12628   0.00000  Uiso   1.00
C273   C     0.18216   0.92688   0.14822   0.00000  Uiso   1.00
C274   C     0.16000   0.92702   0.14271   0.00000  Uiso   1.00
C275   C     0.14657   0.91433   0.16340   0.00000  Uiso   1.00
C276   C     0.15513   0.90105   0.18974   0.00000  Uiso   1.00
C277   C     0.17741   0.90031   0.19445   0.00000  Uiso   1.00
C278   C     0.19086   0.91323   0.17406   0.00000  Uiso   1.00
C279   C     0.14075   0.88728   0.21106   0.00000  Uiso   1.00
C280   C     0.14008   0.88795   0.24852   0.00000  Uiso   1.00
C281   C     0.15228   0.90263   0.26818   0.00000  Uiso   1.00
C282   C     0.25535   0.98581   0.09888   0.00000  Uiso   1.00
C283   C     0.24897   0.98806   0.06342   0.00000  Uiso   1.00
C284   C     0.23107   0.97662   0.05137   0.00000  Uiso   1.00
C285   C     0.84661   0.09774   0.38354   0.00000  Uiso   1.00
C286   C     0.85519   0.08375   0.40878   0.00000  Uiso   1.00
C287   C     0.84168   0.07139   0.42989   0.00000  Uiso   1.00
C288   C     0.81944   0.07260   0.42589   0.00000  Uiso   1.00
C289   C     0.81078   0.08689   0.40101   0.00000  Uiso   1.00
C290   C     0.82429   0.09945   0.38018   0.00000  Uiso   1.00
N23    N     0.80622   0.05982   0.44855   0.00000  Uiso   1.00
C291   C     0.78686   0.05361   0.44150   0.00000  Uiso   1.00
C292   C     0.77474   0.04061   0.46714   0.00000  Uiso   1.00
C293   C     0.78180   0.03815   0.50222   0.00000  Uiso   1.00
C294   C     0.75581   0.03048   0.45643   0.00000  Uiso   1.00
C295   C     0.77014   0.02572   0.52605   0.00000  Uiso   1.00
C296   C     0.75133   0.01534   0.51524   0.00000  Uiso   1.00
C297   C     0.74429   0.01784   0.48019   0.00000  Uiso   1.00
C298   C     0.84811   0.09710   0.30511   0.00000  Uiso   1.00
C299   C     0.86080   0.11140   0.32465   0.00000  Uiso   1.00
C300   C     0.86101   0.11139   0.36211   0.00000  Uiso   1.00
N24    N     0.73954   0.00211   0.53976   0.00000  Uiso   1.00
C301   C     0.53875   0.95937   0.56148   0.00000  Uiso   1.00
C302   C     0.50784   0.99177   0.56217   0.00000  Uiso   1.00
C303   C     0.87262   0.12696   0.19296   0.00000  Uiso   1.00
C304   C     0.87378   0.12598   0.26684   0.00000  Uiso   1.00
C305   C     0.87428   0.12560   0.30619   0.00000  Uiso   1.00
C306   C     0.87500   0.12505   0.38011   0.00000  Uiso   1.00
H127   H     0.42500   0.03393   0.60851   0.00000  Uiso   1.00
H128   H     0.38595   0.03026   0.60527   0.00000  Uiso   1.00
H129   H     0.39235   0.99292   0.51008   0.00000  Uiso   1.00
H130   H     0.43129   0.99724   0.51248   0.00000  Uiso   1.00
H131   H     0.36018   0.98040   0.53262   0.00000  Uiso   1.00
H132   H     0.32673   0.02963   0.55149   0.00000  Uiso   1.00
H133   H     0.32483   0.96189   0.53202   0.00000  Uiso   1.00
H134   H     0.28764   0.03094   0.54957   0.00000  Uiso   1.00
H135   H     0.28565   0.96307   0.53161   0.00000  Uiso   1.00
H136   H     0.44753   0.97652   0.56374   0.00000  Uiso   1.00
H137   H     0.97881   0.32891   0.05692   0.00000  Uiso   1.00
H138   H     0.04638   0.31926   0.03978   0.00000  Uiso   1.00
H139   H     0.97299   0.29031   0.05357   0.00000  Uiso   1.00
H140   H     0.04067   0.28073   0.03777   0.00000  Uiso   1.00
H141   H     0.04757   0.20789   0.56456   0.00000  Uiso   1.00
H142   H     0.02929   0.24883   0.65110   0.00000  Uiso   1.00
H143   H     0.05716   0.22130   0.66133   0.00000  Uiso   1.00
H144   H     0.06375   0.15416   0.62217   0.00000  Uiso   1.00
H145   H     0.08561   0.13000   0.65850   0.00000  Uiso   1.00
H146   H     0.11178   0.18410   0.71402   0.00000  Uiso   1.00
H147   H     0.08962   0.20807   0.67844   0.00000  Uiso   1.00
H148   H     0.08608   0.16217   0.75471   0.00000  Uiso   1.00
H149   H     0.00457   0.26791   0.61193   0.00000  Uiso   1.00
H150   H     0.02351   0.22741   0.52517   0.00000  Uiso   1.00
H151   H     0.91791   0.87282   0.91149   0.00000  Uiso   1.00
H152   H     0.94002   0.84946   0.94874   0.00000  Uiso   1.00
H153   H     0.91220   0.79432   0.89846   0.00000  Uiso   1.00
H154   H     0.88992   0.81758   0.86183   0.00000  Uiso   1.00
H155   H     0.94363   0.78040   0.91707   0.00000  Uiso   1.00
H156   H     0.95693   0.79890   0.01066   0.00000  Uiso   1.00
H157   H     0.96697   0.74997   0.93212   0.00000  Uiso   1.00
H158   H     0.97785   0.77829   0.05330   0.00000  Uiso   1.00
H159   H     0.98846   0.72966   0.97468   0.00000  Uiso   1.00
H160   H     0.91473   0.83847   0.81760   0.00000  Uiso   1.00
H161   H     0.52874   0.92573   0.51071   0.00000  Uiso   1.00
H162   H     0.52309   0.88717   0.50975   0.00000  Uiso   1.00
H163   H     0.48830   0.89119   0.60808   0.00000  Uiso   1.00
H164   H     0.49457   0.92998   0.60965   0.00000  Uiso   1.00
H165   H     0.53251   0.85584   0.53979   0.00000  Uiso   1.00
H166   H     0.47377   0.94899   0.56109   0.00000  Uiso   1.00
H167   H     0.20590   0.95486   0.06427   0.00000  Uiso   1.00
H168   H     0.24928   0.97092   0.14900   0.00000  Uiso   1.00
H169   H     0.22083   0.94438   0.16049   0.00000  Uiso   1.00
H170   H     0.15314   0.93715   0.12247   0.00000  Uiso   1.00
H171   H     0.12946   0.91483   0.15893   0.00000  Uiso   1.00
H172   H     0.18435   0.88972   0.21394   0.00000  Uiso   1.00
H173   H     0.20796   0.91219   0.17813   0.00000  Uiso   1.00
H174   H     0.16213   0.91443   0.25520   0.00000  Uiso   1.00
H175   H     0.26896   0.99460   0.10887   0.00000  Uiso   1.00
H176   H     0.22594   0.97795   0.02411   0.00000  Uiso   1.00
H177   H     0.87236   0.08243   0.41213   0.00000  Uiso   1.00
H178   H     0.84856   0.06067   0.44926   0.00000  Uiso   1.00
H179   H     0.79366   0.08880   0.39821   0.00000  Uiso   1.00
H180   H     0.81737   0.11066   0.36162   0.00000  Uiso   1.00
H181   H     0.77966   0.05712   0.41610   0.00000  Uiso   1.00
H182   H     0.79626   0.04591   0.51135   0.00000  Uiso   1.00
H183   H     0.75005   0.03211   0.42953   0.00000  Uiso   1.00
H184   H     0.77579   0.02419   0.55301   0.00000  Uiso   1.00
H185   H     0.72995   0.00984   0.47117   0.00000  Uiso   1.00
H186   H     0.83853   0.08513   0.31821   0.00000  Uiso   1.00
H187   H     0.55069   0.94684   0.56096   0.00000  Uiso   1.00
H188   H     0.87190   0.12764   0.16431   0.00000  Uiso   1.00
H189   H     0.87490   0.12523   0.40880   0.00000  Uiso   1.00
C307   C     0.93113   0.51538   0.06123   0.00000  Uiso   1.00
C308   C     0.91803   0.52472   0.08717   0.00000  Uiso   1.00
C309   C     0.89582   0.52263   0.08541   0.00000  Uiso   1.00
C310   C     0.88630   0.51086   0.05818   0.00000  Uiso   1.00
C311   C     0.89934   0.50148   0.03208   0.00000  Uiso   1.00
C312   C     0.92157   0.50396   0.03341   0.00000  Uiso   1.00
N25    N     0.86339   0.50992   0.05660   0.00000  Uiso   1.00
C313   C     0.85231   0.49456   0.04263   0.00000  Uiso   1.00
C314   C     0.82873   0.49560   0.04206   0.00000  Uiso   1.00
C315   C     0.81792   0.51499   0.04721   0.00000  Uiso   1.00
C316   C     0.81683   0.47702   0.03601   0.00000  Uiso   1.00
C317   C     0.79559   0.51575   0.04617   0.00000  Uiso   1.00
C318   C     0.78360   0.49711   0.04052   0.00000  Uiso   1.00
C319   C     0.79448   0.47771   0.03558   0.00000  Uiso   1.00
C320   C     0.96412   0.48132   0.06271   0.00000  Uiso   1.00
C321   C     0.97007   0.50291   0.06207   0.00000  Uiso   1.00
C322   C     0.95455   0.51938   0.06171   0.00000  Uiso   1.00
C323   C     0.51307   0.82698   0.54860   0.00000  Uiso   1.00
C324   C     0.49242   0.81851   0.55285   0.00000  Uiso   1.00
C325   C     0.53032   0.81309   0.54314   0.00000  Uiso   1.00
C326   C     0.48909   0.79648   0.55102   0.00000  Uiso   1.00
C327   C     0.50639   0.78255   0.54537   0.00000  Uiso   1.00
C328   C     0.52705   0.79110   0.54183   0.00000  Uiso   1.00
C329   C     0.53835   0.72103   0.07514   0.00000  Uiso   1.00
C330   C     0.54015   0.72683   0.11089   0.00000  Uiso   1.00
C331   C     0.52816   0.74410   0.12361   0.00000  Uiso   1.00
C332   C     0.55410   0.71483   0.13528   0.00000  Uiso   1.00
N26    N     0.56125   0.69611   0.12659   0.00000  Uiso   1.00
C333   C     0.57452   0.68274   0.14825   0.00000  Uiso   1.00
C334   C     0.57405   0.66072   0.14245   0.00000  Uiso   1.00
C335   C     0.58651   0.64703   0.16306   0.00000  Uiso   1.00
C336   C     0.59992   0.65524   0.18953   0.00000  Uiso   1.00
C337   C     0.60106   0.67740   0.19445   0.00000  Uiso   1.00
C338   C     0.58832   0.69107   0.17420   0.00000  Uiso   1.00
C339   C     0.61334   0.64060   0.21094   0.00000  Uiso   1.00
C340   C     0.61249   0.63995   0.24837   0.00000  Uiso   1.00
C341   C     0.59778   0.65226   0.26783   0.00000  Uiso   1.00
C342   C     0.51413   0.75504   0.10123   0.00000  Uiso   1.00
C343   C     0.51210   0.74910   0.06552   0.00000  Uiso   1.00
C344   C     0.52458   0.73215   0.05265   0.00000  Uiso   1.00
C345   C     0.40268   0.34692   0.38329   0.00000  Uiso   1.00
C346   C     0.41673   0.35569   0.40833   0.00000  Uiso   1.00
C347   C     0.42932   0.34243   0.42947   0.00000  Uiso   1.00
C348   C     0.42832   0.32026   0.42573   0.00000  Uiso   1.00
C349   C     0.41398   0.31140   0.40105   0.00000  Uiso   1.00
C350   C     0.40117   0.32466   0.38019   0.00000  Uiso   1.00
N27    N     0.44129   0.30732   0.44857   0.00000  Uiso   1.00
C351   C     0.44740   0.28791   0.44208   0.00000  Uiso   1.00
C352   C     0.46038   0.27600   0.46805   0.00000  Uiso   1.00
C353   C     0.46375   0.28383   0.50243   0.00000  Uiso   1.00
C354   C     0.46935   0.25633   0.45846   0.00000  Uiso   1.00
C355   C     0.47575   0.27211   0.52680   0.00000  Uiso   1.00
C356   C     0.48478   0.25244   0.51721   0.00000  Uiso   1.00
C357   C     0.48154   0.24472   0.48273   0.00000  Uiso   1.00
C358   C     0.40271   0.34813   0.30474   0.00000  Uiso   1.00
C359   C     0.38855   0.36087   0.32448   0.00000  Uiso   1.00
C360   C     0.38873   0.36108   0.36195   0.00000  Uiso   1.00
N28    N     0.49700   0.24020   0.54257   0.00000  Uiso   1.00
C361   C     0.01190   0.43073   0.06008   0.00000  Uiso   1.00
C362   C     0.01989   0.41833   0.03209   0.00000  Uiso   1.00
C363   C     0.01681   0.39631   0.03171   0.00000  Uiso   1.00
C364   C     0.00566   0.38627   0.05938   0.00000  Uiso   1.00
C365   C     0.99708   0.39870   0.08676   0.00000  Uiso   1.00
C366   C     0.00054   0.42074   0.08753   0.00000  Uiso   1.00
N29    N     0.00273   0.36357   0.06000   0.00000  Uiso   1.00
C367   C     0.01702   0.35015   0.04863   0.00000  Uiso   1.00
C368   C     0.97943   0.46525   0.06191   0.00000  Uiso   1.00
C369   C     0.00138   0.47006   0.06206   0.00000  Uiso   1.00
C370   C     0.01710   0.45380   0.06156   0.00000  Uiso   1.00
C371   C     0.71966   0.46340   0.57434   0.00000  Uiso   1.00
C372   C     0.72605   0.46119   0.60980   0.00000  Uiso   1.00
C373   C     0.74408   0.47238   0.62177   0.00000  Uiso   1.00
C374   C     0.71411   0.44745   0.63459   0.00000  Uiso   1.00
N30    N     0.69530   0.44021   0.62628   0.00000  Uiso   1.00
C375   C     0.68216   0.42688   0.64822   0.00000  Uiso   1.00
C376   C     0.66000   0.42702   0.64271   0.00000  Uiso   1.00
C377   C     0.64657   0.41433   0.66340   0.00000  Uiso   1.00
C378   C     0.65513   0.40105   0.68974   0.00000  Uiso   1.00
C379   C     0.67741   0.40031   0.69445   0.00000  Uiso   1.00
C380   C     0.69086   0.41323   0.67406   0.00000  Uiso   1.00
C381   C     0.64075   0.38728   0.71106   0.00000  Uiso   1.00
C382   C     0.64008   0.38795   0.74852   0.00000  Uiso   1.00
C383   C     0.65228   0.40263   0.76818   0.00000  Uiso   1.00
C384   C     0.75535   0.48581   0.59888   0.00000  Uiso   1.00
C385   C     0.74897   0.48806   0.56342   0.00000  Uiso   1.00
C386   C     0.73107   0.47662   0.55137   0.00000  Uiso   1.00
C387   C     0.34661   0.59774   0.88354   0.00000  Uiso   1.00
C388   C     0.35519   0.58375   0.90878   0.00000  Uiso   1.00
C389   C     0.34168   0.57139   0.92989   0.00000  Uiso   1.00
C390   C     0.31944   0.57260   0.92589   0.00000  Uiso   1.00
C391   C     0.31078   0.58689   0.90101   0.00000  Uiso   1.00
C392   C     0.32429   0.59945   0.88018   0.00000  Uiso   1.00
N31    N     0.30622   0.55982   0.94855   0.00000  Uiso   1.00
C393   C     0.28686   0.55361   0.94150   0.00000  Uiso   1.00
C394   C     0.27474   0.54061   0.96714   0.00000  Uiso   1.00
C395   C     0.28180   0.53815   0.00222   0.00000  Uiso   1.00
C396   C     0.25581   0.53048   0.95643   0.00000  Uiso   1.00
C397   C     0.27014   0.52572   0.02605   0.00000  Uiso   1.00
C398   C     0.25133   0.51534   0.01524   0.00000  Uiso   1.00
C399   C     0.24429   0.51784   0.98019   0.00000  Uiso   1.00
C400   C     0.34811   0.59710   0.80511   0.00000  Uiso   1.00
C401   C     0.36080   0.61140   0.82465   0.00000  Uiso   1.00
C402   C     0.36101   0.61139   0.86211   0.00000  Uiso   1.00
N32    N     0.23954   0.50211   0.03976   0.00000  Uiso   1.00
C403   C     0.03875   0.45937   0.06148   0.00000  Uiso   1.00
C404   C     0.00784   0.49177   0.06217   0.00000  Uiso   1.00
C405   C     0.37262   0.62696   0.69296   0.00000  Uiso   1.00
C406   C     0.37378   0.62598   0.76684   0.00000  Uiso   1.00
C407   C     0.37428   0.62560   0.80619   0.00000  Uiso   1.00
C408   C     0.37500   0.62505   0.88011   0.00000  Uiso   1.00
H190   H     0.92500   0.53393   0.10851   0.00000  Uiso   1.00
H191   H     0.88595   0.53026   0.10527   0.00000  Uiso   1.00
H192   H     0.89235   0.49292   0.01008   0.00000  Uiso   1.00
H193   H     0.93129   0.49724   0.01248   0.00000  Uiso   1.00
H194   H     0.86018   0.48040   0.03262   0.00000  Uiso   1.00
H195   H     0.82673   0.52963   0.05149   0.00000  Uiso   1.00
H196   H     0.82483   0.46189   0.03202   0.00000  Uiso   1.00
H197   H     0.78764   0.53094   0.04957   0.00000  Uiso   1.00
H198   H     0.78565   0.46307   0.03161   0.00000  Uiso   1.00
H199   H     0.94753   0.47652   0.06374   0.00000  Uiso   1.00
H200   H     0.47881   0.82891   0.55692   0.00000  Uiso   1.00
H201   H     0.54638   0.81926   0.53978   0.00000  Uiso   1.00
H202   H     0.47299   0.79031   0.55357   0.00000  Uiso   1.00
H203   H     0.54067   0.78073   0.53777   0.00000  Uiso   1.00
H204   H     0.54757   0.70789   0.06456   0.00000  Uiso   1.00
H205   H     0.52929   0.74883   0.15110   0.00000  Uiso   1.00
H206   H     0.55716   0.72130   0.16133   0.00000  Uiso   1.00
H207   H     0.56375   0.65416   0.12217   0.00000  Uiso   1.00
H208   H     0.58561   0.63000   0.15850   0.00000  Uiso   1.00
H209   H     0.61178   0.68410   0.21402   0.00000  Uiso   1.00
H210   H     0.58962   0.70807   0.17844   0.00000  Uiso   1.00
H211   H     0.58608   0.66217   0.25471   0.00000  Uiso   1.00
H212   H     0.50457   0.76791   0.11193   0.00000  Uiso   1.00
H213   H     0.52351   0.72741   0.02517   0.00000  Uiso   1.00
H214   H     0.41791   0.37282   0.41149   0.00000  Uiso   1.00
H215   H     0.44002   0.34946   0.44874   0.00000  Uiso   1.00
H216   H     0.41220   0.29432   0.39846   0.00000  Uiso   1.00
H217   H     0.38992   0.31758   0.36183   0.00000  Uiso   1.00
H218   H     0.44363   0.28040   0.41707   0.00000  Uiso   1.00
H219   H     0.45693   0.29890   0.51066   0.00000  Uiso   1.00
H220   H     0.46697   0.24997   0.43212   0.00000  Uiso   1.00
H221   H     0.47785   0.27829   0.55330   0.00000  Uiso   1.00
H222   H     0.48846   0.22966   0.47468   0.00000  Uiso   1.00
H223   H     0.41473   0.33847   0.31760   0.00000  Uiso   1.00
H224   H     0.02874   0.42573   0.01071   0.00000  Uiso   1.00
H225   H     0.02309   0.38717   0.00975   0.00000  Uiso   1.00
H226   H     0.98830   0.39119   0.10808   0.00000  Uiso   1.00
H227   H     0.99457   0.42998   0.10965   0.00000  Uiso   1.00
H228   H     0.03251   0.35584   0.03979   0.00000  Uiso   1.00
H229   H     0.97377   0.44899   0.06109   0.00000  Uiso   1.00
H230   H     0.70590   0.45486   0.56427   0.00000  Uiso   1.00
H231   H     0.74928   0.47092   0.64900   0.00000  Uiso   1.00
H232   H     0.72083   0.44438   0.66049   0.00000  Uiso   1.00
H233   H     0.65314   0.43715   0.62247   0.00000  Uiso   1.00
H234   H     0.62946   0.41483   0.65893   0.00000  Uiso   1.00
H235   H     0.68435   0.38972   0.71394   0.00000  Uiso   1.00
H236   H     0.70796   0.41219   0.67813   0.00000  Uiso   1.00
H237   H     0.66213   0.41443   0.75520   0.00000  Uiso   1.00
H238   H     0.76896   0.49460   0.60887   0.00000  Uiso   1.00
H239   H     0.72594   0.47795   0.52411   0.00000  Uiso   1.00
H240   H     0.37236   0.58243   0.91213   0.00000  Uiso   1.00
H241   H     0.34856   0.56067   0.94926   0.00000  Uiso   1.00
H242   H     0.29366   0.58880   0.89821   0.00000  Uiso   1.00
H243   H     0.31737   0.61066   0.86162   0.00000  Uiso   1.00
H244   H     0.27966   0.55712   0.91610   0.00000  Uiso   1.00
H245   H     0.29626   0.54591   0.01135   0.00000  Uiso   1.00
H246   H     0.25005   0.53211   0.92953   0.00000  Uiso   1.00
H247   H     0.27579   0.52419   0.05301   0.00000  Uiso   1.00
H248   H     0.22995   0.50984   0.97117   0.00000  Uiso   1.00
H249   H     0.33853   0.58513   0.81821   0.00000  Uiso   1.00
H250   H     0.05069   0.44684   0.06096   0.00000  Uiso   1.00
H251   H     0.37190   0.62764   0.66431   0.00000  Uiso   1.00
H252   H     0.37490   0.62523   0.90880   0.00000  Uiso   1.00
C409   C     0.06887   0.51538   0.56123   0.00000  Uiso   1.00
C410   C     0.08197   0.52472   0.58717   0.00000  Uiso   1.00
C411   C     0.10418   0.52263   0.58541   0.00000  Uiso   1.00
C412   C     0.11370   0.51086   0.55818   0.00000  Uiso   1.00
C413   C     0.10066   0.50148   0.53208   0.00000  Uiso   1.00
C414   C     0.07843   0.50396   0.53341   0.00000  Uiso   1.00
N33    N     0.13661   0.50992   0.55660   0.00000  Uiso   1.00
C415   C     0.14769   0.49456   0.54263   0.00000  Uiso   1.00
C416   C     0.17127   0.49560   0.54206   0.00000  Uiso   1.00
C417   C     0.18208   0.51499   0.54721   0.00000  Uiso   1.00
C418   C     0.18317   0.47702   0.53601   0.00000  Uiso   1.00
C419   C     0.20441   0.51575   0.54617   0.00000  Uiso   1.00
C420   C     0.21640   0.49711   0.54052   0.00000  Uiso   1.00
C421   C     0.20552   0.47771   0.53558   0.00000  Uiso   1.00
C422   C     0.03588   0.48132   0.56271   0.00000  Uiso   1.00
C423   C     0.02993   0.50291   0.56207   0.00000  Uiso   1.00
C424   C     0.04545   0.51938   0.56171   0.00000  Uiso   1.00
C425   C     0.48693   0.82698   0.04860   0.00000  Uiso   1.00
C426   C     0.50758   0.81851   0.05285   0.00000  Uiso   1.00
C427   C     0.46968   0.81309   0.04314   0.00000  Uiso   1.00
C428   C     0.51091   0.79648   0.05102   0.00000  Uiso   1.00
C429   C     0.49361   0.78255   0.04537   0.00000  Uiso   1.00
C430   C     0.47295   0.79110   0.04183   0.00000  Uiso   1.00
C431   C     0.46165   0.72103   0.57514   0.00000  Uiso   1.00
C432   C     0.45985   0.72683   0.61089   0.00000  Uiso   1.00
C433   C     0.47184   0.74410   0.62361   0.00000  Uiso   1.00
C434   C     0.44590   0.71483   0.63528   0.00000  Uiso   1.00
N34    N     0.43875   0.69611   0.62659   0.00000  Uiso   1.00
C435   C     0.42548   0.68274   0.64825   0.00000  Uiso   1.00
C436   C     0.42595   0.66072   0.64245   0.00000  Uiso   1.00
C437   C     0.41349   0.64703   0.66306   0.00000  Uiso   1.00
C438   C     0.40008   0.65524   0.68953   0.00000  Uiso   1.00
C439   C     0.39894   0.67740   0.69445   0.00000  Uiso   1.00
C440   C     0.41168   0.69107   0.67420   0.00000  Uiso   1.00
C441   C     0.38666   0.64060   0.71094   0.00000  Uiso   1.00
C442   C     0.38751   0.63995   0.74837   0.00000  Uiso   1.00
C443   C     0.40222   0.65226   0.76783   0.00000  Uiso   1.00
C444   C     0.48587   0.75504   0.60123   0.00000  Uiso   1.00
C445   C     0.48790   0.74910   0.56552   0.00000  Uiso   1.00
C446   C     0.47542   0.73215   0.55265   0.00000  Uiso   1.00
C447   C     0.59732   0.34692   0.88329   0.00000  Uiso   1.00
C448   C     0.58327   0.35569   0.90833   0.00000  Uiso   1.00
C449   C     0.57068   0.34243   0.92947   0.00000  Uiso   1.00
C450   C     0.57168   0.32026   0.92573   0.00000  Uiso   1.00
C451   C     0.58602   0.31140   0.90105   0.00000  Uiso   1.00
C452   C     0.59883   0.32466   0.88019   0.00000  Uiso   1.00
N35    N     0.55871   0.30732   0.94857   0.00000  Uiso   1.00
C453   C     0.55260   0.28791   0.94208   0.00000  Uiso   1.00
C454   C     0.53962   0.27600   0.96805   0.00000  Uiso   1.00
C455   C     0.53625   0.28383   0.00243   0.00000  Uiso   1.00
C456   C     0.53065   0.25633   0.95846   0.00000  Uiso   1.00
C457   C     0.52425   0.27211   0.02680   0.00000  Uiso   1.00
C458   C     0.51522   0.25244   0.01721   0.00000  Uiso   1.00
C459   C     0.51846   0.24472   0.98273   0.00000  Uiso   1.00
C460   C     0.59729   0.34813   0.80474   0.00000  Uiso   1.00
C461   C     0.61145   0.36087   0.82448   0.00000  Uiso   1.00
C462   C     0.61127   0.36108   0.86195   0.00000  Uiso   1.00
N36    N     0.50300   0.24020   0.04257   0.00000  Uiso   1.00
C463   C     0.98810   0.43073   0.56008   0.00000  Uiso   1.00
C464   C     0.98011   0.41833   0.53209   0.00000  Uiso   1.00
C465   C     0.98319   0.39631   0.53171   0.00000  Uiso   1.00
C466   C     0.99434   0.38627   0.55938   0.00000  Uiso   1.00
C467   C     0.00292   0.39870   0.58676   0.00000  Uiso   1.00
C468   C     0.99946   0.42074   0.58753   0.00000  Uiso   1.00
N37    N     0.99727   0.36357   0.56000   0.00000  Uiso   1.00
C469   C     0.98298   0.35015   0.54863   0.00000  Uiso   1.00
C470   C     0.02057   0.46525   0.56191   0.00000  Uiso   1.00
C471   C     0.99862   0.47006   0.56206   0.00000  Uiso   1.00
C472   C     0.98290   0.45380   0.56156   0.00000  Uiso   1.00
C473   C     0.28034   0.46340   0.07434   0.00000  Uiso   1.00
C474   C     0.27395   0.46119   0.10980   0.00000  Uiso   1.00
C475   C     0.25592   0.47238   0.12177   0.00000  Uiso   1.00
C476   C     0.28589   0.44745   0.13459   0.00000  Uiso   1.00
N38    N     0.30470   0.44021   0.12628   0.00000  Uiso   1.00
C477   C     0.31784   0.42688   0.14822   0.00000  Uiso   1.00
C478   C     0.34000   0.42702   0.14271   0.00000  Uiso   1.00
C479   C     0.35343   0.41433   0.16340   0.00000  Uiso   1.00
C480   C     0.34487   0.40105   0.18974   0.00000  Uiso   1.00
C481   C     0.32259   0.40031   0.19445   0.00000  Uiso   1.00
C482   C     0.30914   0.41323   0.17406   0.00000  Uiso   1.00
C483   C     0.35925   0.38728   0.21106   0.00000  Uiso   1.00
C484   C     0.35992   0.38795   0.24852   0.00000  Uiso   1.00
C485   C     0.34772   0.40263   0.26818   0.00000  Uiso   1.00
C486   C     0.24465   0.48581   0.09888   0.00000  Uiso   1.00
C487   C     0.25103   0.48806   0.06342   0.00000  Uiso   1.00
C488   C     0.26893   0.47662   0.05137   0.00000  Uiso   1.00
C489   C     0.65339   0.59774   0.38354   0.00000  Uiso   1.00
C490   C     0.64481   0.58375   0.40878   0.00000  Uiso   1.00
C491   C     0.65832   0.57139   0.42989   0.00000  Uiso   1.00
C492   C     0.68056   0.57260   0.42589   0.00000  Uiso   1.00
C493   C     0.68922   0.58689   0.40101   0.00000  Uiso   1.00
C494   C     0.67571   0.59945   0.38018   0.00000  Uiso   1.00
N39    N     0.69378   0.55982   0.44855   0.00000  Uiso   1.00
C495   C     0.71314   0.55361   0.44150   0.00000  Uiso   1.00
C496   C     0.72526   0.54061   0.46714   0.00000  Uiso   1.00
C497   C     0.71820   0.53815   0.50222   0.00000  Uiso   1.00
C498   C     0.74419   0.53048   0.45643   0.00000  Uiso   1.00
C499   C     0.72986   0.52572   0.52605   0.00000  Uiso   1.00
C500   C     0.74867   0.51534   0.51524   0.00000  Uiso   1.00
C501   C     0.75571   0.51784   0.48019   0.00000  Uiso   1.00
C502   C     0.65189   0.59710   0.30511   0.00000  Uiso   1.00
C503   C     0.63920   0.61140   0.32465   0.00000  Uiso   1.00
C504   C     0.63899   0.61139   0.36211   0.00000  Uiso   1.00
N40    N     0.76046   0.50211   0.53976   0.00000  Uiso   1.00
C505   C     0.96125   0.45937   0.56148   0.00000  Uiso   1.00
C506   C     0.99216   0.49177   0.56217   0.00000  Uiso   1.00
C507   C     0.62738   0.62696   0.19296   0.00000  Uiso   1.00
C508   C     0.62622   0.62598   0.26684   0.00000  Uiso   1.00
C509   C     0.62572   0.62560   0.30619   0.00000  Uiso   1.00
C510   C     0.62500   0.62505   0.38011   0.00000  Uiso   1.00
H253   H     0.07500   0.53393   0.60851   0.00000  Uiso   1.00
H254   H     0.11405   0.53026   0.60527   0.00000  Uiso   1.00
H255   H     0.10765   0.49292   0.51008   0.00000  Uiso   1.00
H256   H     0.06871   0.49724   0.51248   0.00000  Uiso   1.00
H257   H     0.13982   0.48040   0.53262   0.00000  Uiso   1.00
H258   H     0.17327   0.52963   0.55149   0.00000  Uiso   1.00
H259   H     0.17517   0.46189   0.53202   0.00000  Uiso   1.00
H260   H     0.21236   0.53094   0.54957   0.00000  Uiso   1.00
H261   H     0.21435   0.46307   0.53161   0.00000  Uiso   1.00
H262   H     0.05247   0.47652   0.56374   0.00000  Uiso   1.00
H263   H     0.52119   0.82891   0.05692   0.00000  Uiso   1.00
H264   H     0.45362   0.81926   0.03978   0.00000  Uiso   1.00
H265   H     0.52701   0.79031   0.05357   0.00000  Uiso   1.00
H266   H     0.45933   0.78073   0.03777   0.00000  Uiso   1.00
H267   H     0.45243   0.70789   0.56456   0.00000  Uiso   1.00
H268   H     0.47071   0.74883   0.65110   0.00000  Uiso   1.00
H269   H     0.44284   0.72130   0.66133   0.00000  Uiso   1.00
H270   H     0.43625   0.65416   0.62217   0.00000  Uiso   1.00
H271   H     0.41439   0.63000   0.65850   0.00000  Uiso   1.00
H272   H     0.38822   0.68410   0.71402   0.00000  Uiso   1.00
H273   H     0.41038   0.70807   0.67844   0.00000  Uiso   1.00
H274   H     0.41392   0.66217   0.75471   0.00000  Uiso   1.00
H275   H     0.49543   0.76791   0.61193   0.00000  Uiso   1.00
H276   H     0.47649   0.72741   0.52517   0.00000  Uiso   1.00
H277   H     0.58209   0.37282   0.91149   0.00000  Uiso   1.00
H278   H     0.55998   0.34946   0.94874   0.00000  Uiso   1.00
H279   H     0.58780   0.29432   0.89846   0.00000  Uiso   1.00
H280   H     0.61008   0.31758   0.86183   0.00000  Uiso   1.00
H281   H     0.55637   0.28040   0.91707   0.00000  Uiso   1.00
H282   H     0.54307   0.29890   0.01066   0.00000  Uiso   1.00
H283   H     0.53303   0.24997   0.93212   0.00000  Uiso   1.00
H284   H     0.52215   0.27829   0.05330   0.00000  Uiso   1.00
H285   H     0.51154   0.22966   0.97468   0.00000  Uiso   1.00
H286   H     0.58527   0.33847   0.81760   0.00000  Uiso   1.00
H287   H     0.97126   0.42573   0.51071   0.00000  Uiso   1.00
H288   H     0.97691   0.38717   0.50975   0.00000  Uiso   1.00
H289   H     0.01170   0.39119   0.60808   0.00000  Uiso   1.00
H290   H     0.00543   0.42998   0.60965   0.00000  Uiso   1.00
H291   H     0.96749   0.35584   0.53979   0.00000  Uiso   1.00
H292   H     0.02623   0.44899   0.56109   0.00000  Uiso   1.00
H293   H     0.29410   0.45486   0.06427   0.00000  Uiso   1.00
H294   H     0.25072   0.47092   0.14900   0.00000  Uiso   1.00
H295   H     0.27917   0.44438   0.16049   0.00000  Uiso   1.00
H296   H     0.34686   0.43715   0.12247   0.00000  Uiso   1.00
H297   H     0.37054   0.41483   0.15893   0.00000  Uiso   1.00
H298   H     0.31565   0.38972   0.21394   0.00000  Uiso   1.00
H299   H     0.29204   0.41219   0.17813   0.00000  Uiso   1.00
H300   H     0.33787   0.41443   0.25520   0.00000  Uiso   1.00
H301   H     0.23104   0.49460   0.10887   0.00000  Uiso   1.00
H302   H     0.27406   0.47795   0.02411   0.00000  Uiso   1.00
H303   H     0.62764   0.58243   0.41213   0.00000  Uiso   1.00
H304   H     0.65144   0.56067   0.44926   0.00000  Uiso   1.00
H305   H     0.70634   0.58880   0.39821   0.00000  Uiso   1.00
H306   H     0.68263   0.61066   0.36162   0.00000  Uiso   1.00
H307   H     0.72034   0.55712   0.41610   0.00000  Uiso   1.00
H308   H     0.70374   0.54591   0.51135   0.00000  Uiso   1.00
H309   H     0.74995   0.53211   0.42953   0.00000  Uiso   1.00
H310   H     0.72421   0.52419   0.55301   0.00000  Uiso   1.00
H311   H     0.77005   0.50984   0.47117   0.00000  Uiso   1.00
H312   H     0.66147   0.58513   0.31821   0.00000  Uiso   1.00
H313   H     0.94931   0.44684   0.56096   0.00000  Uiso   1.00
H314   H     0.62810   0.62764   0.16431   0.00000  Uiso   1.00
H315   H     0.62510   0.62523   0.40880   0.00000  Uiso   1.00
C511   C     0.56887   0.01538   0.06123   0.00000  Uiso   1.00
C512   C     0.58197   0.02472   0.08717   0.00000  Uiso   1.00
C513   C     0.60418   0.02263   0.08541   0.00000  Uiso   1.00
C514   C     0.61370   0.01086   0.05818   0.00000  Uiso   1.00
C515   C     0.60066   0.00148   0.03208   0.00000  Uiso   1.00
C516   C     0.57843   0.00396   0.03341   0.00000  Uiso   1.00
N41    N     0.63661   0.00992   0.05660   0.00000  Uiso   1.00
C517   C     0.64769   0.99456   0.04263   0.00000  Uiso   1.00
C518   C     0.67127   0.99560   0.04206   0.00000  Uiso   1.00
C519   C     0.68208   0.01499   0.04721   0.00000  Uiso   1.00
C520   C     0.68317   0.97702   0.03601   0.00000  Uiso   1.00
C521   C     0.70441   0.01575   0.04617   0.00000  Uiso   1.00
C522   C     0.71640   0.99711   0.04052   0.00000  Uiso   1.00
C523   C     0.70552   0.97771   0.03558   0.00000  Uiso   1.00
C524   C     0.53588   0.98132   0.06271   0.00000  Uiso   1.00
C525   C     0.52993   0.00291   0.06207   0.00000  Uiso   1.00
C526   C     0.54545   0.01938   0.06171   0.00000  Uiso   1.00
C527   C     0.98693   0.32698   0.54860   0.00000  Uiso   1.00
C528   C     0.00758   0.31851   0.55285   0.00000  Uiso   1.00
C529   C     0.96968   0.31309   0.54314   0.00000  Uiso   1.00
C530   C     0.01091   0.29648   0.55102   0.00000  Uiso   1.00
C531   C     0.99361   0.28255   0.54537   0.00000  Uiso   1.00
C532   C     0.97295   0.29110   0.54183   0.00000  Uiso   1.00
C533   C     0.96165   0.22103   0.07514   0.00000  Uiso   1.00
C534   C     0.95985   0.22683   0.11089   0.00000  Uiso   1.00
C535   C     0.97184   0.24410   0.12361   0.00000  Uiso   1.00
C536   C     0.94590   0.21483   0.13528   0.00000  Uiso   1.00
N42    N     0.93875   0.19611   0.12659   0.00000  Uiso   1.00
C537   C     0.92548   0.18274   0.14825   0.00000  Uiso   1.00
C538   C     0.92595   0.16072   0.14245   0.00000  Uiso   1.00
C539   C     0.91349   0.14703   0.16306   0.00000  Uiso   1.00
C540   C     0.90008   0.15524   0.18953   0.00000  Uiso   1.00
C541   C     0.89894   0.17740   0.19445   0.00000  Uiso   1.00
C542   C     0.91168   0.19107   0.17420   0.00000  Uiso   1.00
C543   C     0.88666   0.14060   0.21094   0.00000  Uiso   1.00
C544   C     0.88751   0.13995   0.24837   0.00000  Uiso   1.00
C545   C     0.90222   0.15226   0.26783   0.00000  Uiso   1.00
C546   C     0.98587   0.25504   0.10123   0.00000  Uiso   1.00
C547   C     0.98790   0.24910   0.06552   0.00000  Uiso   1.00
C548   C     0.97542   0.23215   0.05265   0.00000  Uiso   1.00
C549   C     0.09732   0.84692   0.38329   0.00000  Uiso   1.00
C550   C     0.08327   0.85569   0.40833   0.00000  Uiso   1.00
C551   C     0.07068   0.84243   0.42947   0.00000  Uiso   1.00
C552   C     0.07168   0.82026   0.42573   0.00000  Uiso   1.00
C553   C     0.08602   0.81140   0.40105   0.00000  Uiso   1.00
C554   C     0.09883   0.82466   0.38019   0.00000  Uiso   1.00
N43    N     0.05871   0.80732   0.44857   0.00000  Uiso   1.00
C555   C     0.05260   0.78791   0.44208   0.00000  Uiso   1.00
C556   C     0.03962   0.77600   0.46805   0.00000  Uiso   1.00
C557   C     0.03625   0.78383   0.50243   0.00000  Uiso   1.00
C558   C     0.03065   0.75633   0.45846   0.00000  Uiso   1.00
C559   C     0.02425   0.77211   0.52680   0.00000  Uiso   1.00
C560   C     0.01522   0.75244   0.51721   0.00000  Uiso   1.00
C561   C     0.01846   0.74472   0.48273   0.00000  Uiso   1.00
C562   C     0.09729   0.84813   0.30474   0.00000  Uiso   1.00
C563   C     0.11145   0.86087   0.32448   0.00000  Uiso   1.00
C564   C     0.11127   0.86108   0.36195   0.00000  Uiso   1.00
N44    N     0.00300   0.74020   0.54257   0.00000  Uiso   1.00
C565   C     0.48810   0.93073   0.06008   0.00000  Uiso   1.00
C566   C     0.48011   0.91833   0.03209   0.00000  Uiso   1.00
C567   C     0.48319   0.89631   0.03171   0.00000  Uiso   1.00
C568   C     0.49434   0.88627   0.05938   0.00000  Uiso   1.00
C569   C     0.50292   0.89870   0.08676   0.00000  Uiso   1.00
C570   C     0.49946   0.92074   0.08753   0.00000  Uiso   1.00
N45    N     0.49727   0.86357   0.06000   0.00000  Uiso   1.00
C571   C     0.48298   0.85015   0.04863   0.00000  Uiso   1.00
C572   C     0.52057   0.96525   0.06191   0.00000  Uiso   1.00
C573   C     0.49862   0.97006   0.06206   0.00000  Uiso   1.00
C574   C     0.48290   0.95380   0.06156   0.00000  Uiso   1.00
C575   C     0.78034   0.96340   0.57434   0.00000  Uiso   1.00
C576   C     0.77395   0.96119   0.60980   0.00000  Uiso   1.00
C577   C     0.75592   0.97238   0.62177   0.00000  Uiso   1.00
C578   C     0.78589   0.94745   0.63459   0.00000  Uiso   1.00
N46    N     0.80470   0.94021   0.62628   0.00000  Uiso   1.00
C579   C     0.81784   0.92688   0.64822   0.00000  Uiso   1.00
C580   C     0.84000   0.92702   0.64271   0.00000  Uiso   1.00
C581   C     0.85343   0.91433   0.66340   0.00000  Uiso   1.00
C582   C     0.84487   0.90105   0.68974   0.00000  Uiso   1.00
C583   C     0.82259   0.90031   0.69445   0.00000  Uiso   1.00
C584   C     0.80914   0.91323   0.67406   0.00000  Uiso   1.00
C585   C     0.85925   0.88728   0.71106   0.00000  Uiso   1.00
C586   C     0.85992   0.88795   0.74852   0.00000  Uiso   1.00
C587   C     0.84772   0.90263   0.76818   0.00000  Uiso   1.00
C588   C     0.74465   0.98581   0.59888   0.00000  Uiso   1.00
C589   C     0.75103   0.98806   0.56342   0.00000  Uiso   1.00
C590   C     0.76893   0.97662   0.55137   0.00000  Uiso   1.00
C591   C     0.15339   0.09774   0.88354   0.00000  Uiso   1.00
C592   C     0.14481   0.08375   0.90878   0.00000  Uiso   1.00
C593   C     0.15832   0.07139   0.92989   0.00000  Uiso   1.00
C594   C     0.18056   0.07260   0.92589   0.00000  Uiso   1.00
C595   C     0.18922   0.08689   0.90101   0.00000  Uiso   1.00
C596   C     0.17571   0.09945   0.88018   0.00000  Uiso   1.00
N47    N     0.19378   0.05982   0.94855   0.00000  Uiso   1.00
C597   C     0.21314   0.05361   0.94150   0.00000  Uiso   1.00
C598   C     0.22526   0.04061   0.96714   0.00000  Uiso   1.00
C599   C     0.21820   0.03815   0.00222   0.00000  Uiso   1.00
C600   C     0.24419   0.03048   0.95643   0.00000  Uiso   1.00
C601   C     0.22986   0.02572   0.02605   0.00000  Uiso   1.00
C602   C     0.24867   0.01534   0.01524   0.00000  Uiso   1.00
C603   C     0.25571   0.01784   0.98019   0.00000  Uiso   1.00
C604   C     0.15189   0.09710   0.80511   0.00000  Uiso   1.00
C605   C     0.13920   0.11140   0.82465   0.00000  Uiso   1.00
C606   C     0.13899   0.11139   0.86211   0.00000  Uiso   1.00
N48    N     0.26046   0.00211   0.03976   0.00000  Uiso   1.00
C607   C     0.46125   0.95937   0.06148   0.00000  Uiso   1.00
C608   C     0.49216   0.99177   0.06217   0.00000  Uiso   1.00
C609   C     0.12738   0.12696   0.69296   0.00000  Uiso   1.00
C610   C     0.12622   0.12598   0.76684   0.00000  Uiso   1.00
C611   C     0.12572   0.12560   0.80619   0.00000  Uiso   1.00
C612   C     0.12500   0.12505   0.88011   0.00000  Uiso   1.00
H316   H     0.57500   0.03393   0.10851   0.00000  Uiso   1.00
H317   H     0.61405   0.03026   0.10527   0.00000  Uiso   1.00
H318   H     0.60765   0.99292   0.01008   0.00000  Uiso   1.00
H319   H     0.56871   0.99724   0.01248   0.00000  Uiso   1.00
H320   H     0.63982   0.98040   0.03262   0.00000  Uiso   1.00
H321   H     0.67327   0.02963   0.05149   0.00000  Uiso   1.00
H322   H     0.67517   0.96189   0.03202   0.00000  Uiso   1.00
H323   H     0.71236   0.03094   0.04957   0.00000  Uiso   1.00
H324   H     0.71435   0.96307   0.03161   0.00000  Uiso   1.00
H325   H     0.55247   0.97652   0.06374   0.00000  Uiso   1.00
H326   H     0.02119   0.32891   0.55692   0.00000  Uiso   1.00
H327   H     0.95362   0.31926   0.53978   0.00000  Uiso   1.00
H328   H     0.02701   0.29031   0.55357   0.00000  Uiso   1.00
H329   H     0.95933   0.28073   0.53777   0.00000  Uiso   1.00
H330   H     0.95243   0.20789   0.06456   0.00000  Uiso   1.00
H331   H     0.97071   0.24883   0.15110   0.00000  Uiso   1.00
H332   H     0.94284   0.22130   0.16133   0.00000  Uiso   1.00
H333   H     0.93625   0.15416   0.12217   0.00000  Uiso   1.00
H334   H     0.91439   0.13000   0.15850   0.00000  Uiso   1.00
H335   H     0.88822   0.18410   0.21402   0.00000  Uiso   1.00
H336   H     0.91038   0.20807   0.17844   0.00000  Uiso   1.00
H337   H     0.91392   0.16217   0.25471   0.00000  Uiso   1.00
H338   H     0.99543   0.26791   0.11193   0.00000  Uiso   1.00
H339   H     0.97649   0.22741   0.02517   0.00000  Uiso   1.00
H340   H     0.08209   0.87282   0.41149   0.00000  Uiso   1.00
H341   H     0.05998   0.84946   0.44874   0.00000  Uiso   1.00
H342   H     0.08780   0.79432   0.39846   0.00000  Uiso   1.00
H343   H     0.11008   0.81758   0.36183   0.00000  Uiso   1.00
H344   H     0.05637   0.78040   0.41707   0.00000  Uiso   1.00
H345   H     0.04307   0.79890   0.51066   0.00000  Uiso   1.00
H346   H     0.03303   0.74997   0.43212   0.00000  Uiso   1.00
H347   H     0.02215   0.77829   0.55330   0.00000  Uiso   1.00
H348   H     0.01154   0.72966   0.47468   0.00000  Uiso   1.00
H349   H     0.08527   0.83847   0.31760   0.00000  Uiso   1.00
H350   H     0.47126   0.92573   0.01071   0.00000  Uiso   1.00
H351   H     0.47691   0.88717   0.00975   0.00000  Uiso   1.00
H352   H     0.51170   0.89119   0.10808   0.00000  Uiso   1.00
H353   H     0.50543   0.92998   0.10965   0.00000  Uiso   1.00
H354   H     0.46749   0.85584   0.03979   0.00000  Uiso   1.00
H355   H     0.52623   0.94899   0.06109   0.00000  Uiso   1.00
H356   H     0.79410   0.95486   0.56427   0.00000  Uiso   1.00
H357   H     0.75072   0.97092   0.64900   0.00000  Uiso   1.00
H358   H     0.77917   0.94438   0.66049   0.00000  Uiso   1.00
H359   H     0.84686   0.93715   0.62247   0.00000  Uiso   1.00
H360   H     0.87054   0.91483   0.65893   0.00000  Uiso   1.00
H361   H     0.81565   0.88972   0.71394   0.00000  Uiso   1.00
H362   H     0.79204   0.91219   0.67813   0.00000  Uiso   1.00
H363   H     0.83787   0.91443   0.75520   0.00000  Uiso   1.00
H364   H     0.73104   0.99460   0.60887   0.00000  Uiso   1.00
H365   H     0.77406   0.97795   0.52411   0.00000  Uiso   1.00
H366   H     0.12764   0.08243   0.91213   0.00000  Uiso   1.00
H367   H     0.15144   0.06067   0.94926   0.00000  Uiso   1.00
H368   H     0.20634   0.08880   0.89821   0.00000  Uiso   1.00
H369   H     0.18263   0.11066   0.86162   0.00000  Uiso   1.00
H370   H     0.22034   0.05712   0.91610   0.00000  Uiso   1.00
H371   H     0.20374   0.04591   0.01135   0.00000  Uiso   1.00
H372   H     0.24995   0.03211   0.92953   0.00000  Uiso   1.00
H373   H     0.22421   0.02419   0.05301   0.00000  Uiso   1.00
H374   H     0.27005   0.00984   0.97117   0.00000  Uiso   1.00
H375   H     0.16147   0.08513   0.81821   0.00000  Uiso   1.00
H376   H     0.44931   0.94684   0.06096   0.00000  Uiso   1.00
H377   H     0.12810   0.12764   0.66431   0.00000  Uiso   1.00
H378   H     0.12510   0.12523   0.90880   0.00000  Uiso   1.00
C613   C     0.93113   0.48462   0.56123   0.00000  Uiso   1.00
C614   C     0.91803   0.47528   0.58717   0.00000  Uiso   1.00
C615   C     0.89582   0.47737   0.58541   0.00000  Uiso   1.00
C616   C     0.88630   0.48914   0.55818   0.00000  Uiso   1.00
C617   C     0.89934   0.49852   0.53208   0.00000  Uiso   1.00
C618   C     0.92157   0.49604   0.53341   0.00000  Uiso   1.00
N49    N     0.86339   0.49008   0.55660   0.00000  Uiso   1.00
C619   C     0.85231   0.50544   0.54263   0.00000  Uiso   1.00
C620   C     0.82873   0.50440   0.54206   0.00000  Uiso   1.00
C621   C     0.81792   0.48501   0.54721   0.00000  Uiso   1.00
C622   C     0.81683   0.52298   0.53601   0.00000  Uiso   1.00
C623   C     0.79559   0.48425   0.54617   0.00000  Uiso   1.00
C624   C     0.78360   0.50289   0.54052   0.00000  Uiso   1.00
C625   C     0.79448   0.52229   0.53558   0.00000  Uiso   1.00
C626   C     0.96412   0.51868   0.56271   0.00000  Uiso   1.00
C627   C     0.97007   0.49709   0.56207   0.00000  Uiso   1.00
C628   C     0.95455   0.48062   0.56171   0.00000  Uiso   1.00
C629   C     0.51307   0.17302   0.04860   0.00000  Uiso   1.00
C630   C     0.49242   0.18149   0.05285   0.00000  Uiso   1.00
C631   C     0.53032   0.18691   0.04314   0.00000  Uiso   1.00
C632   C     0.48909   0.20352   0.05102   0.00000  Uiso   1.00
C633   C     0.50639   0.21745   0.04537   0.00000  Uiso   1.00
C634   C     0.52705   0.20890   0.04183   0.00000  Uiso   1.00
C635   C     0.53835   0.27897   0.57514   0.00000  Uiso   1.00
C636   C     0.54015   0.27317   0.61089   0.00000  Uiso   1.00
C637   C     0.52816   0.25590   0.62361   0.00000  Uiso   1.00
C638   C     0.55410   0.28517   0.63528   0.00000  Uiso   1.00
N50    N     0.56125   0.30389   0.62659   0.00000  Uiso   1.00
C639   C     0.57452   0.31726   0.64825   0.00000  Uiso   1.00
C640   C     0.57405   0.33928   0.64245   0.00000  Uiso   1.00
C641   C     0.58651   0.35297   0.66306   0.00000  Uiso   1.00
C642   C     0.59992   0.34476   0.68953   0.00000  Uiso   1.00
C643   C     0.60106   0.32260   0.69445   0.00000  Uiso   1.00
C644   C     0.58832   0.30893   0.67420   0.00000  Uiso   1.00
C645   C     0.61334   0.35940   0.71094   0.00000  Uiso   1.00
C646   C     0.61249   0.36005   0.74837   0.00000  Uiso   1.00
C647   C     0.59778   0.34774   0.76783   0.00000  Uiso   1.00
C648   C     0.51413   0.24496   0.60123   0.00000  Uiso   1.00
C649   C     0.51210   0.25090   0.56552   0.00000  Uiso   1.00
C650   C     0.52458   0.26785   0.55265   0.00000  Uiso   1.00
C651   C     0.40268   0.65308   0.88329   0.00000  Uiso   1.00
C652   C     0.41673   0.64431   0.90833   0.00000  Uiso   1.00
C653   C     0.42932   0.65757   0.92947   0.00000  Uiso   1.00
C654   C     0.42832   0.67974   0.92573   0.00000  Uiso   1.00
C655   C     0.41398   0.68860   0.90105   0.00000  Uiso   1.00
C656   C     0.40117   0.67534   0.88019   0.00000  Uiso   1.00
N51    N     0.44129   0.69268   0.94857   0.00000  Uiso   1.00
C657   C     0.44740   0.71209   0.94208   0.00000  Uiso   1.00
C658   C     0.46038   0.72400   0.96805   0.00000  Uiso   1.00
C659   C     0.46375   0.71617   0.00243   0.00000  Uiso   1.00
C660   C     0.46935   0.74367   0.95846   0.00000  Uiso   1.00
C661   C     0.47575   0.72789   0.02680   0.00000  Uiso   1.00
C662   C     0.48478   0.74756   0.01721   0.00000  Uiso   1.00
C663   C     0.48154   0.75528   0.98273   0.00000  Uiso   1.00
C664   C     0.40271   0.65187   0.80474   0.00000  Uiso   1.00
C665   C     0.38855   0.63913   0.82448   0.00000  Uiso   1.00
C666   C     0.38873   0.63892   0.86195   0.00000  Uiso   1.00
N52    N     0.49700   0.75980   0.04257   0.00000  Uiso   1.00
C667   C     0.01190   0.56927   0.56008   0.00000  Uiso   1.00
C668   C     0.01989   0.58167   0.53209   0.00000  Uiso   1.00
C669   C     0.01681   0.60369   0.53171   0.00000  Uiso   1.00
C670   C     0.00566   0.61373   0.55938   0.00000  Uiso   1.00
C671   C     0.99708   0.60130   0.58676   0.00000  Uiso   1.00
C672   C     0.00054   0.57926   0.58753   0.00000  Uiso   1.00
N53    N     0.00273   0.63643   0.56000   0.00000  Uiso   1.00
C673   C     0.01702   0.64985   0.54863   0.00000  Uiso   1.00
C674   C     0.97943   0.53475   0.56191   0.00000  Uiso   1.00
C675   C     0.00138   0.52994   0.56206   0.00000  Uiso   1.00
C676   C     0.01710   0.54620   0.56156   0.00000  Uiso   1.00
C677   C     0.71966   0.53660   0.07434   0.00000  Uiso   1.00
C678   C     0.72605   0.53881   0.10980   0.00000  Uiso   1.00
C679   C     0.74408   0.52762   0.12177   0.00000  Uiso   1.00
C680   C     0.71411   0.55255   0.13459   0.00000  Uiso   1.00
N54    N     0.69530   0.55979   0.12628   0.00000  Uiso   1.00
C681   C     0.68216   0.57312   0.14822   0.00000  Uiso   1.00
C682   C     0.66000   0.57298   0.14271   0.00000  Uiso   1.00
C683   C     0.64657   0.58567   0.16340   0.00000  Uiso   1.00
C684   C     0.65513   0.59895   0.18974   0.00000  Uiso   1.00
C685   C     0.67741   0.59969   0.19445   0.00000  Uiso   1.00
C686   C     0.69086   0.58677   0.17406   0.00000  Uiso   1.00
C687   C     0.64075   0.61272   0.21106   0.00000  Uiso   1.00
C688   C     0.64008   0.61205   0.24852   0.00000  Uiso   1.00
C689   C     0.65228   0.59737   0.26818   0.00000  Uiso   1.00
C690   C     0.75535   0.51419   0.09888   0.00000  Uiso   1.00
C691   C     0.74897   0.51194   0.06342   0.00000  Uiso   1.00
C692   C     0.73107   0.52338   0.05137   0.00000  Uiso   1.00
C693   C     0.34661   0.40226   0.38354   0.00000  Uiso   1.00
C694   C     0.35519   0.41625   0.40878   0.00000  Uiso   1.00
C695   C     0.34168   0.42861   0.42989   0.00000  Uiso   1.00
C696   C     0.31944   0.42740   0.42589   0.00000  Uiso   1.00
C697   C     0.31078   0.41311   0.40101   0.00000  Uiso   1.00
C698   C     0.32429   0.40055   0.38018   0.00000  Uiso   1.00
N55    N     0.30622   0.44018   0.44855   0.00000  Uiso   1.00
C699   C     0.28686   0.44639   0.44150   0.00000  Uiso   1.00
C700   C     0.27474   0.45939   0.46714   0.00000  Uiso   1.00
C701   C     0.28180   0.46185   0.50222   0.00000  Uiso   1.00
C702   C     0.25581   0.46952   0.45643   0.00000  Uiso   1.00
C703   C     0.27014   0.47428   0.52605   0.00000  Uiso   1.00
C704   C     0.25133   0.48466   0.51524   0.00000  Uiso   1.00
C705   C     0.24429   0.48216   0.48019   0.00000  Uiso   1.00
C706   C     0.34811   0.40290   0.30511   0.00000  Uiso   1.00
C707   C     0.36080   0.38860   0.32465   0.00000  Uiso   1.00
C708   C     0.36101   0.38861   0.36211   0.00000  Uiso   1.00
N56    N     0.23954   0.49789   0.53976   0.00000  Uiso   1.00
C709   C     0.03875   0.54063   0.56148   0.00000  Uiso   1.00
C710   C     0.00784   0.50823   0.56217   0.00000  Uiso   1.00
C711   C     0.37262   0.37304   0.19296   0.00000  Uiso   1.00
C712   C     0.37378   0.37402   0.26684   0.00000  Uiso   1.00
C713   C     0.37428   0.37440   0.30619   0.00000  Uiso   1.00
C714   C     0.37500   0.37495   0.38011   0.00000  Uiso   1.00
H379   H     0.92500   0.46607   0.60851   0.00000  Uiso   1.00
H380   H     0.88595   0.46974   0.60527   0.00000  Uiso   1.00
H381   H     0.89235   0.50708   0.51008   0.00000  Uiso   1.00
H382   H     0.93129   0.50276   0.51248   0.00000  Uiso   1.00
H383   H     0.86018   0.51960   0.53262   0.00000  Uiso   1.00
H384   H     0.82673   0.47037   0.55149   0.00000  Uiso   1.00
H385   H     0.82483   0.53811   0.53202   0.00000  Uiso   1.00
H386   H     0.78764   0.46906   0.54957   0.00000  Uiso   1.00
H387   H     0.78565   0.53693   0.53161   0.00000  Uiso   1.00
H388   H     0.94753   0.52348   0.56374   0.00000  Uiso   1.00
H389   H     0.47881   0.17109   0.05692   0.00000  Uiso   1.00
H390   H     0.54638   0.18074   0.03978   0.00000  Uiso   1.00
H391   H     0.47299   0.20969   0.05357   0.00000  Uiso   1.00
H392   H     0.54067   0.21927   0.03777   0.00000  Uiso   1.00
H393   H     0.54757   0.29211   0.56456   0.00000  Uiso   1.00
H394   H     0.52929   0.25117   0.65110   0.00000  Uiso   1.00
H395   H     0.55716   0.27870   0.66133   0.00000  Uiso   1.00
H396   H     0.56375   0.34584   0.62217   0.00000  Uiso   1.00
H397   H     0.58561   0.37000   0.65850   0.00000  Uiso   1.00
H398   H     0.61178   0.31590   0.71402   0.00000  Uiso   1.00
H399   H     0.58962   0.29193   0.67844   0.00000  Uiso   1.00
H400   H     0.58608   0.33783   0.75471   0.00000  Uiso   1.00
H401   H     0.50457   0.23209   0.61193   0.00000  Uiso   1.00
H402   H     0.52351   0.27259   0.52517   0.00000  Uiso   1.00
H403   H     0.41791   0.62718   0.91149   0.00000  Uiso   1.00
H404   H     0.44002   0.65054   0.94874   0.00000  Uiso   1.00
H405   H     0.41220   0.70568   0.89846   0.00000  Uiso   1.00
H406   H     0.38992   0.68242   0.86183   0.00000  Uiso   1.00
H407   H     0.44363   0.71960   0.91707   0.00000  Uiso   1.00
H408   H     0.45693   0.70110   0.01066   0.00000  Uiso   1.00
H409   H     0.46697   0.75003   0.93212   0.00000  Uiso   1.00
H410   H     0.47785   0.72171   0.05330   0.00000  Uiso   1.00
H411   H     0.48846   0.77034   0.97468   0.00000  Uiso   1.00
H412   H     0.41473   0.66153   0.81760   0.00000  Uiso   1.00
H413   H     0.02874   0.57427   0.51071   0.00000  Uiso   1.00
H414   H     0.02309   0.61283   0.50975   0.00000  Uiso   1.00
H415   H     0.98830   0.60881   0.60808   0.00000  Uiso   1.00
H416   H     0.99457   0.57002   0.60965   0.00000  Uiso   1.00
H417   H     0.03251   0.64416   0.53979   0.00000  Uiso   1.00
H418   H     0.97377   0.55101   0.56109   0.00000  Uiso   1.00
H419   H     0.70590   0.54514   0.06427   0.00000  Uiso   1.00
H420   H     0.74928   0.52908   0.14900   0.00000  Uiso   1.00
H421   H     0.72083   0.55562   0.16049   0.00000  Uiso   1.00
H422   H     0.65314   0.56285   0.12247   0.00000  Uiso   1.00
H423   H     0.62946   0.58517   0.15893   0.00000  Uiso   1.00
H424   H     0.68435   0.61028   0.21394   0.00000  Uiso   1.00
H425   H     0.70796   0.58781   0.17813   0.00000  Uiso   1.00
H426   H     0.66213   0.58557   0.25520   0.00000  Uiso   1.00
H427   H     0.76896   0.50540   0.10887   0.00000  Uiso   1.00
H428   H     0.72594   0.52205   0.02411   0.00000  Uiso   1.00
H429   H     0.37236   0.41757   0.41213   0.00000  Uiso   1.00
H430   H     0.34856   0.43933   0.44926   0.00000  Uiso   1.00
H431   H     0.29366   0.41120   0.39821   0.00000  Uiso   1.00
H432   H     0.31737   0.38934   0.36162   0.00000  Uiso   1.00
H433   H     0.27966   0.44288   0.41610   0.00000  Uiso   1.00
H434   H     0.29626   0.45409   0.51135   0.00000  Uiso   1.00
H435   H     0.25005   0.46789   0.42953   0.00000  Uiso   1.00
H436   H     0.27579   0.47581   0.55301   0.00000  Uiso   1.00
H437   H     0.22995   0.49016   0.47117   0.00000  Uiso   1.00
H438   H     0.33853   0.41487   0.31821   0.00000  Uiso   1.00
H439   H     0.05069   0.55316   0.56096   0.00000  Uiso   1.00
H440   H     0.37190   0.37236   0.16431   0.00000  Uiso   1.00
H441   H     0.37490   0.37477   0.40880   0.00000  Uiso   1.00
C715   C     0.43113   0.98462   0.06123   0.00000  Uiso   1.00
C716   C     0.41803   0.97528   0.08717   0.00000  Uiso   1.00
C717   C     0.39582   0.97737   0.08541   0.00000  Uiso   1.00
C718   C     0.38630   0.98914   0.05818   0.00000  Uiso   1.00
C719   C     0.39934   0.99852   0.03208   0.00000  Uiso   1.00
C720   C     0.42157   0.99604   0.03341   0.00000  Uiso   1.00
N57    N     0.36339   0.99008   0.05660   0.00000  Uiso   1.00
C721   C     0.35231   0.00544   0.04263   0.00000  Uiso   1.00
C722   C     0.32873   0.00440   0.04206   0.00000  Uiso   1.00
C723   C     0.31792   0.98501   0.04721   0.00000  Uiso   1.00
C724   C     0.31683   0.02298   0.03601   0.00000  Uiso   1.00
C725   C     0.29559   0.98425   0.04617   0.00000  Uiso   1.00
C726   C     0.28360   0.00289   0.04052   0.00000  Uiso   1.00
C727   C     0.29448   0.02229   0.03558   0.00000  Uiso   1.00
C728   C     0.46412   0.01868   0.06271   0.00000  Uiso   1.00
C729   C     0.47007   0.99709   0.06207   0.00000  Uiso   1.00
C730   C     0.45455   0.98062   0.06171   0.00000  Uiso   1.00
C731   C     0.01307   0.67302   0.54860   0.00000  Uiso   1.00
C732   C     0.99242   0.68149   0.55285   0.00000  Uiso   1.00
C733   C     0.03032   0.68691   0.54314   0.00000  Uiso   1.00
C734   C     0.98909   0.70352   0.55102   0.00000  Uiso   1.00
C735   C     0.00639   0.71745   0.54537   0.00000  Uiso   1.00
C736   C     0.02705   0.70890   0.54183   0.00000  Uiso   1.00
C737   C     0.03835   0.77897   0.07514   0.00000  Uiso   1.00
C738   C     0.04015   0.77317   0.11089   0.00000  Uiso   1.00
C739   C     0.02816   0.75590   0.12361   0.00000  Uiso   1.00
C740   C     0.05410   0.78517   0.13528   0.00000  Uiso   1.00
N58    N     0.06125   0.80389   0.12659   0.00000  Uiso   1.00
C741   C     0.07452   0.81726   0.14825   0.00000  Uiso   1.00
C742   C     0.07405   0.83928   0.14245   0.00000  Uiso   1.00
C743   C     0.08651   0.85297   0.16306   0.00000  Uiso   1.00
C744   C     0.09992   0.84476   0.18953   0.00000  Uiso   1.00
C745   C     0.10106   0.82260   0.19445   0.00000  Uiso   1.00
C746   C     0.08832   0.80893   0.17420   0.00000  Uiso   1.00
C747   C     0.11334   0.85940   0.21094   0.00000  Uiso   1.00
C748   C     0.11249   0.86005   0.24837   0.00000  Uiso   1.00
C749   C     0.09778   0.84774   0.26783   0.00000  Uiso   1.00
C750   C     0.01413   0.74496   0.10123   0.00000  Uiso   1.00
C751   C     0.01210   0.75090   0.06552   0.00000  Uiso   1.00
C752   C     0.02458   0.76785   0.05265   0.00000  Uiso   1.00
C753   C     0.90268   0.15308   0.38329   0.00000  Uiso   1.00
C754   C     0.91673   0.14431   0.40833   0.00000  Uiso   1.00
C755   C     0.92932   0.15757   0.42947   0.00000  Uiso   1.00
C756   C     0.92832   0.17974   0.42573   0.00000  Uiso   1.00
C757   C     0.91398   0.18860   0.40105   0.00000  Uiso   1.00
C758   C     0.90117   0.17534   0.38019   0.00000  Uiso   1.00
N59    N     0.94129   0.19268   0.44857   0.00000  Uiso   1.00
C759   C     0.94740   0.21209   0.44208   0.00000  Uiso   1.00
C760   C     0.96038   0.22400   0.46805   0.00000  Uiso   1.00
C761   C     0.96375   0.21617   0.50243   0.00000  Uiso   1.00
C762   C     0.96935   0.24367   0.45846   0.00000  Uiso   1.00
C763   C     0.97575   0.22789   0.52680   0.00000  Uiso   1.00
C764   C     0.98478   0.24756   0.51721   0.00000  Uiso   1.00
C765   C     0.98154   0.25528   0.48273   0.00000  Uiso   1.00
C766   C     0.90271   0.15187   0.30474   0.00000  Uiso   1.00
C767   C     0.88855   0.13913   0.32448   0.00000  Uiso   1.00
C768   C     0.88873   0.13892   0.36195   0.00000  Uiso   1.00
N60    N     0.99700   0.25980   0.54257   0.00000  Uiso   1.00
C769   C     0.51190   0.06927   0.06008   0.00000  Uiso   1.00
C770   C     0.51989   0.08167   0.03209   0.00000  Uiso   1.00
C771   C     0.51681   0.10369   0.03171   0.00000  Uiso   1.00
C772   C     0.50566   0.11373   0.05938   0.00000  Uiso   1.00
C773   C     0.49708   0.10130   0.08676   0.00000  Uiso   1.00
C774   C     0.50054   0.07926   0.08753   0.00000  Uiso   1.00
N61    N     0.50273   0.13643   0.06000   0.00000  Uiso   1.00
C775   C     0.51702   0.14985   0.04863   0.00000  Uiso   1.00
C776   C     0.47943   0.03475   0.06191   0.00000  Uiso   1.00
C777   C     0.50138   0.02994   0.06206   0.00000  Uiso   1.00
C778   C     0.51710   0.04620   0.06156   0.00000  Uiso   1.00
C779   C     0.21966   0.03660   0.57434   0.00000  Uiso   1.00
C780   C     0.22605   0.03881   0.60980   0.00000  Uiso   1.00
C781   C     0.24408   0.02762   0.62177   0.00000  Uiso   1.00
C782   C     0.21411   0.05255   0.63459   0.00000  Uiso   1.00
N62    N     0.19530   0.05979   0.62628   0.00000  Uiso   1.00
C783   C     0.18216   0.07312   0.64822   0.00000  Uiso   1.00
C784   C     0.16000   0.07298   0.64271   0.00000  Uiso   1.00
C785   C     0.14657   0.08567   0.66340   0.00000  Uiso   1.00
C786   C     0.15513   0.09895   0.68974   0.00000  Uiso   1.00
C787   C     0.17741   0.09969   0.69445   0.00000  Uiso   1.00
C788   C     0.19086   0.08677   0.67406   0.00000  Uiso   1.00
C789   C     0.14075   0.11272   0.71106   0.00000  Uiso   1.00
C790   C     0.14008   0.11205   0.74852   0.00000  Uiso   1.00
C791   C     0.15228   0.09737   0.76818   0.00000  Uiso   1.00
C792   C     0.25535   0.01419   0.59888   0.00000  Uiso   1.00
C793   C     0.24897   0.01194   0.56342   0.00000  Uiso   1.00
C794   C     0.23107   0.02338   0.55137   0.00000  Uiso   1.00
C795   C     0.84661   0.90226   0.88354   0.00000  Uiso   1.00
C796   C     0.85519   0.91625   0.90878   0.00000  Uiso   1.00
C797   C     0.84168   0.92861   0.92989   0.00000  Uiso   1.00
C798   C     0.81944   0.92740   0.92589   0.00000  Uiso   1.00
C799   C     0.81078   0.91311   0.90101   0.00000  Uiso   1.00
C800   C     0.82429   0.90055   0.88018   0.00000  Uiso   1.00
N63    N     0.80622   0.94018   0.94855   0.00000  Uiso   1.00
C801   C     0.78686   0.94639   0.94150   0.00000  Uiso   1.00
C802   C     0.77474   0.95939   0.96714   0.00000  Uiso   1.00
C803   C     0.78180   0.96185   0.00222   0.00000  Uiso   1.00
C804   C     0.75581   0.96952   0.95643   0.00000  Uiso   1.00
C805   C     0.77014   0.97428   0.02605   0.00000  Uiso   1.00
C806   C     0.75133   0.98466   0.01524   0.00000  Uiso   1.00
C807   C     0.74429   0.98216   0.98019   0.00000  Uiso   1.00
C808   C     0.84811   0.90290   0.80511   0.00000  Uiso   1.00
C809   C     0.86080   0.88860   0.82465   0.00000  Uiso   1.00
C810   C     0.86101   0.88861   0.86211   0.00000  Uiso   1.00
N64    N     0.73954   0.99789   0.03976   0.00000  Uiso   1.00
C811   C     0.53875   0.04063   0.06148   0.00000  Uiso   1.00
C812   C     0.50784   0.00823   0.06217   0.00000  Uiso   1.00
C813   C     0.87262   0.87304   0.69296   0.00000  Uiso   1.00
C814   C     0.87378   0.87402   0.76684   0.00000  Uiso   1.00
C815   C     0.87428   0.87440   0.80619   0.00000  Uiso   1.00
C816   C     0.87500   0.87495   0.88011   0.00000  Uiso   1.00
H442   H     0.42500   0.96607   0.10851   0.00000  Uiso   1.00
H443   H     0.38595   0.96974   0.10527   0.00000  Uiso   1.00
H444   H     0.39235   0.00708   0.01008   0.00000  Uiso   1.00
H445   H     0.43129   0.00276   0.01248   0.00000  Uiso   1.00
H446   H     0.36018   0.01960   0.03262   0.00000  Uiso   1.00
H447   H     0.32673   0.97037   0.05149   0.00000  Uiso   1.00
H448   H     0.32483   0.03811   0.03202   0.00000  Uiso   1.00
H449   H     0.28764   0.96906   0.04957   0.00000  Uiso   1.00
H450   H     0.28565   0.03693   0.03161   0.00000  Uiso   1.00
H451   H     0.44753   0.02348   0.06374   0.00000  Uiso   1.00
H452   H     0.97881   0.67109   0.55692   0.00000  Uiso   1.00
H453   H     0.04638   0.68074   0.53978   0.00000  Uiso   1.00
H454   H     0.97299   0.70969   0.55357   0.00000  Uiso   1.00
H455   H     0.04067   0.71927   0.53777   0.00000  Uiso   1.00
H456   H     0.04757   0.79211   0.06456   0.00000  Uiso   1.00
H457   H     0.02929   0.75117   0.15110   0.00000  Uiso   1.00
H458   H     0.05716   0.77870   0.16133   0.00000  Uiso   1.00
H459   H     0.06375   0.84584   0.12217   0.00000  Uiso   1.00
H460   H     0.08561   0.87000   0.15850   0.00000  Uiso   1.00
H461   H     0.11178   0.81590   0.21402   0.00000  Uiso   1.00
H462   H     0.08962   0.79193   0.17844   0.00000  Uiso   1.00
H463   H     0.08608   0.83783   0.25471   0.00000  Uiso   1.00
H464   H     0.00457   0.73209   0.11193   0.00000  Uiso   1.00
H465   H     0.02351   0.77259   0.02517   0.00000  Uiso   1.00
H466   H     0.91791   0.12718   0.41149   0.00000  Uiso   1.00
H467   H     0.94002   0.15054   0.44874   0.00000  Uiso   1.00
H468   H     0.91220   0.20568   0.39846   0.00000  Uiso   1.00
H469   H     0.88992   0.18242   0.36183   0.00000  Uiso   1.00
H470   H     0.94363   0.21960   0.41707   0.00000  Uiso   1.00
H471   H     0.95693   0.20110   0.51066   0.00000  Uiso   1.00
H472   H     0.96697   0.25003   0.43212   0.00000  Uiso   1.00
H473   H     0.97785   0.22171   0.55330   0.00000  Uiso   1.00
H474   H     0.98846   0.27034   0.47468   0.00000  Uiso   1.00
H475   H     0.91473   0.16153   0.31760   0.00000  Uiso   1.00
H476   H     0.52874   0.07427   0.01071   0.00000  Uiso   1.00
H477   H     0.52309   0.11283   0.00975   0.00000  Uiso   1.00
H478   H     0.48830   0.10881   0.10808   0.00000  Uiso   1.00
H479   H     0.49457   0.07002   0.10965   0.00000  Uiso   1.00
H480   H     0.53251   0.14416   0.03979   0.00000  Uiso   1.00
H481   H     0.47377   0.05101   0.06109   0.00000  Uiso   1.00
H482   H     0.20590   0.04514   0.56427   0.00000  Uiso   1.00
H483   H     0.24928   0.02908   0.64900   0.00000  Uiso   1.00
H484   H     0.22083   0.05562   0.66049   0.00000  Uiso   1.00
H485   H     0.15314   0.06285   0.62247   0.00000  Uiso   1.00
H486   H     0.12946   0.08517   0.65893   0.00000  Uiso   1.00
H487   H     0.18435   0.11028   0.71394   0.00000  Uiso   1.00
H488   H     0.20796   0.08781   0.67813   0.00000  Uiso   1.00
H489   H     0.16213   0.08557   0.75520   0.00000  Uiso   1.00
H490   H     0.26896   0.00540   0.60887   0.00000  Uiso   1.00
H491   H     0.22594   0.02205   0.52411   0.00000  Uiso   1.00
H492   H     0.87236   0.91757   0.91213   0.00000  Uiso   1.00
H493   H     0.84856   0.93933   0.94926   0.00000  Uiso   1.00
H494   H     0.79366   0.91120   0.89821   0.00000  Uiso   1.00
H495   H     0.81737   0.88934   0.86162   0.00000  Uiso   1.00
H496   H     0.77966   0.94288   0.91610   0.00000  Uiso   1.00
H497   H     0.79626   0.95409   0.01135   0.00000  Uiso   1.00
H498   H     0.75005   0.96789   0.92953   0.00000  Uiso   1.00
H499   H     0.77579   0.97581   0.05301   0.00000  Uiso   1.00
H500   H     0.72995   0.99016   0.97117   0.00000  Uiso   1.00
H501   H     0.83853   0.91487   0.81821   0.00000  Uiso   1.00
H502   H     0.55069   0.05316   0.06096   0.00000  Uiso   1.00
H503   H     0.87190   0.87236   0.66431   0.00000  Uiso   1.00
H504   H     0.87490   0.87477   0.90880   0.00000  Uiso   1.00
loop_
_geom_bond_atom_site_label_1
_geom_bond_atom_site_label_2
_geom_bond_distance
_geom_bond_site_symmetry_2
_ccdc_geom_bond_type
C1     C16     1.485   .     S
C1     C6      1.406   .     S
C1     C2      1.405   .     D
C2     H1      1.084   .     S
C2     C3      1.396   .     S
C3     H2      1.083   .     S
C3     C4      1.399   .     D
C4     C5      1.408   .     S
C4     N1      1.434   .     S
C5     C6      1.399   .     D
C5     H3      1.082   1_565 S
C6     H4      1.083   1_565 S
N1     C7      1.299   1_565 D
C7     H5      1.084   .     S
C7     C8      1.475   .     S
C7     N1      1.299   1_545 D
C8     C10     1.402   .     D
C8     C9      1.405   1_545 S
C9     C11     1.397   .     D
C9     H6      1.083   .     S
C9     C8      1.405   1_565 S
C10    C13     1.398   .     S
C10    H7      1.084   .     S
C11    H8      1.083   .     S
C11    C12     1.405   1_565 S
C12    C13     1.407   .     D
C12    N24     1.447   .     S
C12    C11     1.405   1_545 S
C13    H9      1.082   .     S
C14    H10     1.080   .     S
C14    C62     1.390   .     D
C14    C15     1.405   1_545 S
C15    C302    1.420   .     S
C15    C16     1.417   .     D
C15    C14     1.405   1_565 S
C16    C301    1.398   .     S
C17    C163    1.475   .     S
C17    C19     1.402   .     D
C17    C18     1.405   1_655 S
C18    C20     1.400   .     D
C18    H11     1.083   .     S
C18    C17     1.405   1_455 S
C19    H12     1.083   .     S
C19    C22     1.396   .     S
C20    H13     1.082   .     S
C20    C21     1.407   1_455 S
C21    C22     1.405   .     D
C21    N20     1.447   .     S
C21    C20     1.407   1_655 S
C22    H14     1.082   .     S
C23    H15     1.082   .     S
C23    C38     1.396   .     D
C23    C24     1.404   .     S
C24    C26     1.475   .     S
C24    C25     1.403   .     D
C25    H16     1.083   .     S
C25    C36     1.398   .     S
C26    N2      1.299   .     D
C26    H17     1.082   .     S
N2     C27     1.436   .     S
C27    C28     1.399   .     S
C27    C32     1.407   .     D
C28    H18     1.082   .     S
C28    C29     1.397   .     D
C29    H19     1.084   .     S
C29    C30     1.403   .     S
C30    C31     1.405   .     D
C30    C33     1.484   .     S
C31    C32     1.398   .     S
C31    H20     1.083   .     S
C32    H21     1.082   .     S
C33    C34     1.416   .     D
C33    C813    1.402   .     S
C34    C35     1.408   .     S
C34    C814    1.411   .     S
C35    H22     1.080   .     S
C35    C256    1.395   .     D
C36    C37     1.406   .     D
C36    H23     1.083   .     S
C37    C38     1.406   .     S
C37    N44     1.447   1_655 S
C38    H24     1.082   .     S
C39    C44     1.405   .     S
C39    C54     1.483   .     S
C39    C40     1.403   .     D
C40    C41     1.396   .     S
C40    H25     1.084   .     S
C41    C42     1.400   .     D
C41    H26     1.083   .     S
C42    C43     1.408   .     S
C42    N3      1.436   .     S
C43    H27     1.082   .     S
C43    C44     1.398   .     D
C44    H28     1.083   .     S
N3     C45     1.300   .     D
C45    C46     1.476   .     S
C45    H29     1.082   .     S
C46    C48     1.403   .     S
C46    C47     1.405   1_556 D
C47    H30     1.083   .     S
C47    C49     1.397   .     S
C47    C46     1.405   1_554 D
C48    C51     1.397   .     D
C48    H31     1.083   .     S
C49    C50     1.405   .     D
C49    H32     1.082   .     S
C50    N4      1.446   .     S
C50    C51     1.405   1_554 S
C51    H33     1.083   .     S
C51    C50     1.405   1_556 S
C52    H34     1.081   .     S
C52    C53     1.407   .     S
C52    C239    1.395   .     D
C53    C611    1.412   .     S
C53    C54     1.416   .     D
C54    C612    1.402   .     S
N4     C225    1.447   .     S
N4     C547    1.447   1_455 S
C55    C56     1.405   .     S
C55    C64     1.485   .     S
C55    C60     1.405   .     D
C56    C57     1.395   .     D
C56    H35     1.084   .     S
C57    C58     1.406   .     S
C57    H36     1.082   .     S
C58    N5      1.436   .     S
C58    C59     1.402   .     D
C59    H37     1.083   .     S
C59    C60     1.400   .     S
C60    H38     1.084   .     S
N5     C61     1.301   .     D
C61    H39     1.085   .     S
C61    C119    1.475   .     S
C62    H40     1.080   .     S
C62    C63     1.405   .     S
C63    C64     1.417   .     D
C63    C98     1.421   .     S
C64    C97     1.398   .     S
C65    H41     1.082   .     S
C65    C80     1.396   .     D
C65    C66     1.405   .     S
C66    C68     1.476   .     S
C66    C67     1.403   .     D
C67    C78     1.398   .     S
C67    H42     1.083   .     S
C68    N6      1.299   .     D
C68    H43     1.082   .     S
N6     C69     1.436   .     S
C69    C70     1.401   .     D
C69    C74     1.408   .     S
C70    C71     1.396   .     S
C70    H44     1.083   .     S
C71    H45     1.083   .     S
C71    C72     1.404   .     D
C72    C73     1.405   .     S
C72    C75     1.484   .     S
C73    H46     1.083   .     S
C73    C74     1.399   .     D
C74    H47     1.082   .     S
C75    C303    1.402   .     D
C75    C76     1.417   .     S
C76    C77     1.408   .     D
C76    C304    1.412   .     S
C77    H48     1.081   .     S
C77    C298    1.396   .     S
C78    H49     1.082   .     S
C78    C79     1.405   .     D
C79    C80     1.405   .     S
C79    N64     1.447   1_545 S
C80    H50     1.082   .     S
C81    C86     1.405   .     S
C81    C82     1.403   .     D
C81    C96     1.483   .     S
C82    H51     1.084   .     S
C82    C83     1.397   .     S
C83    C84     1.400   .     D
C83    H52     1.083   .     S
C84    N7      1.435   .     S
C84    C85     1.407   .     S
C85    H53     1.082   .     S
C85    C86     1.398   .     D
C86    H54     1.083   .     S
N7     C87     1.299   .     D
C87    C88     1.476   .     S
C87    H55     1.083   .     S
C88    C90     1.403   .     S
C88    C89     1.406   .     D
C89    H56     1.083   .     S
C89    C91     1.397   .     S
C90    H57     1.083   .     S
C90    C93     1.398   .     D
C91    H58     1.083   .     S
C91    C92     1.405   .     D
C92    C93     1.404   .     S
C92    N8      1.446   .     S
C93    H59     1.082   .     S
C94    C95     1.407   .     S
C94    H60     1.081   .     S
C94    C281    1.396   .     D
C95    C101    1.411   .     S
C95    C96     1.416   .     D
C96    C102    1.401   .     S
N8     C216    1.447   .     S
N8     C793    1.447   1_565 S
C97    H61     1.084   .     S
C97    C220    1.398   .     D
C98    C219    1.420   .     S
C98    C302    1.424   1_545 D
C99    C747    1.402   .     D
C99    C279    1.402   .     S
C99    H62     1.084   .     S
C100   C748    1.411   .     D
C100   C280    1.412   .     S
C100   C101    1.488   .     S
C101   C563    1.412   .     D
C102   H63     1.084   .     S
C102   C564    1.402   .     D
H3     C5      1.082   1_545 S
H4     C6      1.083   1_545 S
C103   C118    1.485   .     S
C103   C104    1.405   .     S
C103   C108    1.406   .     D
C104   C105    1.396   .     D
C104   H64     1.084   .     S
C105   C106    1.399   .     S
C105   H65     1.083   .     S
C106   N9      1.434   .     S
C106   C107    1.408   .     D
C107   H66     1.082   .     S
C107   C108    1.399   .     S
C108   H67     1.083   .     S
N9     C109    1.299   .     D
C109   C110    1.475   .     S
C109   H68     1.084   .     S
C110   C112    1.402   .     S
C110   C111    1.405   .     D
C111   H69     1.083   .     S
C111   C113    1.397   .     S
C112   C115    1.398   .     D
C112   H70     1.084   .     S
C113   C114    1.405   .     D
C113   H71     1.083   .     S
C114   N32     1.447   .     S
C114   C115    1.407   .     S
C115   H72     1.082   .     S
C116   H73     1.080   .     S
C116   C164    1.390   .     D
C116   C117    1.405   .     S
C117   C118    1.417   .     D
C117   C404    1.420   .     S
C118   C403    1.398   .     S
C119   C120    1.405   .     S
C119   C121    1.402   .     D
C120   H74     1.083   .     S
C120   C122    1.400   .     D
C121   H75     1.083   .     S
C121   C124    1.396   .     S
C122   H76     1.082   .     S
C122   C123    1.407   .     S
C123   C124    1.405   .     D
C123   N28     1.447   .     S
C124   H77     1.082   .     S
C125   C140    1.396   .     D
C125   H78     1.082   .     S
C125   C126    1.404   .     S
C126   C127    1.403   .     D
C126   C128    1.475   .     S
C127   C138    1.398   .     S
C127   H79     1.083   .     S
C128   N10     1.299   .     D
C128   H80     1.082   .     S
N10    C129    1.436   .     S
C129   C130    1.399   .     D
C129   C134    1.407   .     S
C130   C131    1.397   .     S
C130   H81     1.082   .     S
C131   H82     1.084   .     S
C131   C132    1.403   .     D
C132   C135    1.484   .     S
C132   C133    1.405   .     S
C133   H83     1.083   .     S
C133   C134    1.398   .     D
C134   H84     1.082   .     S
C135   C711    1.402   .     D
C135   C136    1.416   .     S
C136   C137    1.408   .     D
C136   C712    1.411   .     S
C137   H85     1.080   .     S
C137   C358    1.395   .     S
C138   H86     1.083   .     S
C138   C139    1.406   .     D
C139   C140    1.406   .     S
C139   N36     1.447   .     S
C140   H87     1.082   .     S
C141   C146    1.405   .     S
C141   C142    1.403   .     D
C141   C156    1.483   .     S
C142   H88     1.084   .     S
C142   C143    1.396   .     S
C143   H89     1.083   .     S
C143   C144    1.400   .     D
C144   N11     1.436   .     S
C144   C145    1.408   .     S
C145   H90     1.082   .     S
C145   C146    1.398   .     D
C146   H91     1.083   .     S
N11    C147    1.300   .     D
C147   C148    1.476   .     S
C147   H92     1.082   .     S
C148   C150    1.403   .     S
C148   C149    1.405   .     D
C149   H93     1.083   .     S
C149   C151    1.397   .     S
C150   H94     1.083   .     S
C150   C153    1.397   .     D
C151   H95     1.082   .     S
C151   C152    1.405   .     D
C152   N12     1.446   .     S
C152   C153    1.405   .     S
C153   H96     1.083   .     S
C154   H97     1.081   .     S
C154   C155    1.407   .     S
C154   C341    1.395   .     D
C155   C509    1.412   .     S
C155   C156    1.416   .     D
C156   C510    1.402   .     S
N12    C327    1.447   .     S
N12    C445    1.447   .     S
C157   C162    1.405   .     S
C157   C166    1.485   .     S
C157   C158    1.405   .     D
C158   H98     1.084   .     S
C158   C159    1.395   .     S
C159   H99     1.082   .     S
C159   C160    1.406   .     D
C160   N13     1.436   .     S
C160   C161    1.402   1_655 S
C161   H100    1.083   .     S
C161   C160    1.402   1_455 S
C161   C162    1.400   1_455 D
C162   C161    1.400   1_655 D
C162   H101    1.084   1_655 S
N13    C163    1.301   .     D
C163   H102    1.085   .     S
C164   H103    1.080   .     S
C164   C165    1.405   1_455 S
C165   C200    1.421   .     S
C165   C166    1.417   .     D
C165   C164    1.405   1_655 S
C166   C199    1.398   .     S
C167   H104    1.082   .     S
C167   C182    1.396   .     D
C167   C168    1.405   .     S
C168   C170    1.476   .     S
C168   C169    1.403   .     D
C169   H105    1.083   .     S
C169   C180    1.398   .     S
C170   N14     1.299   .     D
C170   H106    1.082   .     S
N14    C171    1.436   .     S
C171   C172    1.401   .     D
C171   C176    1.408   .     S
C172   H107    1.083   .     S
C172   C173    1.396   .     S
C173   H108    1.083   .     S
C173   C174    1.404   .     D
C174   C175    1.405   .     S
C174   C177    1.484   .     S
C175   C176    1.399   .     D
C175   H109    1.083   .     S
C176   H110    1.082   .     S
C177   C178    1.417   .     D
C177   C405    1.402   .     S
C178   C406    1.412   .     S
C178   C179    1.408   .     S
C179   H111    1.081   .     S
C179   C400    1.396   .     D
C180   C181    1.405   .     D
C180   H112    1.082   .     S
C181   C182    1.405   .     S
C181   N56     1.447   .     S
C182   H113    1.082   .     S
C183   C188    1.405   .     S
C183   C198    1.483   .     S
C183   C184    1.403   .     D
C184   H114    1.084   .     S
C184   C185    1.397   .     S
C185   C186    1.400   .     D
C185   H115    1.083   .     S
C186   C187    1.407   .     S
C186   N15     1.435   .     S
C187   H116    1.082   .     S
C187   C188    1.398   .     D
C188   H117    1.083   .     S
N15    C189    1.299   .     D
C189   C190    1.476   .     S
C189   H118    1.083   .     S
C190   C192    1.403   .     S
C190   C191    1.406   1_556 D
C191   C193    1.397   .     S
C191   H119    1.083   .     S
C191   C190    1.406   1_554 D
C192   C195    1.398   .     D
C192   H120    1.083   .     S
C193   C194    1.405   .     D
C193   H121    1.083   .     S
C194   N16     1.446   .     S
C194   C195    1.404   1_554 S
C195   H122    1.082   .     S
C195   C194    1.404   1_556 S
C196   H123    1.081   .     S
C196   C197    1.407   .     S
C196   C383    1.396   .     D
C197   C203    1.411   .     S
C197   C198    1.416   .     D
C198   C204    1.401   .     S
N16    C318    1.447   .     S
N16    C691    1.447   .     S
C199   H124    1.084   .     S
C199   C322    1.398   .     D
C200   C321    1.420   .     S
C200   C404    1.424   1_655 D
C201   H125    1.084   .     S
C201   C381    1.402   .     D
C201   C645    1.402   .     S
C202   C382    1.412   .     D
C202   C646    1.411   .     S
C202   C203    1.488   .     S
C203   C461    1.412   .     D
C204   C462    1.402   .     D
C204   H126    1.084   .     S
H101   C162    1.084   1_455 S
C205   C210    1.406   .     D
C205   C220    1.485   .     S
C205   C206    1.405   .     S
C206   C207    1.396   .     D
C206   H127    1.084   .     S
C207   H128    1.083   .     S
C207   C208    1.399   .     S
C208   N17     1.434   .     S
C208   C209    1.408   .     D
C209   C210    1.399   .     S
C209   H129    1.082   1_545 S
C210   H130    1.083   1_545 S
N17    C211    1.299   1_545 D
C211   C212    1.475   .     S
C211   H131    1.084   .     S
C211   N17     1.299   1_565 D
C212   C214    1.402   .     D
C212   C213    1.405   1_565 S
C213   C215    1.397   .     D
C213   H132    1.083   .     S
C213   C212    1.405   1_545 S
C214   H133    1.084   .     S
C214   C217    1.398   .     S
C215   H134    1.083   .     S
C215   C216    1.405   1_545 S
C216   C217    1.407   .     D
C216   C215    1.405   1_565 S
C217   H135    1.082   .     S
C218   H136    1.080   .     S
C218   C266    1.390   .     S
C218   C219    1.405   1_565 D
C219   C220    1.417   .     S
C219   C218    1.405   1_545 D
C221   C367    1.475   .     S
C221   C223    1.402   .     D
C221   C222    1.405   1_455 S
C222   H137    1.083   .     S
C222   C224    1.400   .     D
C222   C221    1.405   1_655 S
C223   H138    1.083   .     S
C223   C226    1.396   .     S
C224   H139    1.082   .     S
C224   C225    1.407   1_655 S
C225   C226    1.405   .     D
C225   C224    1.407   1_455 S
C226   H140    1.082   .     S
C227   H141    1.082   .     S
C227   C242    1.396   .     D
C227   C228    1.404   .     S
C228   C229    1.403   .     D
C228   C230    1.475   .     S
C229   H142    1.083   .     S
C229   C240    1.398   .     S
C230   N18     1.299   .     D
C230   H143    1.082   .     S
N18    C231    1.436   .     S
C231   C232    1.399   .     D
C231   C236    1.407   .     S
C232   H144    1.082   .     S
C232   C233    1.397   .     S
C233   C234    1.403   .     D
C233   H145    1.084   .     S
C234   C235    1.405   .     S
C234   C237    1.484   .     S
C235   C236    1.398   .     D
C235   H146    1.083   .     S
C236   H147    1.082   .     S
C237   C238    1.416   .     D
C237   C609    1.402   .     S
C238   C239    1.408   .     S
C238   C610    1.411   .     S
C239   H148    1.080   .     S
C240   C241    1.406   .     D
C240   H149    1.083   .     S
C241   C242    1.406   .     S
C241   N60     1.447   1_455 S
C242   H150    1.082   .     S
C243   C258    1.483   .     S
C243   C248    1.405   .     D
C243   C244    1.403   .     S
C244   H151    1.084   .     S
C244   C245    1.396   .     D
C245   C246    1.400   .     S
C245   H152    1.083   .     S
C246   C247    1.408   .     D
C246   N19     1.436   .     S
C247   H153    1.082   .     S
C247   C248    1.398   .     S
C248   H154    1.083   .     S
N19    C249    1.300   .     D
C249   C250    1.476   .     S
C249   H155    1.082   .     S
C250   C252    1.403   .     D
C250   C251    1.405   1_556 S
C251   C253    1.397   .     D
C251   H156    1.083   .     S
C251   C250    1.405   1_554 S
C252   C255    1.397   .     S
C252   H157    1.083   .     S
C253   C254    1.405   .     S
C253   H158    1.082   .     S
C254   N20     1.446   .     S
C254   C255    1.405   1_554 D
C255   H159    1.083   .     S
C255   C254    1.405   1_556 D
C256   C257    1.407   .     S
C256   H160    1.081   .     S
C257   C815    1.412   .     S
C257   C258    1.416   .     D
C258   C816    1.402   .     S
N20    C751    1.447   1_655 S
C259   C260    1.405   .     D
C259   C268    1.485   .     S
C259   C264    1.405   .     S
C260   C261    1.395   .     S
C260   H161    1.084   .     S
C261   C262    1.406   .     D
C261   H162    1.082   .     S
C262   N21     1.436   .     S
C262   C263    1.402   .     S
C263   H163    1.083   .     S
C263   C264    1.400   .     D
C264   H164    1.084   .     S
N21    C265    1.301   .     D
C265   H165    1.085   .     S
C265   C323    1.475   .     S
C266   C267    1.405   .     D
C266   H166    1.080   .     S
C267   C302    1.421   .     S
C267   C268    1.417   .     S
C268   C301    1.398   .     D
C269   C284    1.396   .     S
C269   H167    1.082   .     S
C269   C270    1.405   .     D
C270   C271    1.403   .     S
C270   C272    1.476   .     S
C271   C282    1.398   .     D
C271   H168    1.083   .     S
C272   N22     1.299   .     D
C272   H169    1.082   .     S
N22    C273    1.436   .     S
C273   C278    1.408   .     S
C273   C274    1.401   .     D
C274   C275    1.396   .     S
C274   H170    1.083   .     S
C275   H171    1.083   .     S
C275   C276    1.404   .     D
C276   C279    1.484   .     S
C276   C277    1.405   .     S
C277   H172    1.083   .     S
C277   C278    1.399   .     D
C278   H173    1.082   .     S
C279   C280    1.417   .     D
C280   C281    1.408   .     S
C281   H174    1.081   .     S
C282   H175    1.082   .     S
C282   C283    1.405   .     S
C283   C284    1.405   .     D
C283   N48     1.447   1_565 S
C284   H176    1.082   .     S
C285   C290    1.405   .     S
C285   C286    1.403   .     D
C285   C300    1.483   .     S
C286   H177    1.084   .     S
C286   C287    1.397   .     S
C287   H178    1.083   .     S
C287   C288    1.400   .     D
C288   N23     1.435   .     S
C288   C289    1.407   .     S
C289   H179    1.082   .     S
C289   C290    1.398   .     D
C290   H180    1.083   .     S
N23    C291    1.299   .     D
C291   C292    1.476   .     S
C291   H181    1.083   .     S
C292   C294    1.403   .     S
C292   C293    1.406   .     D
C293   H182    1.083   .     S
C293   C295    1.397   .     S
C294   H183    1.083   .     S
C294   C297    1.398   .     D
C295   H184    1.083   .     S
C295   C296    1.405   .     D
C296   C297    1.404   .     S
C296   N24     1.446   .     S
C297   H185    1.082   .     S
C298   H186    1.081   .     S
C298   C299    1.407   .     D
C299   C305    1.411   .     S
C299   C300    1.416   .     S
C300   C306    1.401   .     D
N24    C589    1.447   1_545 S
C301   H187    1.084   .     S
C302   C98     1.424   1_565 D
C303   C543    1.402   .     S
C303   H188    1.084   .     S
C304   C544    1.411   .     S
C304   C305    1.488   .     D
C305   C767    1.412   .     S
C306   H189    1.084   .     S
C306   C768    1.402   .     S
H129   C209    1.082   1_565 S
H130   C210    1.083   1_565 S
C307   C308    1.405   .     D
C307   C322    1.485   .     S
C307   C312    1.406   .     S
C308   C309    1.396   .     S
C308   H190    1.084   .     S
C309   C310    1.399   .     D
C309   H191    1.083   .     S
C310   N25     1.434   .     S
C310   C311    1.408   .     S
C311   H192    1.082   .     S
C311   C312    1.399   .     D
C312   H193    1.083   .     S
N25    C313    1.299   .     D
C313   H194    1.084   .     S
C313   C314    1.475   .     S
C314   C316    1.402   .     D
C314   C315    1.405   .     S
C315   H195    1.083   .     S
C315   C317    1.397   .     D
C316   C319    1.398   .     S
C316   H196    1.084   .     S
C317   C318    1.405   .     S
C317   H197    1.083   .     S
C318   C319    1.407   .     D
C319   H198    1.082   .     S
C320   C321    1.405   .     D
C320   C368    1.390   .     S
C320   H199    1.080   .     S
C321   C322    1.417   .     S
C323   C324    1.405   .     D
C323   C325    1.402   .     S
C324   H200    1.083   .     S
C324   C326    1.400   .     S
C325   C328    1.396   .     D
C325   H201    1.083   .     S
C326   H202    1.082   .     S
C326   C327    1.407   .     D
C327   C328    1.405   .     S
C328   H203    1.082   .     S
C329   C344    1.396   .     D
C329   H204    1.082   .     S
C329   C330    1.404   .     S
C330   C332    1.475   .     S
C330   C331    1.403   .     D
C331   C342    1.398   .     S
C331   H205    1.083   .     S
C332   N26     1.299   .     D
C332   H206    1.082   .     S
N26    C333    1.436   .     S
C333   C338    1.407   .     D
C333   C334    1.399   .     S
C334   C335    1.397   .     D
C334   H207    1.082   .     S
C335   H208    1.084   .     S
C335   C336    1.403   .     S
C336   C337    1.405   .     D
C336   C339    1.484   .     S
C337   H209    1.083   .     S
C337   C338    1.398   .     S
C338   H210    1.082   .     S
C339   C507    1.402   .     S
C339   C340    1.416   .     D
C340   C508    1.411   .     S
C340   C341    1.408   .     S
C341   H211    1.080   .     S
C342   H212    1.083   .     S
C342   C343    1.406   .     D
C343   C344    1.406   .     S
C343   N52     1.447   .     S
C344   H213    1.082   .     S
C345   C346    1.403   .     D
C345   C350    1.405   .     S
C345   C360    1.483   .     S
C346   H214    1.084   .     S
C346   C347    1.396   .     S
C347   H215    1.083   .     S
C347   C348    1.400   .     D
C348   N27     1.436   .     S
C348   C349    1.408   .     S
C349   C350    1.398   .     D
C349   H216    1.082   .     S
C350   H217    1.083   .     S
N27    C351    1.300   .     D
C351   C352    1.476   .     S
C351   H218    1.082   .     S
C352   C354    1.403   .     S
C352   C353    1.405   .     D
C353   H219    1.083   .     S
C353   C355    1.397   .     S
C354   H220    1.083   .     S
C354   C357    1.397   .     D
C355   H221    1.082   .     S
C355   C356    1.405   .     D
C356   N28     1.446   .     S
C356   C357    1.405   .     S
C357   H222    1.083   .     S
C358   C359    1.407   .     D
C358   H223    1.081   .     S
C359   C713    1.412   .     S
C359   C360    1.416   .     S
C360   C714    1.402   .     D
N28    C649    1.447   .     S
C361   C370    1.485   .     S
C361   C366    1.405   .     D
C361   C362    1.405   .     S
C362   C363    1.395   .     D
C362   H224    1.084   .     S
C363   H225    1.082   .     S
C363   C364    1.406   .     S
C364   N29     1.436   .     S
C364   C365    1.402   1_455 D
C365   H226    1.083   .     S
C365   C364    1.402   1_655 D
C365   C366    1.400   1_655 S
C366   C365    1.400   1_455 S
C366   H227    1.084   1_455 S
N29    C367    1.301   .     D
C367   H228    1.085   .     S
C368   H229    1.080   .     S
C368   C369    1.405   1_655 D
C369   C370    1.417   .     S
C369   C404    1.421   .     S
C369   C368    1.405   1_455 D
C370   C403    1.398   .     D
C371   H230    1.082   .     S
C371   C386    1.396   .     D
C371   C372    1.405   .     S
C372   C373    1.403   .     D
C372   C374    1.476   .     S
C373   H231    1.083   .     S
C373   C384    1.398   .     S
C374   N30     1.299   .     D
C374   H232    1.082   .     S
N30    C375    1.436   .     S
C375   C376    1.401   .     D
C375   C380    1.408   .     S
C376   H233    1.083   .     S
C376   C377    1.396   .     S
C377   H234    1.083   .     S
C377   C378    1.404   .     D
C378   C379    1.405   .     S
C378   C381    1.484   .     S
C379   C380    1.399   .     D
C379   H235    1.083   .     S
C380   H236    1.082   .     S
C381   C382    1.417   .     S
C382   C383    1.408   .     S
C383   H237    1.081   .     S
C384   C385    1.405   .     D
C384   H238    1.082   .     S
C385   N40     1.447   .     S
C385   C386    1.405   .     S
C386   H239    1.082   .     S
C387   C402    1.483   .     S
C387   C392    1.405   .     S
C387   C388    1.403   .     D
C388   C389    1.397   .     S
C388   H240    1.084   .     S
C389   C390    1.400   .     D
C389   H241    1.083   .     S
C390   C391    1.407   .     S
C390   N31     1.435   .     S
C391   H242    1.082   .     S
C391   C392    1.398   .     D
C392   H243    1.083   .     S
N31    C393    1.299   .     D
C393   C394    1.476   .     S
C393   H244    1.083   .     S
C394   C396    1.403   .     S
C394   C395    1.406   1_556 D
C395   H245    1.083   .     S
C395   C397    1.397   .     S
C395   C394    1.406   1_554 D
C396   C399    1.398   .     D
C396   H246    1.083   .     S
C397   C398    1.405   .     D
C397   H247    1.083   .     S
C398   N32     1.446   .     S
C398   C399    1.404   1_554 S
C399   H248    1.082   .     S
C399   C398    1.404   1_556 S
C400   C401    1.407   .     S
C400   H249    1.081   .     S
C401   C407    1.411   .     S
C401   C402    1.416   .     D
C402   C408    1.401   .     S
N32    C487    1.447   .     S
C403   H250    1.084   .     S
C404   C200    1.424   1_455 D
C405   H251    1.084   .     S
C405   C441    1.402   .     D
C406   C442    1.411   .     D
C406   C407    1.488   .     S
C407   C665    1.412   .     D
C408   C666    1.402   .     D
C408   H252    1.084   .     S
H227   C366    1.084   1_655 S
C409   C424    1.485   .     S
C409   C414    1.406   .     D
C409   C410    1.405   .     S
C410   H253    1.084   .     S
C410   C411    1.396   .     D
C411   H254    1.083   .     S
C411   C412    1.399   .     S
C412   N33     1.434   .     S
C412   C413    1.408   .     D
C413   C414    1.399   .     S
C413   H255    1.082   .     S
C414   H256    1.083   .     S
N33    C415    1.299   .     D
C415   H257    1.084   .     S
C415   C416    1.475   .     S
C416   C417    1.405   .     D
C416   C418    1.402   .     S
C417   H258    1.083   .     S
C417   C419    1.397   .     S
C418   H259    1.084   .     S
C418   C421    1.398   .     D
C419   H260    1.083   .     S
C419   C420    1.405   .     D
C420   N56     1.447   .     S
C420   C421    1.407   .     S
C421   H261    1.082   .     S
C422   H262    1.080   .     S
C422   C423    1.405   .     S
C422   C470    1.390   .     D
C423   C424    1.417   .     D
C423   C710    1.420   .     S
C424   C709    1.398   .     S
C425   C426    1.405   .     S
C425   C571    1.475   .     S
C425   C427    1.402   .     D
C426   H263    1.083   .     S
C426   C428    1.400   .     D
C427   C430    1.396   .     S
C427   H264    1.083   .     S
C428   H265    1.082   .     S
C428   C429    1.407   .     S
C429   C430    1.405   .     D
C429   N52     1.447   .     S
C430   H266    1.082   .     S
C431   H267    1.082   .     S
C431   C446    1.396   .     D
C431   C432    1.404   .     S
C432   C434    1.475   .     S
C432   C433    1.403   .     D
C433   H268    1.083   .     S
C433   C444    1.398   .     S
C434   N34     1.299   .     D
C434   H269    1.082   .     S
N34    C435    1.436   .     S
C435   C436    1.399   .     D
C435   C440    1.407   .     S
C436   H270    1.082   .     S
C436   C437    1.397   .     S
C437   H271    1.084   .     S
C437   C438    1.403   .     D
C438   C439    1.405   .     S
C438   C441    1.484   .     S
C439   C440    1.398   .     D
C439   H272    1.083   .     S
C440   H273    1.082   .     S
C441   C442    1.416   .     S
C442   C443    1.408   .     S
C443   H274    1.080   .     S
C443   C664    1.395   .     D
C444   C445    1.406   .     D
C444   H275    1.083   .     S
C445   C446    1.406   .     S
C446   H276    1.082   .     S
C447   C462    1.483   .     S
C447   C452    1.405   .     S
C447   C448    1.403   .     D
C448   C449    1.396   .     S
C448   H277    1.084   .     S
C449   C450    1.400   .     D
C449   H278    1.083   .     S
C450   C451    1.408   .     S
C450   N35     1.436   .     S
C451   H279    1.082   .     S
C451   C452    1.398   .     D
C452   H280    1.083   .     S
N35    C453    1.300   .     D
C453   C454    1.476   .     S
C453   H281    1.082   .     S
C454   C456    1.403   .     S
C454   C455    1.405   1_556 D
C455   H282    1.083   .     S
C455   C457    1.397   .     S
C455   C454    1.405   1_554 D
C456   C459    1.397   .     D
C456   H283    1.083   .     S
C457   C458    1.405   .     D
C457   H284    1.082   .     S
C458   N36     1.446   .     S
C458   C459    1.405   1_554 S
C459   H285    1.083   .     S
C459   C458    1.405   1_556 S
C460   C461    1.407   .     S
C460   H286    1.081   .     S
C460   C647    1.395   .     D
C461   C462    1.416   .     S
N36    C633    1.447   .     S
C463   C472    1.485   .     S
C463   C464    1.405   .     S
C463   C468    1.405   .     D
C464   C465    1.395   .     D
C464   H287    1.084   .     S
C465   C466    1.406   .     S
C465   H288    1.082   .     S
C466   N37     1.436   .     S
C466   C467    1.402   1_655 D
C467   H289    1.083   .     S
C467   C466    1.402   1_455 D
C467   C468    1.400   1_455 S
C468   C467    1.400   1_655 S
C468   H290    1.084   1_655 S
N37    C469    1.301   .     D
C469   H291    1.085   .     S
C469   C527    1.475   .     S
C470   H292    1.080   .     S
C470   C471    1.405   1_455 S
C471   C472    1.417   .     D
C471   C506    1.421   .     S
C471   C470    1.405   1_655 S
C472   C505    1.398   .     S
C473   C488    1.396   .     D
C473   H293    1.082   .     S
C473   C474    1.405   .     S
C474   C475    1.403   .     D
C474   C476    1.476   .     S
C475   C486    1.398   .     S
C475   H294    1.083   .     S
C476   N38     1.299   .     D
C476   H295    1.082   .     S
N38    C477    1.436   .     S
C477   C478    1.401   .     D
C477   C482    1.408   .     S
C478   C479    1.396   .     S
C478   H296    1.083   .     S
C479   H297    1.083   .     S
C479   C480    1.404   .     D
C480   C481    1.405   .     S
C480   C483    1.484   .     S
C481   H298    1.083   .     S
C481   C482    1.399   .     D
C482   H299    1.082   .     S
C483   C711    1.402   .     S
C483   C484    1.417   .     D
C484   C712    1.412   .     S
C484   C485    1.408   .     S
C485   H300    1.081   .     S
C485   C706    1.396   .     D
C486   H301    1.082   .     S
C486   C487    1.405   .     D
C487   C488    1.405   .     S
C488   H302    1.082   .     S
C489   C494    1.405   .     S
C489   C490    1.403   .     D
C489   C504    1.483   .     S
C490   H303    1.084   .     S
C490   C491    1.397   .     S
C491   C492    1.400   .     D
C491   H304    1.083   .     S
C492   N39     1.435   .     S
C492   C493    1.407   .     S
C493   H305    1.082   .     S
C493   C494    1.398   .     D
C494   H306    1.083   .     S
N39    C495    1.299   .     D
C495   C496    1.476   .     S
C495   H307    1.083   .     S
C496   C498    1.403   .     S
C496   C497    1.406   .     D
C497   H308    1.083   .     S
C497   C499    1.397   .     S
C498   H309    1.083   .     S
C498   C501    1.398   .     D
C499   H310    1.083   .     S
C499   C500    1.405   .     D
C500   C501    1.404   .     S
C500   N40     1.446   .     S
C501   H311    1.082   .     S
C502   C503    1.407   .     S
C502   H312    1.081   .     S
C502   C689    1.396   .     D
C503   C509    1.411   .     D
C503   C504    1.416   .     S
C504   C510    1.401   .     D
N40    C624    1.447   .     S
C505   C628    1.398   .     D
C505   H313    1.084   .     S
C506   C627    1.420   .     S
C506   C710    1.424   1_655 D
C507   C687    1.402   .     D
C507   H314    1.084   .     S
C508   C688    1.412   .     D
C508   C509    1.488   .     S
C510   H315    1.084   .     S
H290   C468    1.084   1_455 S
C511   C512    1.405   .     D
C511   C526    1.485   .     S
C511   C516    1.406   .     S
C512   C513    1.396   .     S
C512   H316    1.084   .     S
C513   C514    1.399   .     D
C513   H317    1.083   .     S
C514   N41     1.434   .     S
C514   C515    1.408   .     S
C515   C516    1.399   .     D
C515   H318    1.082   1_545 S
C516   H319    1.083   1_545 S
N41    C517    1.299   1_545 D
C517   C518    1.475   .     S
C517   H320    1.084   .     S
C517   N41     1.299   1_565 D
C518   C520    1.402   .     D
C518   C519    1.405   1_565 S
C519   H321    1.083   .     S
C519   C521    1.397   .     D
C519   C518    1.405   1_545 S
C520   C523    1.398   .     S
C520   H322    1.084   .     S
C521   H323    1.083   .     S
C521   C522    1.405   1_545 S
C522   N64     1.447   .     S
C522   C523    1.407   .     D
C522   C521    1.405   1_565 S
C523   H324    1.082   .     S
C524   C572    1.390   .     D
C524   H325    1.080   .     S
C524   C525    1.405   1_565 S
C525   C812    1.420   .     S
C525   C526    1.417   .     D
C525   C524    1.405   1_545 S
C526   C811    1.398   .     S
C527   C529    1.402   .     S
C527   C528    1.405   1_655 D
C528   H326    1.083   .     S
C528   C530    1.400   .     S
C528   C527    1.405   1_455 D
C529   H327    1.083   .     S
C529   C532    1.396   .     D
C530   H328    1.082   .     S
C530   C531    1.407   1_455 D
C531   C532    1.405   .     S
C531   N60     1.447   .     S
C531   C530    1.407   1_655 D
C532   H329    1.082   .     S
C533   H330    1.082   .     S
C533   C548    1.396   .     D
C533   C534    1.404   .     S
C534   C535    1.403   .     D
C534   C536    1.475   .     S
C535   C546    1.398   .     S
C535   H331    1.083   .     S
C536   N42     1.299   .     D
C536   H332    1.082   .     S
N42    C537    1.436   .     S
C537   C542    1.407   .     D
C537   C538    1.399   .     S
C538   C539    1.397   .     D
C538   H333    1.082   .     S
C539   H334    1.084   .     S
C539   C540    1.403   .     S
C540   C541    1.405   .     D
C540   C543    1.484   .     S
C541   H335    1.083   .     S
C541   C542    1.398   .     S
C542   H336    1.082   .     S
C543   C544    1.416   .     D
C544   C545    1.408   .     S
C545   H337    1.080   .     S
C545   C766    1.395   .     D
C546   H338    1.083   .     S
C546   C547    1.406   .     D
C547   C548    1.406   .     S
C547   N4      1.447   1_655 S
C548   H339    1.082   .     S
C549   C550    1.403   .     D
C549   C554    1.405   .     S
C549   C564    1.483   .     S
C550   H340    1.084   .     S
C550   C551    1.396   .     S
C551   C552    1.400   .     D
C551   H341    1.083   .     S
C552   N43     1.436   .     S
C552   C553    1.408   .     S
C553   H342    1.082   .     S
C553   C554    1.398   .     D
C554   H343    1.083   .     S
N43    C555    1.300   .     D
C555   C556    1.476   .     S
C555   H344    1.082   .     S
C556   C558    1.403   .     S
C556   C557    1.405   .     D
C557   H345    1.083   .     S
C557   C559    1.397   .     S
C558   H346    1.083   .     S
C558   C561    1.397   .     D
C559   H347    1.082   .     S
C559   C560    1.405   .     D
C560   N44     1.446   .     S
C560   C561    1.405   .     S
C561   H348    1.083   .     S
C562   C563    1.407   .     S
C562   H349    1.081   .     S
C562   C749    1.395   .     D
C563   C564    1.416   .     S
N44    C735    1.447   .     S
N44    C37     1.447   1_455 S
C565   C570    1.405   .     S
C565   C574    1.485   .     S
C565   C566    1.405   .     D
C566   H350    1.084   .     S
C566   C567    1.395   .     S
C567   H351    1.082   .     S
C567   C568    1.406   .     D
C568   C569    1.402   .     S
C568   N45     1.436   .     S
C569   C570    1.400   .     D
C569   H352    1.083   .     S
C570   H353    1.084   .     S
N45    C571    1.301   .     D
C571   H354    1.085   .     S
C572   C573    1.405   .     S
C572   H355    1.080   .     S
C573   C608    1.421   .     S
C573   C574    1.417   .     D
C574   C607    1.398   .     S
C575   H356    1.082   .     S
C575   C590    1.396   .     D
C575   C576    1.405   .     S
C576   C577    1.403   .     D
C576   C578    1.476   .     S
C577   H357    1.083   .     S
C577   C588    1.398   .     S
C578   N46     1.299   .     D
C578   H358    1.082   .     S
N46    C579    1.436   .     S
C579   C580    1.401   .     S
C579   C584    1.408   .     D
C580   H359    1.083   .     S
C580   C581    1.396   .     D
C581   H360    1.083   .     S
C581   C582    1.404   .     S
C582   C583    1.405   .     D
C582   C585    1.484   .     S
C583   C584    1.399   .     S
C583   H361    1.083   .     S
C584   H362    1.082   .     S
C585   C586    1.417   .     S
C585   C813    1.402   .     D
C586   C587    1.408   .     D
C586   C814    1.412   .     S
C587   H363    1.081   .     S
C587   C808    1.396   .     S
C588   C589    1.405   .     D
C588   H364    1.082   .     S
C589   C590    1.405   .     S
C589   N24     1.447   1_565 S
C590   H365    1.082   .     S
C591   C606    1.483   .     S
C591   C596    1.405   .     S
C591   C592    1.403   .     D
C592   C593    1.397   .     S
C592   H366    1.084   .     S
C593   C594    1.400   .     D
C593   H367    1.083   .     S
C594   C595    1.407   .     S
C594   N47     1.435   .     S
C595   H368    1.082   .     S
C595   C596    1.398   .     D
C596   H369    1.083   .     S
N47    C597    1.299   .     D
C597   C598    1.476   .     S
C597   H370    1.083   .     S
C598   C600    1.403   .     S
C598   C599    1.406   1_556 D
C599   H371    1.083   .     S
C599   C601    1.397   .     S
C599   C598    1.406   1_554 D
C600   C603    1.398   .     D
C600   H372    1.083   .     S
C601   C602    1.405   .     D
C601   H373    1.083   .     S
C602   N48     1.446   .     S
C602   C603    1.404   1_554 S
C603   H374    1.082   .     S
C603   C602    1.404   1_556 S
C604   H375    1.081   .     S
C604   C605    1.407   .     S
C604   C791    1.396   .     D
C605   C611    1.411   .     D
C605   C606    1.416   .     S
C606   C612    1.401   .     D
N48    C726    1.447   .     S
N48    C283    1.447   1_545 S
C607   H376    1.084   .     S
C607   C730    1.398   .     D
C608   C729    1.420   .     S
C608   C812    1.424   1_565 D
C609   H377    1.084   .     S
C609   C789    1.402   .     D
C610   C790    1.412   .     D
C610   C611    1.488   .     S
C612   H378    1.084   .     S
H318   C515    1.082   1_565 S
H319   C516    1.083   1_565 S
C613   C618    1.406   .     D
C613   C628    1.485   .     S
C613   C614    1.405   .     S
C614   H379    1.084   .     S
C614   C615    1.396   .     D
C615   H380    1.083   .     S
C615   C616    1.399   .     S
C616   C617    1.408   .     D
C616   N49     1.434   .     S
C617   C618    1.399   .     S
C617   H381    1.082   .     S
C618   H382    1.083   .     S
N49    C619    1.299   .     D
C619   C620    1.475   .     S
C619   H383    1.084   .     S
C620   C621    1.405   .     D
C620   C622    1.402   .     S
C621   C623    1.397   .     S
C621   H384    1.083   .     S
C622   C625    1.398   .     D
C622   H385    1.084   .     S
C623   C624    1.405   .     D
C623   H386    1.083   .     S
C624   C625    1.407   .     S
C625   H387    1.082   .     S
C626   H388    1.080   .     S
C626   C674    1.390   .     S
C626   C627    1.405   .     D
C627   C628    1.417   .     S
C629   C630    1.405   .     D
C629   C775    1.475   .     S
C629   C631    1.402   .     S
C630   H389    1.083   .     S
C630   C632    1.400   .     S
C631   H390    1.083   .     S
C631   C634    1.396   .     D
C632   H391    1.082   .     S
C632   C633    1.407   .     D
C633   C634    1.405   .     S
C634   H392    1.082   .     S
C635   H393    1.082   .     S
C635   C650    1.396   .     D
C635   C636    1.404   .     S
C636   C637    1.403   .     D
C636   C638    1.475   .     S
C637   H394    1.083   .     S
C637   C648    1.398   .     S
C638   N50     1.299   .     D
C638   H395    1.082   .     S
N50    C639    1.436   .     S
C639   C640    1.399   .     D
C639   C644    1.407   .     S
C640   H396    1.082   .     S
C640   C641    1.397   .     S
C641   C642    1.403   .     D
C641   H397    1.084   .     S
C642   C643    1.405   .     S
C642   C645    1.484   .     S
C643   C644    1.398   .     D
C643   H398    1.083   .     S
C644   H399    1.082   .     S
C645   C646    1.416   .     D
C646   C647    1.408   .     S
C647   H400    1.080   .     S
C648   C649    1.406   .     D
C648   H401    1.083   .     S
C649   C650    1.406   .     S
C650   H402    1.082   .     S
C651   C656    1.405   .     S
C651   C666    1.483   .     S
C651   C652    1.403   .     D
C652   H403    1.084   .     S
C652   C653    1.396   .     S
C653   C654    1.400   .     D
C653   H404    1.083   .     S
C654   C655    1.408   .     S
C654   N51     1.436   .     S
C655   H405    1.082   .     S
C655   C656    1.398   .     D
C656   H406    1.083   .     S
N51    C657    1.300   .     D
C657   C658    1.476   .     S
C657   H407    1.082   .     S
C658   C660    1.403   .     S
C658   C659    1.405   1_556 D
C659   C661    1.397   .     S
C659   H408    1.083   .     S
C659   C658    1.405   1_554 D
C660   C663    1.397   .     D
C660   H409    1.083   .     S
C661   C662    1.405   .     D
C661   H410    1.082   .     S
C662   N52     1.446   .     S
C662   C663    1.405   1_554 S
C663   H411    1.083   .     S
C663   C662    1.405   1_556 S
C664   H412    1.081   .     S
C664   C665    1.407   .     S
C665   C666    1.416   .     S
C667   C668    1.405   .     D
C667   C676    1.485   .     S
C667   C672    1.405   .     S
C668   C669    1.395   .     S
C668   H413    1.084   .     S
C669   C670    1.406   .     D
C669   H414    1.082   .     S
C670   N53     1.436   .     S
C670   C671    1.402   1_455 S
C671   H415    1.083   .     S
C671   C670    1.402   1_655 S
C671   C672    1.400   1_655 D
C672   C671    1.400   1_455 D
C672   H416    1.084   1_455 S
N53    C673    1.301   .     D
C673   C731    1.475   .     S
C673   H417    1.085   .     S
C674   H418    1.080   .     S
C674   C675    1.405   1_655 D
C675   C710    1.421   .     S
C675   C676    1.417   .     S
C675   C674    1.405   1_455 D
C676   C709    1.398   .     D
C677   H419    1.082   .     S
C677   C692    1.396   .     D
C677   C678    1.405   .     S
C678   C680    1.476   .     S
C678   C679    1.403   .     D
C679   C690    1.398   .     S
C679   H420    1.083   .     S
C680   N54     1.299   .     D
C680   H421    1.082   .     S
N54    C681    1.436   .     S
C681   C686    1.408   .     D
C681   C682    1.401   .     S
C682   C683    1.396   .     D
C682   H422    1.083   .     S
C683   H423    1.083   .     S
C683   C684    1.404   .     S
C684   C685    1.405   .     D
C684   C687    1.484   .     S
C685   H424    1.083   .     S
C685   C686    1.399   .     S
C686   H425    1.082   .     S
C687   C688    1.417   .     S
C688   C689    1.408   .     S
C689   H426    1.081   .     S
C690   H427    1.082   .     S
C690   C691    1.405   .     D
C691   C692    1.405   .     S
C692   H428    1.082   .     S
C693   C694    1.403   .     D
C693   C698    1.405   .     S
C693   C708    1.483   .     S
C694   H429    1.084   .     S
C694   C695    1.397   .     S
C695   H430    1.083   .     S
C695   C696    1.400   .     D
C696   N55     1.435   .     S
C696   C697    1.407   .     S
C697   H431    1.082   .     S
C697   C698    1.398   .     D
C698   H432    1.083   .     S
N55    C699    1.299   .     D
C699   C700    1.476   .     S
C699   H433    1.083   .     S
C700   C702    1.403   .     S
C700   C701    1.406   .     D
C701   H434    1.083   .     S
C701   C703    1.397   .     S
C702   H435    1.083   .     S
C702   C705    1.398   .     D
C703   H436    1.083   .     S
C703   C704    1.405   .     D
C704   C705    1.404   .     S
C704   N56     1.446   .     S
C705   H437    1.082   .     S
C706   H438    1.081   .     S
C706   C707    1.407   .     S
C707   C713    1.411   .     S
C707   C708    1.416   .     D
C708   C714    1.401   .     S
C709   H439    1.084   .     S
C710   C506    1.424   1_455 D
C711   H440    1.084   .     S
C712   C713    1.488   .     D
C714   H441    1.084   .     S
H416   C672    1.084   1_655 S
C715   C716    1.405   .     D
C715   C730    1.485   .     S
C715   C720    1.406   .     S
C716   C717    1.396   .     S
C716   H442    1.084   .     S
C717   C718    1.399   .     D
C717   H443    1.083   .     S
C718   N57     1.434   .     S
C718   C719    1.408   .     S
C719   C720    1.399   .     D
C719   H444    1.082   1_565 S
C720   H445    1.083   1_565 S
N57    C721    1.299   1_565 D
C721   H446    1.084   .     S
C721   C722    1.475   .     S
C721   N57     1.299   1_545 D
C722   C724    1.402   .     D
C722   C723    1.405   1_545 S
C723   H447    1.083   .     S
C723   C725    1.397   .     D
C723   C722    1.405   1_565 S
C724   C727    1.398   .     S
C724   H448    1.084   .     S
C725   H449    1.083   .     S
C725   C726    1.405   1_565 S
C726   C727    1.407   .     D
C726   C725    1.405   1_545 S
C727   H450    1.082   .     S
C728   H451    1.080   .     S
C728   C776    1.390   .     S
C728   C729    1.405   1_545 D
C729   C730    1.417   .     S
C729   C728    1.405   1_565 D
C731   C733    1.402   .     D
C731   C732    1.405   1_455 S
C732   C734    1.400   .     D
C732   H452    1.083   .     S
C732   C731    1.405   1_655 S
C733   H453    1.083   .     S
C733   C736    1.396   .     S
C734   H454    1.082   .     S
C734   C735    1.407   1_655 S
C735   C736    1.405   .     D
C735   C734    1.407   1_455 S
C736   H455    1.082   .     S
C737   C752    1.396   .     D
C737   H456    1.082   .     S
C737   C738    1.404   .     S
C738   C740    1.475   .     S
C738   C739    1.403   .     D
C739   C750    1.398   .     S
C739   H457    1.083   .     S
C740   N58     1.299   .     D
C740   H458    1.082   .     S
N58    C741    1.436   .     S
C741   C746    1.407   .     D
C741   C742    1.399   .     S
C742   C743    1.397   .     D
C742   H459    1.082   .     S
C743   H460    1.084   .     S
C743   C744    1.403   .     S
C744   C745    1.405   .     D
C744   C747    1.484   .     S
C745   H461    1.083   .     S
C745   C746    1.398   .     S
C746   H462    1.082   .     S
C747   C748    1.416   .     S
C748   C749    1.408   .     S
C749   H463    1.080   .     S
C750   H464    1.083   .     S
C750   C751    1.406   .     D
C751   C752    1.406   .     S
C751   N20     1.447   1_455 S
C752   H465    1.082   .     S
C753   C754    1.403   .     D
C753   C758    1.405   .     S
C753   C768    1.483   .     S
C754   H466    1.084   .     S
C754   C755    1.396   .     S
C755   H467    1.083   .     S
C755   C756    1.400   .     D
C756   N59     1.436   .     S
C756   C757    1.408   .     S
C757   C758    1.398   .     D
C757   H468    1.082   .     S
C758   H469    1.083   .     S
N59    C759    1.300   .     D
C759   C760    1.476   .     S
C759   H470    1.082   .     S
C760   C762    1.403   .     D
C760   C761    1.405   .     S
C761   H471    1.083   .     S
C761   C763    1.397   .     D
C762   H472    1.083   .     S
C762   C765    1.397   .     S
C763   C764    1.405   .     S
C763   H473    1.082   .     S
C764   N60     1.446   .     S
C764   C765    1.405   .     D
C765   H474    1.083   .     S
C766   H475    1.081   .     S
C766   C767    1.407   .     S
C767   C768    1.416   .     D
N60    C241    1.447   1_655 S
C769   C774    1.405   .     D
C769   C778    1.485   .     S
C769   C770    1.405   .     S
C770   H476    1.084   .     S
C770   C771    1.395   .     D
C771   H477    1.082   .     S
C771   C772    1.406   .     S
C772   N61     1.436   .     S
C772   C773    1.402   .     D
C773   C774    1.400   .     S
C773   H478    1.083   .     S
C774   H479    1.084   .     S
N61    C775    1.301   .     D
C775   H480    1.085   .     S
C776   H481    1.080   .     S
C776   C777    1.405   .     D
C777   C778    1.417   .     S
C777   C812    1.421   .     S
C778   C811    1.398   .     D
C779   H482    1.082   .     S
C779   C794    1.396   .     D
C779   C780    1.405   .     S
C780   C782    1.476   .     S
C780   C781    1.403   .     D
C781   H483    1.083   .     S
C781   C792    1.398   .     S
C782   N62     1.299   .     D
C782   H484    1.082   .     S
N62    C783    1.436   .     S
C783   C784    1.401   .     D
C783   C788    1.408   .     S
C784   H485    1.083   .     S
C784   C785    1.396   .     S
C785   C786    1.404   .     D
C785   H486    1.083   .     S
C786   C787    1.405   .     S
C786   C789    1.484   .     S
C787   C788    1.399   .     D
C787   H487    1.083   .     S
C788   H488    1.082   .     S
C789   C790    1.417   .     S
C790   C791    1.408   .     S
C791   H489    1.081   .     S
C792   H490    1.082   .     S
C792   C793    1.405   .     D
C793   C794    1.405   .     S
C793   N8      1.447   1_545 S
C794   H491    1.082   .     S
C795   C800    1.405   .     D
C795   C810    1.483   .     S
C795   C796    1.403   .     S
C796   H492    1.084   .     S
C796   C797    1.397   .     D
C797   C798    1.400   .     S
C797   H493    1.083   .     S
C798   C799    1.407   .     D
C798   N63     1.435   .     S
C799   H494    1.082   .     S
C799   C800    1.398   .     S
C800   H495    1.083   .     S
N63    C801    1.299   .     D
C801   C802    1.476   .     S
C801   H496    1.083   .     S
C802   C804    1.403   .     D
C802   C803    1.406   1_556 S
C803   C805    1.397   .     D
C803   H497    1.083   .     S
C803   C802    1.406   1_554 S
C804   C807    1.398   .     S
C804   H498    1.083   .     S
C805   C806    1.405   .     S
C805   H499    1.083   .     S
C806   N64     1.446   .     S
C806   C807    1.404   1_554 D
C807   H500    1.082   .     S
C807   C806    1.404   1_556 D
C808   C809    1.407   .     D
C808   H501    1.081   .     S
C809   C815    1.411   .     S
C809   C810    1.416   .     S
C810   C816    1.401   .     D
N64    C79     1.447   1_565 S
C811   H502    1.084   .     S
C812   C608    1.424   1_545 D
C813   H503    1.084   .     S
C814   C815    1.488   .     D
C816   H504    1.084   .     S
H444   C719    1.082   1_545 S
H445   C720    1.083   1_545 S
