data_1102
_audit_creation_date              2023-09-08
_audit_creation_method            'Materials Studio'
_symmetry_space_group_name_H-M    'P1'
_symmetry_Int_Tables_number       1
_symmetry_cell_setting            triclinic
loop_
_symmetry_equiv_pos_as_xyz
  x,y,z
_cell_length_a                    63.3800
_cell_length_b                    60.6800
_cell_length_c                    38.8400
_cell_angle_alpha                 90.0000
_cell_angle_beta                  90.0000
_cell_angle_gamma                 90.0000
loop_
_atom_site_label
_atom_site_type_symbol
_atom_site_fract_x
_atom_site_fract_y
_atom_site_fract_z
_atom_site_U_iso_or_equiv
_atom_site_adp_type
_atom_site_occupancy
C1     C     0.36097   0.88100   0.65716   0.00000  Uiso   1.00
C2     C     0.37252   0.89933   0.64586   0.00000  Uiso   1.00
C3     C     0.35791   0.90218   0.55336   0.00000  Uiso   1.00
C4     C     0.36770   0.92311   0.54288   0.00000  Uiso   1.00
C5     C     0.35499   0.94156   0.53665   0.00000  Uiso   1.00
C6     C     0.36422   0.96219   0.53121   0.00000  Uiso   1.00
C7     C     0.38617   0.96451   0.53173   0.00000  Uiso   1.00
C8     C     0.39885   0.94602   0.53838   0.00000  Uiso   1.00
C9     C     0.38966   0.92543   0.54382   0.00000  Uiso   1.00
N1     N     0.39522   0.98606   0.52863   0.00000  Uiso   1.00
C10    C     0.41255   0.99126   0.51254   0.00000  Uiso   1.00
C11    C     0.42472   0.97635   0.49018   0.00000  Uiso   1.00
C12    C     0.44655   0.97907   0.48807   0.00000  Uiso   1.00
C13    C     0.45836   0.96635   0.46512   0.00000  Uiso   1.00
C14    C     0.44850   0.95071   0.44380   0.00000  Uiso   1.00
C15    C     0.42653   0.94817   0.44588   0.00000  Uiso   1.00
C16    C     0.41473   0.96098   0.46870   0.00000  Uiso   1.00
C17    C     0.46075   0.93915   0.41679   0.00000  Uiso   1.00
C18    C     0.48260   0.94230   0.41431   0.00000  Uiso   1.00
C19    C     0.49370   0.93464   0.38572   0.00000  Uiso   1.00
C20    C     0.48329   0.92331   0.35916   0.00000  Uiso   1.00
C21    C     0.46159   0.91931   0.36231   0.00000  Uiso   1.00
C22    C     0.45044   0.92707   0.39091   0.00000  Uiso   1.00
C23    C     0.89421   0.38506   0.19129   0.00000  Uiso   1.00
C24    C     0.90731   0.39966   0.17339   0.00000  Uiso   1.00
C25    C     0.89165   0.39024   0.08192   0.00000  Uiso   1.00
C26    C     0.90516   0.40547   0.06121   0.00000  Uiso   1.00
C27    C     0.89739   0.41426   0.03022   0.00000  Uiso   1.00
C28    C     0.90998   0.42777   0.00956   0.00000  Uiso   1.00
C29    C     0.93065   0.43278   0.01933   0.00000  Uiso   1.00
C30    C     0.93860   0.42411   0.05025   0.00000  Uiso   1.00
C31    C     0.92597   0.41053   0.07088   0.00000  Uiso   1.00
N2     N     0.94324   0.44626   0.99700   0.00000  Uiso   1.00
C32    C     0.96267   0.45166   0.00330   0.00000  Uiso   1.00
C33    C     0.97484   0.46527   0.97906   0.00000  Uiso   1.00
C34    C     0.99570   0.47083   0.98690   0.00000  Uiso   1.00
C35    C     0.00758   0.48367   0.96406   0.00000  Uiso   1.00
C36    C     0.99882   0.49114   0.93290   0.00000  Uiso   1.00
C37    C     0.97789   0.48528   0.92515   0.00000  Uiso   1.00
C38    C     0.96600   0.47255   0.94802   0.00000  Uiso   1.00
C39    C     0.77983   0.97282   0.92971   0.00000  Uiso   1.00
C40    C     0.77928   0.99592   0.93031   0.00000  Uiso   1.00
C41    C     0.72297   0.95736   0.92549   0.00000  Uiso   1.00
C42    C     0.68223   0.00163   0.92245   0.00000  Uiso   1.00
C43    C     0.66970   0.99587   0.89404   0.00000  Uiso   1.00
C44    C     0.65325   0.00968   0.88352   0.00000  Uiso   1.00
C45    C     0.64894   0.02916   0.90178   0.00000  Uiso   1.00
C46    C     0.66006   0.03381   0.93184   0.00000  Uiso   1.00
C47    C     0.67667   0.02028   0.94191   0.00000  Uiso   1.00
N3     N     0.63441   0.04522   0.88918   0.00000  Uiso   1.00
C48    C     0.62967   0.04708   0.85687   0.00000  Uiso   1.00
C49    C     0.61416   0.06334   0.84545   0.00000  Uiso   1.00
C50    C     0.60469   0.07756   0.86920   0.00000  Uiso   1.00
C51    C     0.58717   0.08998   0.85970   0.00000  Uiso   1.00
C52    C     0.57886   0.08848   0.82629   0.00000  Uiso   1.00
C53    C     0.58947   0.07539   0.80190   0.00000  Uiso   1.00
C54    C     0.60705   0.06291   0.81142   0.00000  Uiso   1.00
C55    C     0.55652   0.09458   0.82048   0.00000  Uiso   1.00
C56    C     0.54430   0.10194   0.84838   0.00000  Uiso   1.00
C57    C     0.52254   0.09858   0.84878   0.00000  Uiso   1.00
C58    C     0.51265   0.08743   0.82149   0.00000  Uiso   1.00
C59    C     0.52446   0.08333   0.79149   0.00000  Uiso   1.00
C60    C     0.54618   0.08671   0.79107   0.00000  Uiso   1.00
N4     N     0.49316   0.92206   0.32574   0.00000  Uiso   1.00
C61    C     0.33427   0.14720   0.14536   0.00000  Uiso   1.00
C62    C     0.32161   0.15817   0.12132   0.00000  Uiso   1.00
C63    C     0.33782   0.13053   0.03743   0.00000  Uiso   1.00
C64    C     0.33261   0.14673   0.01012   0.00000  Uiso   1.00
C65    C     0.33116   0.14039   0.97541   0.00000  Uiso   1.00
C66    C     0.32752   0.15617   0.94979   0.00000  Uiso   1.00
C67    C     0.32548   0.17844   0.95855   0.00000  Uiso   1.00
C68    C     0.32714   0.18479   0.99310   0.00000  Uiso   1.00
C69    C     0.33079   0.16911   0.01840   0.00000  Uiso   1.00
N5     N     0.32116   0.19435   0.93234   0.00000  Uiso   1.00
C70    C     0.31699   0.21469   0.93988   0.00000  Uiso   1.00
C71    C     0.31179   0.23081   0.91345   0.00000  Uiso   1.00
C72    C     0.30078   0.24967   0.92333   0.00000  Uiso   1.00
C73    C     0.29276   0.26389   0.89841   0.00000  Uiso   1.00
C74    C     0.29600   0.25969   0.86325   0.00000  Uiso   1.00
C75    C     0.30806   0.24122   0.85367   0.00000  Uiso   1.00
C76    C     0.31577   0.22675   0.87859   0.00000  Uiso   1.00
C77    C     0.86550   0.64228   0.68979   0.00000  Uiso   1.00
C78    C     0.85100   0.65453   0.67050   0.00000  Uiso   1.00
C79    C     0.86349   0.63770   0.58032   0.00000  Uiso   1.00
C80    C     0.84899   0.65089   0.55790   0.00000  Uiso   1.00
C81    C     0.84295   0.64263   0.52553   0.00000  Uiso   1.00
C82    C     0.83029   0.65506   0.50333   0.00000  Uiso   1.00
C83    C     0.82343   0.67607   0.51290   0.00000  Uiso   1.00
C84    C     0.82934   0.68450   0.54517   0.00000  Uiso   1.00
C85    C     0.84203   0.67204   0.56733   0.00000  Uiso   1.00
N6     N     0.81099   0.68863   0.48906   0.00000  Uiso   1.00
C86    C     0.80377   0.70821   0.49555   0.00000  Uiso   1.00
C87    C     0.79136   0.72058   0.47000   0.00000  Uiso   1.00
C88    C     0.78305   0.74113   0.47902   0.00000  Uiso   1.00
C89    C     0.77113   0.75322   0.45530   0.00000  Uiso   1.00
C90    C     0.76731   0.74497   0.42206   0.00000  Uiso   1.00
C91    C     0.77587   0.72441   0.41303   0.00000  Uiso   1.00
C92    C     0.78778   0.71230   0.43679   0.00000  Uiso   1.00
C93    C     0.24643   0.53054   0.43127   0.00000  Uiso   1.00
C94    C     0.29641   0.48350   0.42904   0.00000  Uiso   1.00
C95    C     0.26592   0.42998   0.42679   0.00000  Uiso   1.00
C96    C     0.27692   0.41725   0.39986   0.00000  Uiso   1.00
C97    C     0.26998   0.39608   0.39216   0.00000  Uiso   1.00
C98    C     0.25304   0.38674   0.41035   0.00000  Uiso   1.00
C99    C     0.24347   0.39834   0.43720   0.00000  Uiso   1.00
C100   C     0.24978   0.41970   0.44537   0.00000  Uiso   1.00
N7     N     0.24427   0.36602   0.40045   0.00000  Uiso   1.00
C101   C     0.25235   0.35397   0.37635   0.00000  Uiso   1.00
C102   C     0.24234   0.33345   0.36566   0.00000  Uiso   1.00
C103   C     0.22175   0.32810   0.37587   0.00000  Uiso   1.00
C104   C     0.21274   0.30815   0.36565   0.00000  Uiso   1.00
C105   C     0.22423   0.29329   0.34523   0.00000  Uiso   1.00
C106   C     0.24476   0.29906   0.33488   0.00000  Uiso   1.00
C107   C     0.25369   0.31902   0.34483   0.00000  Uiso   1.00
N8     N     0.28404   0.27162   0.83753   0.00000  Uiso   1.00
C108   C     0.60732   0.38830   0.61825   0.00000  Uiso   1.00
C109   C     0.59345   0.40127   0.63767   0.00000  Uiso   1.00
C110   C     0.60530   0.38373   0.72776   0.00000  Uiso   1.00
C111   C     0.59076   0.39681   0.75038   0.00000  Uiso   1.00
C112   C     0.59658   0.40105   0.78468   0.00000  Uiso   1.00
C113   C     0.58333   0.41281   0.80677   0.00000  Uiso   1.00
C114   C     0.56381   0.42058   0.79529   0.00000  Uiso   1.00
C115   C     0.55765   0.41634   0.76117   0.00000  Uiso   1.00
C116   C     0.57101   0.40452   0.73902   0.00000  Uiso   1.00
N9     N     0.55089   0.43286   0.81883   0.00000  Uiso   1.00
C117   C     0.53253   0.44114   0.81152   0.00000  Uiso   1.00
C118   C     0.52062   0.45390   0.83734   0.00000  Uiso   1.00
C119   C     0.50160   0.46410   0.82817   0.00000  Uiso   1.00
C120   C     0.49080   0.47738   0.85193   0.00000  Uiso   1.00
C121   C     0.49886   0.48066   0.88528   0.00000  Uiso   1.00
C122   C     0.51767   0.46991   0.89447   0.00000  Uiso   1.00
C123   C     0.52846   0.45674   0.87078   0.00000  Uiso   1.00
C124   C     0.14086   0.89490   0.08779   0.00000  Uiso   1.00
C125   C     0.12862   0.90635   0.11187   0.00000  Uiso   1.00
C126   C     0.13824   0.87415   0.19178   0.00000  Uiso   1.00
C127   C     0.12351   0.88440   0.21627   0.00000  Uiso   1.00
C128   C     0.13126   0.89619   0.24454   0.00000  Uiso   1.00
C129   C     0.11786   0.91017   0.26292   0.00000  Uiso   1.00
C130   C     0.09670   0.91232   0.25328   0.00000  Uiso   1.00
C131   C     0.08868   0.89934   0.22639   0.00000  Uiso   1.00
C132   C     0.10202   0.88543   0.20806   0.00000  Uiso   1.00
N10    N     0.08514   0.93085   0.26573   0.00000  Uiso   1.00
C133   C     0.06581   0.93481   0.25688   0.00000  Uiso   1.00
C134   C     0.05611   0.95600   0.26488   0.00000  Uiso   1.00
C135   C     0.06879   0.97398   0.27399   0.00000  Uiso   1.00
C136   C     0.05990   0.99480   0.27781   0.00000  Uiso   1.00
C137   C     0.03824   0.99795   0.27248   0.00000  Uiso   1.00
C138   C     0.02555   0.97986   0.26358   0.00000  Uiso   1.00
C139   C     0.03451   0.95901   0.25931   0.00000  Uiso   1.00
C140   C     0.02881   0.01966   0.27928   0.00000  Uiso   1.00
C141   C     0.04118   0.03883   0.27782   0.00000  Uiso   1.00
C142   C     0.03330   0.05880   0.29017   0.00000  Uiso   1.00
C143   C     0.01289   0.05982   0.30390   0.00000  Uiso   1.00
C144   C     0.00025   0.04083   0.30379   0.00000  Uiso   1.00
C145   C     0.00808   0.02096   0.29139   0.00000  Uiso   1.00
C146   C     0.22022   0.50076   0.43057   0.00000  Uiso   1.00
C147   C     0.27003   0.45384   0.43016   0.00000  Uiso   1.00
C148   C     0.31951   0.48910   0.42635   0.00000  Uiso   1.00
C149   C     0.33415   0.47243   0.41835   0.00000  Uiso   1.00
C150   C     0.35570   0.47699   0.41558   0.00000  Uiso   1.00
C151   C     0.36329   0.49848   0.42070   0.00000  Uiso   1.00
C152   C     0.34893   0.51520   0.42876   0.00000  Uiso   1.00
C153   C     0.32734   0.51054   0.43160   0.00000  Uiso   1.00
N11    N     0.38540   0.50359   0.41814   0.00000  Uiso   1.00
C154   C     0.39953   0.48864   0.41180   0.00000  Uiso   1.00
C155   C     0.42225   0.49349   0.40965   0.00000  Uiso   1.00
C156   C     0.43028   0.51501   0.41174   0.00000  Uiso   1.00
C157   C     0.45215   0.51867   0.41067   0.00000  Uiso   1.00
C158   C     0.46618   0.50084   0.40772   0.00000  Uiso   1.00
C159   C     0.45799   0.47941   0.40532   0.00000  Uiso   1.00
C160   C     0.43623   0.47581   0.40613   0.00000  Uiso   1.00
N12    N     0.48873   0.49578   0.90905   0.00000  Uiso   1.00
C161   C     0.63567   0.63940   0.11673   0.00000  Uiso   1.00
C162   C     0.64954   0.65316   0.13475   0.00000  Uiso   1.00
C163   C     0.63429   0.64333   0.22623   0.00000  Uiso   1.00
C164   C     0.64913   0.65700   0.24722   0.00000  Uiso   1.00
C165   C     0.65510   0.64964   0.28010   0.00000  Uiso   1.00
C166   C     0.66857   0.66213   0.30080   0.00000  Uiso   1.00
C167   C     0.67635   0.68236   0.28928   0.00000  Uiso   1.00
C168   C     0.67045   0.69001   0.25650   0.00000  Uiso   1.00
C169   C     0.65692   0.67743   0.23573   0.00000  Uiso   1.00
N13    N     0.69013   0.69458   0.31153   0.00000  Uiso   1.00
C170   C     0.69799   0.71381   0.30448   0.00000  Uiso   1.00
C171   C     0.71213   0.72505   0.32895   0.00000  Uiso   1.00
C172   C     0.72047   0.74571   0.32062   0.00000  Uiso   1.00
C173   C     0.73442   0.75635   0.34311   0.00000  Uiso   1.00
C174   C     0.74021   0.74655   0.37453   0.00000  Uiso   1.00
C175   C     0.73145   0.72597   0.38299   0.00000  Uiso   1.00
C176   C     0.71762   0.71529   0.36042   0.00000  Uiso   1.00
C177   C     0.16410   0.13601   0.57470   0.00000  Uiso   1.00
C178   C     0.17736   0.15286   0.58647   0.00000  Uiso   1.00
C179   C     0.16662   0.15218   0.68092   0.00000  Uiso   1.00
C180   C     0.18299   0.16645   0.69652   0.00000  Uiso   1.00
C181   C     0.19164   0.16008   0.72816   0.00000  Uiso   1.00
C182   C     0.20698   0.17283   0.74405   0.00000  Uiso   1.00
C183   C     0.21393   0.19226   0.72874   0.00000  Uiso   1.00
C184   C     0.20542   0.19900   0.69707   0.00000  Uiso   1.00
C185   C     0.19004   0.18603   0.68093   0.00000  Uiso   1.00
N14    N     0.22870   0.20522   0.74745   0.00000  Uiso   1.00
C186   C     0.23664   0.22384   0.73766   0.00000  Uiso   1.00
C187   C     0.25057   0.23556   0.76149   0.00000  Uiso   1.00
C188   C     0.25850   0.25646   0.75349   0.00000  Uiso   1.00
C189   C     0.27030   0.26813   0.77793   0.00000  Uiso   1.00
C190   C     0.27408   0.25896   0.81058   0.00000  Uiso   1.00
C191   C     0.26610   0.23799   0.81815   0.00000  Uiso   1.00
C192   C     0.25459   0.22640   0.79386   0.00000  Uiso   1.00
C193   C     0.73845   0.03967   0.92905   0.00000  Uiso   1.00
C194   C     0.75834   0.02982   0.92902   0.00000  Uiso   1.00
C195   C     0.70196   0.99144   0.92704   0.00000  Uiso   1.00
C196   C     0.72295   0.93267   0.92185   0.00000  Uiso   1.00
C197   C     0.70546   0.92163   0.90759   0.00000  Uiso   1.00
C198   C     0.70579   0.89873   0.90264   0.00000  Uiso   1.00
C199   C     0.72364   0.88640   0.91168   0.00000  Uiso   1.00
C200   C     0.74085   0.89719   0.92676   0.00000  Uiso   1.00
C201   C     0.74039   0.91991   0.93189   0.00000  Uiso   1.00
N15    N     0.72397   0.86303   0.90591   0.00000  Uiso   1.00
C202   C     0.74124   0.85156   0.90757   0.00000  Uiso   1.00
C203   C     0.74165   0.82753   0.90311   0.00000  Uiso   1.00
C204   C     0.76121   0.81697   0.90125   0.00000  Uiso   1.00
C205   C     0.76237   0.79403   0.89874   0.00000  Uiso   1.00
C206   C     0.74392   0.78128   0.89822   0.00000  Uiso   1.00
C207   C     0.72426   0.79193   0.90007   0.00000  Uiso   1.00
C208   C     0.72312   0.81492   0.90242   0.00000  Uiso   1.00
N16    N     0.75481   0.75749   0.39770   0.00000  Uiso   1.00
C209   C     0.34788   0.88920   0.52853   0.00000  Uiso   1.00
C210   C     0.62292   0.62279   0.06404   0.00000  Uiso   1.00
C211   C     0.61971   0.36970   0.74408   0.00000  Uiso   1.00
C212   C     0.34749   0.14165   0.20339   0.00000  Uiso   1.00
C213   C     0.70358   0.96848   0.92358   0.00000  Uiso   1.00
C214   C     0.70909   0.53890   0.57132   0.00000  Uiso   1.00
C215   C     0.74164   0.50784   0.56844   0.00000  Uiso   1.00
C216   C     0.78388   0.52184   0.57004   0.00000  Uiso   1.00
C217   C     0.76760   0.53714   0.56968   0.00000  Uiso   1.00
C218   C     0.37900   0.37352   0.86431   0.00000  Uiso   1.00
C219   C     0.37969   0.37196   0.82771   0.00000  Uiso   1.00
C220   C     0.84767   0.12382   0.90135   0.00000  Uiso   1.00
C221   C     0.84775   0.13014   0.86628   0.00000  Uiso   1.00
C222   C     0.75943   0.00646   0.93056   0.00000  Uiso   1.00
H1     H     0.38303   0.90869   0.66466   0.00000  Uiso   1.00
H2     H     0.33709   0.93977   0.53601   0.00000  Uiso   1.00
H3     H     0.35385   0.97721   0.52632   0.00000  Uiso   1.00
H4     H     0.41675   0.94780   0.53935   0.00000  Uiso   1.00
H5     H     0.40007   0.91048   0.54904   0.00000  Uiso   1.00
H6     H     0.41941   0.00854   0.51525   0.00000  Uiso   1.00
H7     H     0.45480   0.99171   0.50511   0.00000  Uiso   1.00
H8     H     0.47619   0.96859   0.46353   0.00000  Uiso   1.00
H9     H     0.41820   0.93558   0.42886   0.00000  Uiso   1.00
H10    H     0.39687   0.95889   0.46981   0.00000  Uiso   1.00
H11    H     0.49144   0.95119   0.43577   0.00000  Uiso   1.00
H12    H     0.51143   0.93755   0.38372   0.00000  Uiso   1.00
H13    H     0.45292   0.90967   0.34147   0.00000  Uiso   1.00
H14    H     0.43283   0.92361   0.39339   0.00000  Uiso   1.00
H15    H     0.91889   0.41053   0.18808   0.00000  Uiso   1.00
H16    H     0.88059   0.41040   0.02162   0.00000  Uiso   1.00
H17    H     0.90341   0.43479   0.98454   0.00000  Uiso   1.00
H18    H     0.95540   0.42812   0.05865   0.00000  Uiso   1.00
H19    H     0.93254   0.40344   0.09585   0.00000  Uiso   1.00
H20    H     0.97062   0.44584   0.02801   0.00000  Uiso   1.00
H21    H     0.00312   0.46491   0.01199   0.00000  Uiso   1.00
H22    H     0.02457   0.48819   0.97063   0.00000  Uiso   1.00
H23    H     0.97042   0.49092   0.89995   0.00000  Uiso   1.00
H24    H     0.94901   0.46804   0.94146   0.00000  Uiso   1.00
H25    H     0.79562   0.96383   0.92976   0.00000  Uiso   1.00
H26    H     0.67292   0.97991   0.87949   0.00000  Uiso   1.00
H27    H     0.64332   0.00514   0.86010   0.00000  Uiso   1.00
H28    H     0.65555   0.04869   0.94817   0.00000  Uiso   1.00
H29    H     0.68582   0.02449   0.96631   0.00000  Uiso   1.00
H30    H     0.63762   0.03598   0.83706   0.00000  Uiso   1.00
H31    H     0.61132   0.07899   0.89639   0.00000  Uiso   1.00
H32    H     0.57943   0.10151   0.87913   0.00000  Uiso   1.00
H33    H     0.58374   0.07490   0.77409   0.00000  Uiso   1.00
H34    H     0.61556   0.05241   0.79143   0.00000  Uiso   1.00
H35    H     0.55217   0.11073   0.87092   0.00000  Uiso   1.00
H36    H     0.51271   0.10489   0.87130   0.00000  Uiso   1.00
H37    H     0.51625   0.07718   0.76721   0.00000  Uiso   1.00
H38    H     0.55562   0.08307   0.76674   0.00000  Uiso   1.00
H39    H     0.31029   0.17162   0.13018   0.00000  Uiso   1.00
H40    H     0.33295   0.12231   0.96798   0.00000  Uiso   1.00
H41    H     0.32621   0.15089   0.92170   0.00000  Uiso   1.00
H42    H     0.32549   0.20289   0.00050   0.00000  Uiso   1.00
H43    H     0.33231   0.17470   0.04631   0.00000  Uiso   1.00
H44    H     0.31734   0.22038   0.96785   0.00000  Uiso   1.00
H45    H     0.29834   0.25345   0.95180   0.00000  Uiso   1.00
H46    H     0.28346   0.27912   0.90647   0.00000  Uiso   1.00
H47    H     0.31161   0.23798   0.82535   0.00000  Uiso   1.00
H48    H     0.32529   0.21167   0.87053   0.00000  Uiso   1.00
H49    H     0.83934   0.66590   0.68406   0.00000  Uiso   1.00
H50    H     0.84838   0.62556   0.51704   0.00000  Uiso   1.00
H51    H     0.82550   0.64806   0.47723   0.00000  Uiso   1.00
H52    H     0.82380   0.70157   0.55343   0.00000  Uiso   1.00
H53    H     0.84671   0.67926   0.59333   0.00000  Uiso   1.00
H54    H     0.80699   0.71624   0.52156   0.00000  Uiso   1.00
H55    H     0.78597   0.74813   0.50584   0.00000  Uiso   1.00
H56    H     0.76440   0.76996   0.46285   0.00000  Uiso   1.00
H57    H     0.77315   0.71743   0.38614   0.00000  Uiso   1.00
H58    H     0.79462   0.69562   0.42918   0.00000  Uiso   1.00
H59    H     0.29091   0.42479   0.38567   0.00000  Uiso   1.00
H60    H     0.27805   0.38619   0.37097   0.00000  Uiso   1.00
H61    H     0.23029   0.39034   0.45279   0.00000  Uiso   1.00
H62    H     0.24168   0.42881   0.46738   0.00000  Uiso   1.00
H63    H     0.26755   0.35934   0.36309   0.00000  Uiso   1.00
H64    H     0.21235   0.34005   0.39254   0.00000  Uiso   1.00
H65    H     0.19597   0.30385   0.37388   0.00000  Uiso   1.00
H66    H     0.25433   0.28732   0.31811   0.00000  Uiso   1.00
H67    H     0.27027   0.32354   0.33593   0.00000  Uiso   1.00
H68    H     0.58249   0.41344   0.62424   0.00000  Uiso   1.00
H69    H     0.61236   0.39485   0.79491   0.00000  Uiso   1.00
H70    H     0.58841   0.41614   0.83444   0.00000  Uiso   1.00
H71    H     0.54175   0.42250   0.75138   0.00000  Uiso   1.00
H72    H     0.56566   0.40120   0.71148   0.00000  Uiso   1.00
H73    H     0.52542   0.43858   0.78486   0.00000  Uiso   1.00
H74    H     0.49481   0.46164   0.80127   0.00000  Uiso   1.00
H75    H     0.47534   0.48563   0.84427   0.00000  Uiso   1.00
H76    H     0.52433   0.47187   0.92156   0.00000  Uiso   1.00
H77    H     0.54375   0.44822   0.87861   0.00000  Uiso   1.00
H78    H     0.11944   0.92163   0.10367   0.00000  Uiso   1.00
H79    H     0.14848   0.89437   0.25253   0.00000  Uiso   1.00
H80    H     0.12416   0.91987   0.28586   0.00000  Uiso   1.00
H81    H     0.07121   0.90019   0.21955   0.00000  Uiso   1.00
H82    H     0.09546   0.87484   0.18630   0.00000  Uiso   1.00
H83    H     0.05627   0.92170   0.24275   0.00000  Uiso   1.00
H84    H     0.08643   0.97157   0.27829   0.00000  Uiso   1.00
H85    H     0.07025   0.00940   0.28531   0.00000  Uiso   1.00
H86    H     0.00785   0.98215   0.25981   0.00000  Uiso   1.00
H87    H     0.02424   0.94446   0.25130   0.00000  Uiso   1.00
H88    H     0.05776   0.03814   0.26650   0.00000  Uiso   1.00
H89    H     0.04348   0.07428   0.28908   0.00000  Uiso   1.00
H90    H     0.98339   0.04161   0.31394   0.00000  Uiso   1.00
H91    H     0.99757   0.00571   0.29110   0.00000  Uiso   1.00
H92    H     0.32851   0.45481   0.41399   0.00000  Uiso   1.00
H93    H     0.36726   0.46321   0.40912   0.00000  Uiso   1.00
H94    H     0.35476   0.53276   0.43307   0.00000  Uiso   1.00
H95    H     0.31575   0.52425   0.43828   0.00000  Uiso   1.00
H96    H     0.39455   0.47079   0.40760   0.00000  Uiso   1.00
H97    H     0.41904   0.52958   0.41431   0.00000  Uiso   1.00
H98    H     0.45860   0.53618   0.41220   0.00000  Uiso   1.00
H99    H     0.46912   0.46475   0.40268   0.00000  Uiso   1.00
H100   H     0.42989   0.45829   0.40389   0.00000  Uiso   1.00
H101   H     0.66158   0.66352   0.12013   0.00000  Uiso   1.00
H102   H     0.64893   0.63323   0.29026   0.00000  Uiso   1.00
H103   H     0.67331   0.65583   0.32735   0.00000  Uiso   1.00
H104   H     0.67666   0.70649   0.24671   0.00000  Uiso   1.00
H105   H     0.65212   0.68373   0.20921   0.00000  Uiso   1.00
H106   H     0.69398   0.72223   0.27907   0.00000  Uiso   1.00
H107   H     0.71592   0.75402   0.29536   0.00000  Uiso   1.00
H108   H     0.74121   0.77314   0.33603   0.00000  Uiso   1.00
H109   H     0.73559   0.71777   0.40852   0.00000  Uiso   1.00
H110   H     0.71080   0.69855   0.36775   0.00000  Uiso   1.00
H111   H     0.18751   0.16245   0.56744   0.00000  Uiso   1.00
H112   H     0.18609   0.14426   0.74115   0.00000  Uiso   1.00
H113   H     0.21395   0.16741   0.76975   0.00000  Uiso   1.00
H114   H     0.21103   0.21497   0.68460   0.00000  Uiso   1.00
H115   H     0.18320   0.19134   0.65508   0.00000  Uiso   1.00
H116   H     0.23272   0.23070   0.71109   0.00000  Uiso   1.00
H117   H     0.25536   0.26398   0.72709   0.00000  Uiso   1.00
H118   H     0.27686   0.28511   0.77136   0.00000  Uiso   1.00
H119   H     0.26906   0.23032   0.84450   0.00000  Uiso   1.00
H120   H     0.24832   0.20926   0.80019   0.00000  Uiso   1.00
H121   H     0.73700   0.05839   0.92852   0.00000  Uiso   1.00
H122   H     0.69078   0.93131   0.89990   0.00000  Uiso   1.00
H123   H     0.69147   0.89003   0.89119   0.00000  Uiso   1.00
H124   H     0.75535   0.88738   0.93492   0.00000  Uiso   1.00
H125   H     0.75459   0.92812   0.94455   0.00000  Uiso   1.00
H126   H     0.75694   0.86012   0.91268   0.00000  Uiso   1.00
H127   H     0.77637   0.82708   0.90178   0.00000  Uiso   1.00
H128   H     0.77839   0.78556   0.89710   0.00000  Uiso   1.00
H129   H     0.70909   0.78184   0.89966   0.00000  Uiso   1.00
H130   H     0.70710   0.82342   0.90378   0.00000  Uiso   1.00
H131   H     0.34779   0.89462   0.50043   0.00000  Uiso   1.00
H132   H     0.62412   0.62154   0.03482   0.00000  Uiso   1.00
H133   H     0.61995   0.36848   0.77337   0.00000  Uiso   1.00
H134   H     0.34707   0.14633   0.23181   0.00000  Uiso   1.00
H135   H     0.68881   0.95816   0.91904   0.00000  Uiso   1.00
H136   H     0.69626   0.55203   0.57287   0.00000  Uiso   1.00
H137   H     0.80098   0.52765   0.57085   0.00000  Uiso   1.00
H138   H     0.77133   0.55552   0.57016   0.00000  Uiso   1.00
C223   C     0.13903   0.11900   0.65716   0.00000  Uiso   1.00
C224   C     0.12748   0.10067   0.64586   0.00000  Uiso   1.00
C225   C     0.14209   0.09782   0.55336   0.00000  Uiso   1.00
C226   C     0.13230   0.07689   0.54288   0.00000  Uiso   1.00
C227   C     0.14501   0.05844   0.53665   0.00000  Uiso   1.00
C228   C     0.13578   0.03781   0.53121   0.00000  Uiso   1.00
C229   C     0.11383   0.03549   0.53173   0.00000  Uiso   1.00
C230   C     0.10115   0.05398   0.53838   0.00000  Uiso   1.00
C231   C     0.11034   0.07457   0.54382   0.00000  Uiso   1.00
N17    N     0.10478   0.01394   0.52863   0.00000  Uiso   1.00
C232   C     0.08745   0.00874   0.51254   0.00000  Uiso   1.00
C233   C     0.07528   0.02365   0.49018   0.00000  Uiso   1.00
C234   C     0.05345   0.02093   0.48807   0.00000  Uiso   1.00
C235   C     0.04164   0.03365   0.46512   0.00000  Uiso   1.00
C236   C     0.05150   0.04929   0.44380   0.00000  Uiso   1.00
C237   C     0.07347   0.05183   0.44588   0.00000  Uiso   1.00
C238   C     0.08527   0.03902   0.46870   0.00000  Uiso   1.00
C239   C     0.03925   0.06085   0.41679   0.00000  Uiso   1.00
C240   C     0.01740   0.05770   0.41431   0.00000  Uiso   1.00
C241   C     0.00630   0.06536   0.38572   0.00000  Uiso   1.00
C242   C     0.01671   0.07669   0.35916   0.00000  Uiso   1.00
C243   C     0.03841   0.08069   0.36231   0.00000  Uiso   1.00
C244   C     0.04956   0.07293   0.39091   0.00000  Uiso   1.00
C245   C     0.60579   0.61494   0.19129   0.00000  Uiso   1.00
C246   C     0.59269   0.60034   0.17339   0.00000  Uiso   1.00
C247   C     0.60835   0.60976   0.08192   0.00000  Uiso   1.00
C248   C     0.59484   0.59453   0.06121   0.00000  Uiso   1.00
C249   C     0.60261   0.58574   0.03022   0.00000  Uiso   1.00
C250   C     0.59002   0.57223   0.00956   0.00000  Uiso   1.00
C251   C     0.56935   0.56722   0.01933   0.00000  Uiso   1.00
C252   C     0.56140   0.57589   0.05025   0.00000  Uiso   1.00
C253   C     0.57403   0.58947   0.07088   0.00000  Uiso   1.00
N18    N     0.55676   0.55374   0.99700   0.00000  Uiso   1.00
C254   C     0.53733   0.54834   0.00330   0.00000  Uiso   1.00
C255   C     0.52516   0.53473   0.97906   0.00000  Uiso   1.00
C256   C     0.50430   0.52917   0.98690   0.00000  Uiso   1.00
C257   C     0.49242   0.51633   0.96406   0.00000  Uiso   1.00
C258   C     0.50118   0.50886   0.93290   0.00000  Uiso   1.00
C259   C     0.52211   0.51472   0.92515   0.00000  Uiso   1.00
C260   C     0.53400   0.52745   0.94802   0.00000  Uiso   1.00
C261   C     0.72017   0.02718   0.92971   0.00000  Uiso   1.00
C262   C     0.72072   0.00408   0.93031   0.00000  Uiso   1.00
C263   C     0.77703   0.04264   0.92549   0.00000  Uiso   1.00
C264   C     0.81777   0.99837   0.92245   0.00000  Uiso   1.00
C265   C     0.83030   0.00413   0.89404   0.00000  Uiso   1.00
C266   C     0.84675   0.99032   0.88352   0.00000  Uiso   1.00
C267   C     0.85106   0.97084   0.90178   0.00000  Uiso   1.00
C268   C     0.83994   0.96619   0.93184   0.00000  Uiso   1.00
C269   C     0.82333   0.97972   0.94191   0.00000  Uiso   1.00
N19    N     0.86559   0.95478   0.88918   0.00000  Uiso   1.00
C270   C     0.87033   0.95292   0.85687   0.00000  Uiso   1.00
C271   C     0.88584   0.93666   0.84545   0.00000  Uiso   1.00
C272   C     0.89531   0.92244   0.86920   0.00000  Uiso   1.00
C273   C     0.91283   0.91002   0.85970   0.00000  Uiso   1.00
C274   C     0.92114   0.91152   0.82629   0.00000  Uiso   1.00
C275   C     0.91053   0.92461   0.80190   0.00000  Uiso   1.00
C276   C     0.89295   0.93709   0.81142   0.00000  Uiso   1.00
C277   C     0.94348   0.90542   0.82048   0.00000  Uiso   1.00
C278   C     0.95570   0.89806   0.84838   0.00000  Uiso   1.00
C279   C     0.97746   0.90142   0.84878   0.00000  Uiso   1.00
C280   C     0.98735   0.91257   0.82149   0.00000  Uiso   1.00
C281   C     0.97554   0.91667   0.79149   0.00000  Uiso   1.00
C282   C     0.95382   0.91329   0.79107   0.00000  Uiso   1.00
N20    N     0.00684   0.07794   0.32574   0.00000  Uiso   1.00
C283   C     0.16573   0.85280   0.14536   0.00000  Uiso   1.00
C284   C     0.17839   0.84183   0.12132   0.00000  Uiso   1.00
C285   C     0.16218   0.86947   0.03743   0.00000  Uiso   1.00
C286   C     0.16739   0.85327   0.01012   0.00000  Uiso   1.00
C287   C     0.16884   0.85961   0.97541   0.00000  Uiso   1.00
C288   C     0.17248   0.84383   0.94979   0.00000  Uiso   1.00
C289   C     0.17452   0.82156   0.95855   0.00000  Uiso   1.00
C290   C     0.17286   0.81521   0.99310   0.00000  Uiso   1.00
C291   C     0.16921   0.83089   0.01840   0.00000  Uiso   1.00
N21    N     0.17884   0.80565   0.93234   0.00000  Uiso   1.00
C292   C     0.18301   0.78531   0.93988   0.00000  Uiso   1.00
C293   C     0.18821   0.76919   0.91345   0.00000  Uiso   1.00
C294   C     0.19922   0.75033   0.92333   0.00000  Uiso   1.00
C295   C     0.20724   0.73611   0.89841   0.00000  Uiso   1.00
C296   C     0.20400   0.74031   0.86325   0.00000  Uiso   1.00
C297   C     0.19194   0.75878   0.85367   0.00000  Uiso   1.00
C298   C     0.18423   0.77325   0.87859   0.00000  Uiso   1.00
C299   C     0.63450   0.35772   0.68979   0.00000  Uiso   1.00
C300   C     0.64900   0.34547   0.67050   0.00000  Uiso   1.00
C301   C     0.63651   0.36230   0.58032   0.00000  Uiso   1.00
C302   C     0.65101   0.34911   0.55790   0.00000  Uiso   1.00
C303   C     0.65705   0.35737   0.52553   0.00000  Uiso   1.00
C304   C     0.66971   0.34494   0.50333   0.00000  Uiso   1.00
C305   C     0.67657   0.32393   0.51290   0.00000  Uiso   1.00
C306   C     0.67066   0.31550   0.54517   0.00000  Uiso   1.00
C307   C     0.65797   0.32796   0.56733   0.00000  Uiso   1.00
N22    N     0.68901   0.31137   0.48906   0.00000  Uiso   1.00
C308   C     0.69623   0.29179   0.49555   0.00000  Uiso   1.00
C309   C     0.70864   0.27942   0.47000   0.00000  Uiso   1.00
C310   C     0.71695   0.25887   0.47902   0.00000  Uiso   1.00
C311   C     0.72887   0.24678   0.45530   0.00000  Uiso   1.00
C312   C     0.73269   0.25503   0.42206   0.00000  Uiso   1.00
C313   C     0.72413   0.27559   0.41303   0.00000  Uiso   1.00
C314   C     0.71222   0.28770   0.43679   0.00000  Uiso   1.00
C315   C     0.25357   0.46946   0.43127   0.00000  Uiso   1.00
C316   C     0.20359   0.51650   0.42904   0.00000  Uiso   1.00
C317   C     0.23408   0.57002   0.42679   0.00000  Uiso   1.00
C318   C     0.22308   0.58275   0.39986   0.00000  Uiso   1.00
C319   C     0.23002   0.60392   0.39216   0.00000  Uiso   1.00
C320   C     0.24696   0.61326   0.41035   0.00000  Uiso   1.00
C321   C     0.25653   0.60166   0.43720   0.00000  Uiso   1.00
C322   C     0.25022   0.58030   0.44537   0.00000  Uiso   1.00
N23    N     0.25573   0.63398   0.40045   0.00000  Uiso   1.00
C323   C     0.24765   0.64603   0.37635   0.00000  Uiso   1.00
C324   C     0.25766   0.66655   0.36566   0.00000  Uiso   1.00
C325   C     0.27825   0.67190   0.37587   0.00000  Uiso   1.00
C326   C     0.28726   0.69185   0.36565   0.00000  Uiso   1.00
C327   C     0.27577   0.70671   0.34523   0.00000  Uiso   1.00
C328   C     0.25524   0.70094   0.33488   0.00000  Uiso   1.00
C329   C     0.24631   0.68098   0.34483   0.00000  Uiso   1.00
N24    N     0.21596   0.72838   0.83753   0.00000  Uiso   1.00
C330   C     0.89268   0.61170   0.61825   0.00000  Uiso   1.00
C331   C     0.90655   0.59873   0.63767   0.00000  Uiso   1.00
C332   C     0.89470   0.61627   0.72776   0.00000  Uiso   1.00
C333   C     0.90924   0.60319   0.75038   0.00000  Uiso   1.00
C334   C     0.90342   0.59895   0.78468   0.00000  Uiso   1.00
C335   C     0.91667   0.58719   0.80677   0.00000  Uiso   1.00
C336   C     0.93619   0.57942   0.79529   0.00000  Uiso   1.00
C337   C     0.94235   0.58366   0.76117   0.00000  Uiso   1.00
C338   C     0.92899   0.59548   0.73902   0.00000  Uiso   1.00
N25    N     0.94911   0.56714   0.81883   0.00000  Uiso   1.00
C339   C     0.96747   0.55886   0.81152   0.00000  Uiso   1.00
C340   C     0.97938   0.54610   0.83734   0.00000  Uiso   1.00
C341   C     0.99840   0.53590   0.82817   0.00000  Uiso   1.00
C342   C     0.00920   0.52262   0.85193   0.00000  Uiso   1.00
C343   C     0.00114   0.51934   0.88528   0.00000  Uiso   1.00
C344   C     0.98233   0.53009   0.89447   0.00000  Uiso   1.00
C345   C     0.97154   0.54326   0.87078   0.00000  Uiso   1.00
C346   C     0.35914   0.10510   0.08779   0.00000  Uiso   1.00
C347   C     0.37138   0.09365   0.11187   0.00000  Uiso   1.00
C348   C     0.36176   0.12585   0.19178   0.00000  Uiso   1.00
C349   C     0.37649   0.11560   0.21627   0.00000  Uiso   1.00
C350   C     0.36874   0.10381   0.24454   0.00000  Uiso   1.00
C351   C     0.38214   0.08983   0.26292   0.00000  Uiso   1.00
C352   C     0.40330   0.08768   0.25328   0.00000  Uiso   1.00
C353   C     0.41132   0.10066   0.22639   0.00000  Uiso   1.00
C354   C     0.39798   0.11457   0.20806   0.00000  Uiso   1.00
N26    N     0.41486   0.06915   0.26573   0.00000  Uiso   1.00
C355   C     0.43419   0.06519   0.25688   0.00000  Uiso   1.00
C356   C     0.44389   0.04400   0.26488   0.00000  Uiso   1.00
C357   C     0.43121   0.02602   0.27399   0.00000  Uiso   1.00
C358   C     0.44010   0.00520   0.27781   0.00000  Uiso   1.00
C359   C     0.46176   0.00205   0.27248   0.00000  Uiso   1.00
C360   C     0.47445   0.02014   0.26358   0.00000  Uiso   1.00
C361   C     0.46549   0.04099   0.25931   0.00000  Uiso   1.00
C362   C     0.47119   0.98034   0.27928   0.00000  Uiso   1.00
C363   C     0.45882   0.96117   0.27782   0.00000  Uiso   1.00
C364   C     0.46670   0.94120   0.29017   0.00000  Uiso   1.00
C365   C     0.48711   0.94018   0.30390   0.00000  Uiso   1.00
C366   C     0.49975   0.95917   0.30379   0.00000  Uiso   1.00
C367   C     0.49192   0.97904   0.29139   0.00000  Uiso   1.00
C368   C     0.27978   0.49924   0.43057   0.00000  Uiso   1.00
C369   C     0.22997   0.54616   0.43016   0.00000  Uiso   1.00
C370   C     0.18049   0.51090   0.42635   0.00000  Uiso   1.00
C371   C     0.16585   0.52757   0.41835   0.00000  Uiso   1.00
C372   C     0.14430   0.52301   0.41558   0.00000  Uiso   1.00
C373   C     0.13671   0.50152   0.42070   0.00000  Uiso   1.00
C374   C     0.15107   0.48480   0.42876   0.00000  Uiso   1.00
C375   C     0.17266   0.48946   0.43160   0.00000  Uiso   1.00
N27    N     0.11460   0.49641   0.41814   0.00000  Uiso   1.00
C376   C     0.10047   0.51136   0.41180   0.00000  Uiso   1.00
C377   C     0.07775   0.50651   0.40965   0.00000  Uiso   1.00
C378   C     0.06972   0.48499   0.41174   0.00000  Uiso   1.00
C379   C     0.04785   0.48133   0.41067   0.00000  Uiso   1.00
C380   C     0.03382   0.49916   0.40772   0.00000  Uiso   1.00
C381   C     0.04201   0.52059   0.40532   0.00000  Uiso   1.00
C382   C     0.06377   0.52419   0.40613   0.00000  Uiso   1.00
N28    N     0.01127   0.50422   0.90905   0.00000  Uiso   1.00
C383   C     0.86433   0.36060   0.11673   0.00000  Uiso   1.00
C384   C     0.85046   0.34684   0.13475   0.00000  Uiso   1.00
C385   C     0.86571   0.35667   0.22623   0.00000  Uiso   1.00
C386   C     0.85087   0.34300   0.24722   0.00000  Uiso   1.00
C387   C     0.84490   0.35036   0.28010   0.00000  Uiso   1.00
C388   C     0.83143   0.33787   0.30080   0.00000  Uiso   1.00
C389   C     0.82365   0.31764   0.28928   0.00000  Uiso   1.00
C390   C     0.82955   0.30999   0.25650   0.00000  Uiso   1.00
C391   C     0.84308   0.32257   0.23573   0.00000  Uiso   1.00
N29    N     0.80987   0.30542   0.31153   0.00000  Uiso   1.00
C392   C     0.80201   0.28619   0.30448   0.00000  Uiso   1.00
C393   C     0.78787   0.27495   0.32895   0.00000  Uiso   1.00
C394   C     0.77953   0.25429   0.32062   0.00000  Uiso   1.00
C395   C     0.76558   0.24365   0.34311   0.00000  Uiso   1.00
C396   C     0.75979   0.25345   0.37453   0.00000  Uiso   1.00
C397   C     0.76855   0.27403   0.38299   0.00000  Uiso   1.00
C398   C     0.78238   0.28471   0.36042   0.00000  Uiso   1.00
C399   C     0.33590   0.86399   0.57470   0.00000  Uiso   1.00
C400   C     0.32264   0.84714   0.58647   0.00000  Uiso   1.00
C401   C     0.33338   0.84782   0.68092   0.00000  Uiso   1.00
C402   C     0.31701   0.83355   0.69652   0.00000  Uiso   1.00
C403   C     0.30836   0.83992   0.72816   0.00000  Uiso   1.00
C404   C     0.29302   0.82717   0.74405   0.00000  Uiso   1.00
C405   C     0.28607   0.80774   0.72874   0.00000  Uiso   1.00
C406   C     0.29458   0.80100   0.69707   0.00000  Uiso   1.00
C407   C     0.30996   0.81397   0.68093   0.00000  Uiso   1.00
N30    N     0.27130   0.79478   0.74745   0.00000  Uiso   1.00
C408   C     0.26336   0.77616   0.73766   0.00000  Uiso   1.00
C409   C     0.24943   0.76444   0.76149   0.00000  Uiso   1.00
C410   C     0.24150   0.74354   0.75349   0.00000  Uiso   1.00
C411   C     0.22970   0.73187   0.77793   0.00000  Uiso   1.00
C412   C     0.22592   0.74104   0.81058   0.00000  Uiso   1.00
C413   C     0.23390   0.76201   0.81815   0.00000  Uiso   1.00
C414   C     0.24541   0.77360   0.79386   0.00000  Uiso   1.00
C415   C     0.76155   0.96033   0.92905   0.00000  Uiso   1.00
C416   C     0.74166   0.97018   0.92902   0.00000  Uiso   1.00
C417   C     0.79804   0.00856   0.92704   0.00000  Uiso   1.00
C418   C     0.77705   0.06733   0.92185   0.00000  Uiso   1.00
C419   C     0.79454   0.07837   0.90759   0.00000  Uiso   1.00
C420   C     0.79421   0.10127   0.90264   0.00000  Uiso   1.00
C421   C     0.77636   0.11360   0.91168   0.00000  Uiso   1.00
C422   C     0.75915   0.10281   0.92676   0.00000  Uiso   1.00
C423   C     0.75961   0.08009   0.93189   0.00000  Uiso   1.00
N31    N     0.77603   0.13697   0.90591   0.00000  Uiso   1.00
C424   C     0.75876   0.14844   0.90757   0.00000  Uiso   1.00
C425   C     0.75835   0.17247   0.90311   0.00000  Uiso   1.00
C426   C     0.73879   0.18303   0.90125   0.00000  Uiso   1.00
C427   C     0.73763   0.20597   0.89874   0.00000  Uiso   1.00
C428   C     0.75608   0.21872   0.89822   0.00000  Uiso   1.00
C429   C     0.77574   0.20807   0.90007   0.00000  Uiso   1.00
C430   C     0.77688   0.18508   0.90242   0.00000  Uiso   1.00
N32    N     0.74519   0.24251   0.39770   0.00000  Uiso   1.00
C431   C     0.15212   0.11080   0.52853   0.00000  Uiso   1.00
C432   C     0.87708   0.37721   0.06404   0.00000  Uiso   1.00
C433   C     0.88029   0.63030   0.74408   0.00000  Uiso   1.00
C434   C     0.15251   0.85835   0.20339   0.00000  Uiso   1.00
C435   C     0.79642   0.03152   0.92358   0.00000  Uiso   1.00
C436   C     0.79091   0.46110   0.57132   0.00000  Uiso   1.00
C437   C     0.75836   0.49216   0.56844   0.00000  Uiso   1.00
C438   C     0.71612   0.47816   0.57004   0.00000  Uiso   1.00
C439   C     0.73240   0.46286   0.56968   0.00000  Uiso   1.00
C440   C     0.12100   0.62648   0.86431   0.00000  Uiso   1.00
C441   C     0.12031   0.62804   0.82771   0.00000  Uiso   1.00
C442   C     0.65233   0.87618   0.90135   0.00000  Uiso   1.00
C443   C     0.65225   0.86986   0.86628   0.00000  Uiso   1.00
C444   C     0.74057   0.99354   0.93056   0.00000  Uiso   1.00
H139   H     0.11697   0.09131   0.66466   0.00000  Uiso   1.00
H140   H     0.16291   0.06023   0.53601   0.00000  Uiso   1.00
H141   H     0.14615   0.02279   0.52632   0.00000  Uiso   1.00
H142   H     0.08325   0.05220   0.53935   0.00000  Uiso   1.00
H143   H     0.09993   0.08952   0.54904   0.00000  Uiso   1.00
H144   H     0.08059   0.99146   0.51525   0.00000  Uiso   1.00
H145   H     0.04520   0.00829   0.50511   0.00000  Uiso   1.00
H146   H     0.02381   0.03141   0.46353   0.00000  Uiso   1.00
H147   H     0.08180   0.06442   0.42886   0.00000  Uiso   1.00
H148   H     0.10313   0.04111   0.46981   0.00000  Uiso   1.00
H149   H     0.00856   0.04881   0.43577   0.00000  Uiso   1.00
H150   H     0.98857   0.06245   0.38372   0.00000  Uiso   1.00
H151   H     0.04708   0.09033   0.34147   0.00000  Uiso   1.00
H152   H     0.06717   0.07639   0.39339   0.00000  Uiso   1.00
H153   H     0.58111   0.58947   0.18808   0.00000  Uiso   1.00
H154   H     0.61941   0.58960   0.02162   0.00000  Uiso   1.00
H155   H     0.59659   0.56521   0.98454   0.00000  Uiso   1.00
H156   H     0.54460   0.57188   0.05865   0.00000  Uiso   1.00
H157   H     0.56746   0.59656   0.09585   0.00000  Uiso   1.00
H158   H     0.52938   0.55416   0.02801   0.00000  Uiso   1.00
H159   H     0.49688   0.53509   0.01199   0.00000  Uiso   1.00
H160   H     0.47543   0.51181   0.97063   0.00000  Uiso   1.00
H161   H     0.52958   0.50908   0.89995   0.00000  Uiso   1.00
H162   H     0.55099   0.53196   0.94146   0.00000  Uiso   1.00
H163   H     0.70438   0.03617   0.92976   0.00000  Uiso   1.00
H164   H     0.82708   0.02009   0.87949   0.00000  Uiso   1.00
H165   H     0.85668   0.99486   0.86010   0.00000  Uiso   1.00
H166   H     0.84445   0.95131   0.94817   0.00000  Uiso   1.00
H167   H     0.81418   0.97551   0.96631   0.00000  Uiso   1.00
H168   H     0.86238   0.96402   0.83706   0.00000  Uiso   1.00
H169   H     0.88868   0.92101   0.89639   0.00000  Uiso   1.00
H170   H     0.92057   0.89849   0.87913   0.00000  Uiso   1.00
H171   H     0.91626   0.92510   0.77409   0.00000  Uiso   1.00
H172   H     0.88444   0.94759   0.79143   0.00000  Uiso   1.00
H173   H     0.94783   0.88927   0.87092   0.00000  Uiso   1.00
H174   H     0.98729   0.89511   0.87130   0.00000  Uiso   1.00
H175   H     0.98375   0.92282   0.76721   0.00000  Uiso   1.00
H176   H     0.94438   0.91693   0.76674   0.00000  Uiso   1.00
H177   H     0.18971   0.82838   0.13018   0.00000  Uiso   1.00
H178   H     0.16705   0.87769   0.96798   0.00000  Uiso   1.00
H179   H     0.17379   0.84911   0.92170   0.00000  Uiso   1.00
H180   H     0.17451   0.79711   0.00050   0.00000  Uiso   1.00
H181   H     0.16769   0.82530   0.04631   0.00000  Uiso   1.00
H182   H     0.18266   0.77962   0.96785   0.00000  Uiso   1.00
H183   H     0.20166   0.74655   0.95180   0.00000  Uiso   1.00
H184   H     0.21654   0.72088   0.90647   0.00000  Uiso   1.00
H185   H     0.18839   0.76202   0.82535   0.00000  Uiso   1.00
H186   H     0.17471   0.78833   0.87053   0.00000  Uiso   1.00
H187   H     0.66066   0.33410   0.68406   0.00000  Uiso   1.00
H188   H     0.65162   0.37444   0.51704   0.00000  Uiso   1.00
H189   H     0.67450   0.35194   0.47723   0.00000  Uiso   1.00
H190   H     0.67620   0.29843   0.55343   0.00000  Uiso   1.00
H191   H     0.65329   0.32074   0.59333   0.00000  Uiso   1.00
H192   H     0.69301   0.28376   0.52156   0.00000  Uiso   1.00
H193   H     0.71403   0.25187   0.50584   0.00000  Uiso   1.00
H194   H     0.73560   0.23004   0.46285   0.00000  Uiso   1.00
H195   H     0.72685   0.28257   0.38614   0.00000  Uiso   1.00
H196   H     0.70538   0.30438   0.42918   0.00000  Uiso   1.00
H197   H     0.20909   0.57521   0.38567   0.00000  Uiso   1.00
H198   H     0.22195   0.61381   0.37097   0.00000  Uiso   1.00
H199   H     0.26971   0.60966   0.45279   0.00000  Uiso   1.00
H200   H     0.25832   0.57119   0.46738   0.00000  Uiso   1.00
H201   H     0.23245   0.64066   0.36309   0.00000  Uiso   1.00
H202   H     0.28765   0.65995   0.39254   0.00000  Uiso   1.00
H203   H     0.30403   0.69615   0.37388   0.00000  Uiso   1.00
H204   H     0.24567   0.71268   0.31811   0.00000  Uiso   1.00
H205   H     0.22973   0.67646   0.33593   0.00000  Uiso   1.00
H206   H     0.91751   0.58656   0.62424   0.00000  Uiso   1.00
H207   H     0.88764   0.60515   0.79491   0.00000  Uiso   1.00
H208   H     0.91159   0.58386   0.83444   0.00000  Uiso   1.00
H209   H     0.95825   0.57750   0.75138   0.00000  Uiso   1.00
H210   H     0.93434   0.59880   0.71148   0.00000  Uiso   1.00
H211   H     0.97458   0.56142   0.78486   0.00000  Uiso   1.00
H212   H     0.00519   0.53836   0.80127   0.00000  Uiso   1.00
H213   H     0.02466   0.51437   0.84427   0.00000  Uiso   1.00
H214   H     0.97567   0.52813   0.92156   0.00000  Uiso   1.00
H215   H     0.95625   0.55178   0.87861   0.00000  Uiso   1.00
H216   H     0.38056   0.07837   0.10367   0.00000  Uiso   1.00
H217   H     0.35152   0.10563   0.25253   0.00000  Uiso   1.00
H218   H     0.37584   0.08013   0.28586   0.00000  Uiso   1.00
H219   H     0.42879   0.09981   0.21955   0.00000  Uiso   1.00
H220   H     0.40454   0.12516   0.18630   0.00000  Uiso   1.00
H221   H     0.44373   0.07830   0.24275   0.00000  Uiso   1.00
H222   H     0.41357   0.02843   0.27829   0.00000  Uiso   1.00
H223   H     0.42975   0.99060   0.28531   0.00000  Uiso   1.00
H224   H     0.49215   0.01785   0.25981   0.00000  Uiso   1.00
H225   H     0.47576   0.05554   0.25130   0.00000  Uiso   1.00
H226   H     0.44224   0.96186   0.26650   0.00000  Uiso   1.00
H227   H     0.45652   0.92572   0.28908   0.00000  Uiso   1.00
H228   H     0.51661   0.95839   0.31394   0.00000  Uiso   1.00
H229   H     0.50243   0.99429   0.29110   0.00000  Uiso   1.00
H230   H     0.17149   0.54519   0.41399   0.00000  Uiso   1.00
H231   H     0.13274   0.53679   0.40912   0.00000  Uiso   1.00
H232   H     0.14524   0.46724   0.43307   0.00000  Uiso   1.00
H233   H     0.18425   0.47575   0.43828   0.00000  Uiso   1.00
H234   H     0.10545   0.52921   0.40760   0.00000  Uiso   1.00
H235   H     0.08096   0.47042   0.41431   0.00000  Uiso   1.00
H236   H     0.04140   0.46382   0.41220   0.00000  Uiso   1.00
H237   H     0.03088   0.53525   0.40268   0.00000  Uiso   1.00
H238   H     0.07011   0.54171   0.40389   0.00000  Uiso   1.00
H239   H     0.83842   0.33648   0.12013   0.00000  Uiso   1.00
H240   H     0.85107   0.36677   0.29026   0.00000  Uiso   1.00
H241   H     0.82669   0.34417   0.32735   0.00000  Uiso   1.00
H242   H     0.82334   0.29351   0.24671   0.00000  Uiso   1.00
H243   H     0.84788   0.31627   0.20921   0.00000  Uiso   1.00
H244   H     0.80602   0.27777   0.27907   0.00000  Uiso   1.00
H245   H     0.78408   0.24598   0.29536   0.00000  Uiso   1.00
H246   H     0.75879   0.22686   0.33603   0.00000  Uiso   1.00
H247   H     0.76441   0.28223   0.40852   0.00000  Uiso   1.00
H248   H     0.78920   0.30145   0.36775   0.00000  Uiso   1.00
H249   H     0.31249   0.83755   0.56744   0.00000  Uiso   1.00
H250   H     0.31391   0.85574   0.74115   0.00000  Uiso   1.00
H251   H     0.28605   0.83259   0.76975   0.00000  Uiso   1.00
H252   H     0.28897   0.78503   0.68460   0.00000  Uiso   1.00
H253   H     0.31680   0.80866   0.65508   0.00000  Uiso   1.00
H254   H     0.26728   0.76930   0.71109   0.00000  Uiso   1.00
H255   H     0.24464   0.73602   0.72709   0.00000  Uiso   1.00
H256   H     0.22314   0.71489   0.77136   0.00000  Uiso   1.00
H257   H     0.23094   0.76968   0.84450   0.00000  Uiso   1.00
H258   H     0.25168   0.79074   0.80019   0.00000  Uiso   1.00
H259   H     0.76300   0.94161   0.92852   0.00000  Uiso   1.00
H260   H     0.80922   0.06869   0.89990   0.00000  Uiso   1.00
H261   H     0.80853   0.10997   0.89119   0.00000  Uiso   1.00
H262   H     0.74465   0.11262   0.93492   0.00000  Uiso   1.00
H263   H     0.74541   0.07188   0.94455   0.00000  Uiso   1.00
H264   H     0.74306   0.13988   0.91268   0.00000  Uiso   1.00
H265   H     0.72363   0.17292   0.90178   0.00000  Uiso   1.00
H266   H     0.72161   0.21444   0.89710   0.00000  Uiso   1.00
H267   H     0.79091   0.21816   0.89966   0.00000  Uiso   1.00
H268   H     0.79290   0.17658   0.90378   0.00000  Uiso   1.00
H269   H     0.15221   0.10538   0.50043   0.00000  Uiso   1.00
H270   H     0.87588   0.37846   0.03482   0.00000  Uiso   1.00
H271   H     0.88005   0.63152   0.77337   0.00000  Uiso   1.00
H272   H     0.15293   0.85367   0.23181   0.00000  Uiso   1.00
H273   H     0.81119   0.04184   0.91904   0.00000  Uiso   1.00
H274   H     0.80374   0.44797   0.57287   0.00000  Uiso   1.00
H275   H     0.69902   0.47235   0.57085   0.00000  Uiso   1.00
H276   H     0.72867   0.44448   0.57016   0.00000  Uiso   1.00
C445   C     0.63903   0.88100   0.84284   0.00000  Uiso   1.00
C446   C     0.62748   0.89933   0.85414   0.00000  Uiso   1.00
C447   C     0.64209   0.90218   0.94664   0.00000  Uiso   1.00
C448   C     0.63230   0.92311   0.95712   0.00000  Uiso   1.00
C449   C     0.64501   0.94156   0.96335   0.00000  Uiso   1.00
C450   C     0.63578   0.96219   0.96879   0.00000  Uiso   1.00
C451   C     0.61383   0.96451   0.96827   0.00000  Uiso   1.00
C452   C     0.60115   0.94602   0.96162   0.00000  Uiso   1.00
C453   C     0.61034   0.92543   0.95618   0.00000  Uiso   1.00
N33    N     0.60478   0.98606   0.97137   0.00000  Uiso   1.00
C454   C     0.58745   0.99126   0.98746   0.00000  Uiso   1.00
C455   C     0.57528   0.97635   0.00982   0.00000  Uiso   1.00
C456   C     0.55345   0.97907   0.01193   0.00000  Uiso   1.00
C457   C     0.54164   0.96635   0.03488   0.00000  Uiso   1.00
C458   C     0.55150   0.95071   0.05620   0.00000  Uiso   1.00
C459   C     0.57347   0.94817   0.05412   0.00000  Uiso   1.00
C460   C     0.58527   0.96098   0.03130   0.00000  Uiso   1.00
C461   C     0.53925   0.93915   0.08321   0.00000  Uiso   1.00
C462   C     0.51740   0.94230   0.08569   0.00000  Uiso   1.00
C463   C     0.50630   0.93464   0.11428   0.00000  Uiso   1.00
C464   C     0.51671   0.92331   0.14084   0.00000  Uiso   1.00
C465   C     0.53841   0.91931   0.13769   0.00000  Uiso   1.00
C466   C     0.54956   0.92707   0.10909   0.00000  Uiso   1.00
C467   C     0.10579   0.38506   0.30871   0.00000  Uiso   1.00
C468   C     0.09269   0.39966   0.32661   0.00000  Uiso   1.00
C469   C     0.10835   0.39024   0.41808   0.00000  Uiso   1.00
C470   C     0.09484   0.40547   0.43879   0.00000  Uiso   1.00
C471   C     0.10261   0.41426   0.46978   0.00000  Uiso   1.00
C472   C     0.09002   0.42777   0.49044   0.00000  Uiso   1.00
C473   C     0.06935   0.43278   0.48067   0.00000  Uiso   1.00
C474   C     0.06140   0.42411   0.44975   0.00000  Uiso   1.00
C475   C     0.07403   0.41053   0.42912   0.00000  Uiso   1.00
N34    N     0.05676   0.44626   0.50300   0.00000  Uiso   1.00
C476   C     0.03733   0.45166   0.49670   0.00000  Uiso   1.00
C477   C     0.02516   0.46527   0.52094   0.00000  Uiso   1.00
C478   C     0.00430   0.47083   0.51310   0.00000  Uiso   1.00
C479   C     0.99242   0.48367   0.53594   0.00000  Uiso   1.00
C480   C     0.00118   0.49114   0.56710   0.00000  Uiso   1.00
C481   C     0.02211   0.48528   0.57485   0.00000  Uiso   1.00
C482   C     0.03400   0.47255   0.55198   0.00000  Uiso   1.00
C483   C     0.22017   0.97282   0.57029   0.00000  Uiso   1.00
C484   C     0.22072   0.99592   0.56969   0.00000  Uiso   1.00
C485   C     0.27703   0.95736   0.57451   0.00000  Uiso   1.00
C486   C     0.31777   0.00163   0.57755   0.00000  Uiso   1.00
C487   C     0.33030   0.99587   0.60596   0.00000  Uiso   1.00
C488   C     0.34675   0.00968   0.61648   0.00000  Uiso   1.00
C489   C     0.35106   0.02916   0.59822   0.00000  Uiso   1.00
C490   C     0.33994   0.03381   0.56816   0.00000  Uiso   1.00
C491   C     0.32333   0.02028   0.55809   0.00000  Uiso   1.00
N35    N     0.36559   0.04522   0.61082   0.00000  Uiso   1.00
C492   C     0.37033   0.04708   0.64313   0.00000  Uiso   1.00
C493   C     0.38584   0.06334   0.65455   0.00000  Uiso   1.00
C494   C     0.39531   0.07756   0.63080   0.00000  Uiso   1.00
C495   C     0.41283   0.08998   0.64030   0.00000  Uiso   1.00
C496   C     0.42114   0.08848   0.67371   0.00000  Uiso   1.00
C497   C     0.41053   0.07539   0.69810   0.00000  Uiso   1.00
C498   C     0.39295   0.06291   0.68858   0.00000  Uiso   1.00
C499   C     0.44348   0.09458   0.67952   0.00000  Uiso   1.00
C500   C     0.45570   0.10194   0.65162   0.00000  Uiso   1.00
C501   C     0.47746   0.09858   0.65122   0.00000  Uiso   1.00
C502   C     0.48735   0.08743   0.67851   0.00000  Uiso   1.00
C503   C     0.47554   0.08333   0.70851   0.00000  Uiso   1.00
C504   C     0.45382   0.08671   0.70893   0.00000  Uiso   1.00
N36    N     0.50684   0.92206   0.17426   0.00000  Uiso   1.00
C505   C     0.66573   0.14720   0.35464   0.00000  Uiso   1.00
C506   C     0.67839   0.15817   0.37868   0.00000  Uiso   1.00
C507   C     0.66218   0.13053   0.46257   0.00000  Uiso   1.00
C508   C     0.66739   0.14673   0.48988   0.00000  Uiso   1.00
C509   C     0.66884   0.14039   0.52459   0.00000  Uiso   1.00
C510   C     0.67248   0.15617   0.55021   0.00000  Uiso   1.00
C511   C     0.67452   0.17844   0.54145   0.00000  Uiso   1.00
C512   C     0.67286   0.18479   0.50690   0.00000  Uiso   1.00
C513   C     0.66921   0.16911   0.48160   0.00000  Uiso   1.00
N37    N     0.67884   0.19435   0.56766   0.00000  Uiso   1.00
C514   C     0.68301   0.21469   0.56012   0.00000  Uiso   1.00
C515   C     0.68821   0.23081   0.58655   0.00000  Uiso   1.00
C516   C     0.69922   0.24967   0.57667   0.00000  Uiso   1.00
C517   C     0.70724   0.26389   0.60159   0.00000  Uiso   1.00
C518   C     0.70400   0.25969   0.63675   0.00000  Uiso   1.00
C519   C     0.69194   0.24122   0.64633   0.00000  Uiso   1.00
C520   C     0.68423   0.22675   0.62141   0.00000  Uiso   1.00
C521   C     0.13450   0.64228   0.81021   0.00000  Uiso   1.00
C522   C     0.14900   0.65453   0.82950   0.00000  Uiso   1.00
C523   C     0.13651   0.63770   0.91968   0.00000  Uiso   1.00
C524   C     0.15101   0.65089   0.94210   0.00000  Uiso   1.00
C525   C     0.15705   0.64263   0.97447   0.00000  Uiso   1.00
C526   C     0.16971   0.65506   0.99667   0.00000  Uiso   1.00
C527   C     0.17657   0.67607   0.98710   0.00000  Uiso   1.00
C528   C     0.17066   0.68450   0.95483   0.00000  Uiso   1.00
C529   C     0.15797   0.67204   0.93267   0.00000  Uiso   1.00
N38    N     0.18901   0.68863   0.01094   0.00000  Uiso   1.00
C530   C     0.19623   0.70821   0.00445   0.00000  Uiso   1.00
C531   C     0.20864   0.72058   0.03000   0.00000  Uiso   1.00
C532   C     0.21695   0.74113   0.02098   0.00000  Uiso   1.00
C533   C     0.22887   0.75322   0.04470   0.00000  Uiso   1.00
C534   C     0.23269   0.74497   0.07794   0.00000  Uiso   1.00
C535   C     0.22413   0.72441   0.08697   0.00000  Uiso   1.00
C536   C     0.21222   0.71230   0.06321   0.00000  Uiso   1.00
C537   C     0.75357   0.53054   0.06873   0.00000  Uiso   1.00
C538   C     0.70359   0.48350   0.07096   0.00000  Uiso   1.00
C539   C     0.73408   0.42998   0.07321   0.00000  Uiso   1.00
C540   C     0.72308   0.41725   0.10014   0.00000  Uiso   1.00
C541   C     0.73002   0.39608   0.10784   0.00000  Uiso   1.00
C542   C     0.74696   0.38674   0.08965   0.00000  Uiso   1.00
C543   C     0.75653   0.39834   0.06280   0.00000  Uiso   1.00
C544   C     0.75022   0.41970   0.05463   0.00000  Uiso   1.00
N39    N     0.75573   0.36602   0.09955   0.00000  Uiso   1.00
C545   C     0.74765   0.35397   0.12365   0.00000  Uiso   1.00
C546   C     0.75766   0.33345   0.13434   0.00000  Uiso   1.00
C547   C     0.77825   0.32810   0.12413   0.00000  Uiso   1.00
C548   C     0.78726   0.30815   0.13435   0.00000  Uiso   1.00
C549   C     0.77577   0.29329   0.15477   0.00000  Uiso   1.00
C550   C     0.75524   0.29906   0.16512   0.00000  Uiso   1.00
C551   C     0.74631   0.31902   0.15517   0.00000  Uiso   1.00
N40    N     0.71596   0.27162   0.66247   0.00000  Uiso   1.00
C552   C     0.39268   0.38830   0.88175   0.00000  Uiso   1.00
C553   C     0.40655   0.40127   0.86233   0.00000  Uiso   1.00
C554   C     0.39470   0.38373   0.77224   0.00000  Uiso   1.00
C555   C     0.40924   0.39681   0.74962   0.00000  Uiso   1.00
C556   C     0.40342   0.40105   0.71532   0.00000  Uiso   1.00
C557   C     0.41667   0.41281   0.69323   0.00000  Uiso   1.00
C558   C     0.43619   0.42058   0.70471   0.00000  Uiso   1.00
C559   C     0.44235   0.41634   0.73883   0.00000  Uiso   1.00
C560   C     0.42899   0.40452   0.76098   0.00000  Uiso   1.00
N41    N     0.44911   0.43286   0.68117   0.00000  Uiso   1.00
C561   C     0.46747   0.44114   0.68848   0.00000  Uiso   1.00
C562   C     0.47938   0.45390   0.66266   0.00000  Uiso   1.00
C563   C     0.49840   0.46410   0.67183   0.00000  Uiso   1.00
C564   C     0.50920   0.47738   0.64807   0.00000  Uiso   1.00
C565   C     0.50114   0.48066   0.61472   0.00000  Uiso   1.00
C566   C     0.48233   0.46991   0.60553   0.00000  Uiso   1.00
C567   C     0.47154   0.45674   0.62922   0.00000  Uiso   1.00
C568   C     0.85914   0.89490   0.41221   0.00000  Uiso   1.00
C569   C     0.87138   0.90635   0.38813   0.00000  Uiso   1.00
C570   C     0.86176   0.87415   0.30822   0.00000  Uiso   1.00
C571   C     0.87649   0.88440   0.28373   0.00000  Uiso   1.00
C572   C     0.86874   0.89619   0.25546   0.00000  Uiso   1.00
C573   C     0.88214   0.91017   0.23708   0.00000  Uiso   1.00
C574   C     0.90330   0.91232   0.24672   0.00000  Uiso   1.00
C575   C     0.91132   0.89934   0.27361   0.00000  Uiso   1.00
C576   C     0.89798   0.88543   0.29194   0.00000  Uiso   1.00
N42    N     0.91486   0.93085   0.23427   0.00000  Uiso   1.00
C577   C     0.93419   0.93481   0.24312   0.00000  Uiso   1.00
C578   C     0.94389   0.95600   0.23512   0.00000  Uiso   1.00
C579   C     0.93121   0.97398   0.22601   0.00000  Uiso   1.00
C580   C     0.94010   0.99480   0.22219   0.00000  Uiso   1.00
C581   C     0.96176   0.99795   0.22752   0.00000  Uiso   1.00
C582   C     0.97445   0.97986   0.23642   0.00000  Uiso   1.00
C583   C     0.96549   0.95901   0.24069   0.00000  Uiso   1.00
C584   C     0.97119   0.01966   0.22072   0.00000  Uiso   1.00
C585   C     0.95882   0.03883   0.22218   0.00000  Uiso   1.00
C586   C     0.96670   0.05880   0.20983   0.00000  Uiso   1.00
C587   C     0.98711   0.05982   0.19610   0.00000  Uiso   1.00
C588   C     0.99975   0.04083   0.19621   0.00000  Uiso   1.00
C589   C     0.99192   0.02096   0.20861   0.00000  Uiso   1.00
C590   C     0.77978   0.50076   0.06943   0.00000  Uiso   1.00
C591   C     0.72997   0.45384   0.06984   0.00000  Uiso   1.00
C592   C     0.68049   0.48910   0.07365   0.00000  Uiso   1.00
C593   C     0.66585   0.47243   0.08165   0.00000  Uiso   1.00
C594   C     0.64430   0.47699   0.08442   0.00000  Uiso   1.00
C595   C     0.63671   0.49848   0.07930   0.00000  Uiso   1.00
C596   C     0.65107   0.51520   0.07124   0.00000  Uiso   1.00
C597   C     0.67266   0.51054   0.06840   0.00000  Uiso   1.00
N43    N     0.61460   0.50359   0.08186   0.00000  Uiso   1.00
C598   C     0.60047   0.48864   0.08820   0.00000  Uiso   1.00
C599   C     0.57775   0.49349   0.09035   0.00000  Uiso   1.00
C600   C     0.56972   0.51501   0.08826   0.00000  Uiso   1.00
C601   C     0.54785   0.51867   0.08933   0.00000  Uiso   1.00
C602   C     0.53382   0.50084   0.09228   0.00000  Uiso   1.00
C603   C     0.54201   0.47941   0.09468   0.00000  Uiso   1.00
C604   C     0.56377   0.47581   0.09387   0.00000  Uiso   1.00
N44    N     0.51127   0.49578   0.59095   0.00000  Uiso   1.00
C605   C     0.36433   0.63940   0.38327   0.00000  Uiso   1.00
C606   C     0.35046   0.65316   0.36525   0.00000  Uiso   1.00
C607   C     0.36571   0.64333   0.27377   0.00000  Uiso   1.00
C608   C     0.35087   0.65700   0.25278   0.00000  Uiso   1.00
C609   C     0.34490   0.64964   0.21990   0.00000  Uiso   1.00
C610   C     0.33143   0.66213   0.19920   0.00000  Uiso   1.00
C611   C     0.32365   0.68236   0.21072   0.00000  Uiso   1.00
C612   C     0.32955   0.69001   0.24350   0.00000  Uiso   1.00
C613   C     0.34308   0.67743   0.26427   0.00000  Uiso   1.00
N45    N     0.30987   0.69458   0.18847   0.00000  Uiso   1.00
C614   C     0.30201   0.71381   0.19552   0.00000  Uiso   1.00
C615   C     0.28787   0.72505   0.17105   0.00000  Uiso   1.00
C616   C     0.27953   0.74571   0.17938   0.00000  Uiso   1.00
C617   C     0.26558   0.75635   0.15689   0.00000  Uiso   1.00
C618   C     0.25979   0.74655   0.12547   0.00000  Uiso   1.00
C619   C     0.26855   0.72597   0.11701   0.00000  Uiso   1.00
C620   C     0.28238   0.71529   0.13958   0.00000  Uiso   1.00
C621   C     0.83590   0.13601   0.92530   0.00000  Uiso   1.00
C622   C     0.82264   0.15286   0.91353   0.00000  Uiso   1.00
C623   C     0.83338   0.15218   0.81908   0.00000  Uiso   1.00
C624   C     0.81701   0.16645   0.80348   0.00000  Uiso   1.00
C625   C     0.80836   0.16008   0.77184   0.00000  Uiso   1.00
C626   C     0.79302   0.17283   0.75595   0.00000  Uiso   1.00
C627   C     0.78607   0.19226   0.77126   0.00000  Uiso   1.00
C628   C     0.79458   0.19900   0.80293   0.00000  Uiso   1.00
C629   C     0.80996   0.18603   0.81907   0.00000  Uiso   1.00
N46    N     0.77130   0.20522   0.75255   0.00000  Uiso   1.00
C630   C     0.76336   0.22384   0.76234   0.00000  Uiso   1.00
C631   C     0.74943   0.23556   0.73851   0.00000  Uiso   1.00
C632   C     0.74150   0.25646   0.74651   0.00000  Uiso   1.00
C633   C     0.72970   0.26813   0.72207   0.00000  Uiso   1.00
C634   C     0.72592   0.25896   0.68942   0.00000  Uiso   1.00
C635   C     0.73390   0.23799   0.68185   0.00000  Uiso   1.00
C636   C     0.74541   0.22640   0.70614   0.00000  Uiso   1.00
C637   C     0.26155   0.03967   0.57095   0.00000  Uiso   1.00
C638   C     0.24166   0.02982   0.57098   0.00000  Uiso   1.00
C639   C     0.29804   0.99144   0.57296   0.00000  Uiso   1.00
C640   C     0.27705   0.93267   0.57815   0.00000  Uiso   1.00
C641   C     0.29454   0.92163   0.59241   0.00000  Uiso   1.00
C642   C     0.29421   0.89873   0.59736   0.00000  Uiso   1.00
C643   C     0.27636   0.88640   0.58832   0.00000  Uiso   1.00
C644   C     0.25915   0.89719   0.57324   0.00000  Uiso   1.00
C645   C     0.25961   0.91991   0.56811   0.00000  Uiso   1.00
N47    N     0.27603   0.86303   0.59409   0.00000  Uiso   1.00
C646   C     0.25876   0.85156   0.59243   0.00000  Uiso   1.00
C647   C     0.25835   0.82753   0.59689   0.00000  Uiso   1.00
C648   C     0.23879   0.81697   0.59875   0.00000  Uiso   1.00
C649   C     0.23763   0.79403   0.60126   0.00000  Uiso   1.00
C650   C     0.25608   0.78128   0.60178   0.00000  Uiso   1.00
C651   C     0.27574   0.79193   0.59993   0.00000  Uiso   1.00
C652   C     0.27688   0.81492   0.59758   0.00000  Uiso   1.00
N48    N     0.24519   0.75749   0.10230   0.00000  Uiso   1.00
C653   C     0.65212   0.88920   0.97147   0.00000  Uiso   1.00
C654   C     0.37708   0.62279   0.43596   0.00000  Uiso   1.00
C655   C     0.38029   0.36970   0.75592   0.00000  Uiso   1.00
C656   C     0.65251   0.14165   0.29661   0.00000  Uiso   1.00
C657   C     0.29642   0.96848   0.57642   0.00000  Uiso   1.00
C658   C     0.29091   0.53890   0.92868   0.00000  Uiso   1.00
C659   C     0.25836   0.50784   0.93156   0.00000  Uiso   1.00
C660   C     0.21612   0.52184   0.92996   0.00000  Uiso   1.00
C661   C     0.23240   0.53714   0.93032   0.00000  Uiso   1.00
C662   C     0.62100   0.37352   0.63569   0.00000  Uiso   1.00
C663   C     0.62031   0.37196   0.67229   0.00000  Uiso   1.00
C664   C     0.15233   0.12382   0.59865   0.00000  Uiso   1.00
C665   C     0.15225   0.13014   0.63372   0.00000  Uiso   1.00
C666   C     0.24057   0.00646   0.56944   0.00000  Uiso   1.00
H277   H     0.61697   0.90869   0.83534   0.00000  Uiso   1.00
H278   H     0.66291   0.93977   0.96399   0.00000  Uiso   1.00
H279   H     0.64615   0.97721   0.97368   0.00000  Uiso   1.00
H280   H     0.58325   0.94780   0.96065   0.00000  Uiso   1.00
H281   H     0.59993   0.91048   0.95096   0.00000  Uiso   1.00
H282   H     0.58059   0.00854   0.98475   0.00000  Uiso   1.00
H283   H     0.54520   0.99171   0.99489   0.00000  Uiso   1.00
H284   H     0.52381   0.96859   0.03647   0.00000  Uiso   1.00
H285   H     0.58180   0.93558   0.07114   0.00000  Uiso   1.00
H286   H     0.60313   0.95889   0.03019   0.00000  Uiso   1.00
H287   H     0.50856   0.95119   0.06423   0.00000  Uiso   1.00
H288   H     0.48857   0.93755   0.11628   0.00000  Uiso   1.00
H289   H     0.54708   0.90967   0.15853   0.00000  Uiso   1.00
H290   H     0.56717   0.92361   0.10661   0.00000  Uiso   1.00
H291   H     0.08111   0.41053   0.31192   0.00000  Uiso   1.00
H292   H     0.11941   0.41040   0.47838   0.00000  Uiso   1.00
H293   H     0.09659   0.43479   0.51546   0.00000  Uiso   1.00
H294   H     0.04460   0.42812   0.44135   0.00000  Uiso   1.00
H295   H     0.06746   0.40344   0.40415   0.00000  Uiso   1.00
H296   H     0.02938   0.44584   0.47199   0.00000  Uiso   1.00
H297   H     0.99688   0.46491   0.48801   0.00000  Uiso   1.00
H298   H     0.97543   0.48819   0.52937   0.00000  Uiso   1.00
H299   H     0.02958   0.49092   0.60005   0.00000  Uiso   1.00
H300   H     0.05099   0.46804   0.55854   0.00000  Uiso   1.00
H301   H     0.20438   0.96383   0.57024   0.00000  Uiso   1.00
H302   H     0.32708   0.97991   0.62051   0.00000  Uiso   1.00
H303   H     0.35668   0.00514   0.63990   0.00000  Uiso   1.00
H304   H     0.34445   0.04869   0.55183   0.00000  Uiso   1.00
H305   H     0.31418   0.02449   0.53369   0.00000  Uiso   1.00
H306   H     0.36238   0.03598   0.66294   0.00000  Uiso   1.00
H307   H     0.38868   0.07899   0.60361   0.00000  Uiso   1.00
H308   H     0.42057   0.10151   0.62087   0.00000  Uiso   1.00
H309   H     0.41626   0.07490   0.72591   0.00000  Uiso   1.00
H310   H     0.38444   0.05241   0.70857   0.00000  Uiso   1.00
H311   H     0.44783   0.11073   0.62908   0.00000  Uiso   1.00
H312   H     0.48729   0.10489   0.62870   0.00000  Uiso   1.00
H313   H     0.48375   0.07718   0.73279   0.00000  Uiso   1.00
H314   H     0.44438   0.08307   0.73326   0.00000  Uiso   1.00
H315   H     0.68971   0.17162   0.36982   0.00000  Uiso   1.00
H316   H     0.66705   0.12231   0.53202   0.00000  Uiso   1.00
H317   H     0.67379   0.15089   0.57830   0.00000  Uiso   1.00
H318   H     0.67451   0.20289   0.49950   0.00000  Uiso   1.00
H319   H     0.66769   0.17470   0.45369   0.00000  Uiso   1.00
H320   H     0.68266   0.22038   0.53215   0.00000  Uiso   1.00
H321   H     0.70166   0.25345   0.54820   0.00000  Uiso   1.00
H322   H     0.71654   0.27912   0.59353   0.00000  Uiso   1.00
H323   H     0.68839   0.23798   0.67465   0.00000  Uiso   1.00
H324   H     0.67471   0.21167   0.62947   0.00000  Uiso   1.00
H325   H     0.16066   0.66590   0.81594   0.00000  Uiso   1.00
H326   H     0.15162   0.62556   0.98296   0.00000  Uiso   1.00
H327   H     0.17450   0.64806   0.02277   0.00000  Uiso   1.00
H328   H     0.17620   0.70157   0.94657   0.00000  Uiso   1.00
H329   H     0.15329   0.67926   0.90667   0.00000  Uiso   1.00
H330   H     0.19301   0.71624   0.97844   0.00000  Uiso   1.00
H331   H     0.21403   0.74813   0.99416   0.00000  Uiso   1.00
H332   H     0.23560   0.76996   0.03715   0.00000  Uiso   1.00
H333   H     0.22685   0.71743   0.11386   0.00000  Uiso   1.00
H334   H     0.20538   0.69562   0.07082   0.00000  Uiso   1.00
H335   H     0.70909   0.42479   0.11433   0.00000  Uiso   1.00
H336   H     0.72195   0.38619   0.12903   0.00000  Uiso   1.00
H337   H     0.76971   0.39034   0.04721   0.00000  Uiso   1.00
H338   H     0.75832   0.42881   0.03262   0.00000  Uiso   1.00
H339   H     0.73245   0.35934   0.13691   0.00000  Uiso   1.00
H340   H     0.78765   0.34005   0.10746   0.00000  Uiso   1.00
H341   H     0.80403   0.30385   0.12612   0.00000  Uiso   1.00
H342   H     0.74567   0.28732   0.18189   0.00000  Uiso   1.00
H343   H     0.72973   0.32354   0.16407   0.00000  Uiso   1.00
H344   H     0.41751   0.41344   0.87576   0.00000  Uiso   1.00
H345   H     0.38764   0.39485   0.70509   0.00000  Uiso   1.00
H346   H     0.41159   0.41614   0.66556   0.00000  Uiso   1.00
H347   H     0.45825   0.42250   0.74862   0.00000  Uiso   1.00
H348   H     0.43434   0.40120   0.78852   0.00000  Uiso   1.00
H349   H     0.47458   0.43858   0.71514   0.00000  Uiso   1.00
H350   H     0.50519   0.46164   0.69873   0.00000  Uiso   1.00
H351   H     0.52466   0.48563   0.65573   0.00000  Uiso   1.00
H352   H     0.47567   0.47187   0.57844   0.00000  Uiso   1.00
H353   H     0.45625   0.44822   0.62139   0.00000  Uiso   1.00
H354   H     0.88056   0.92163   0.39633   0.00000  Uiso   1.00
H355   H     0.85152   0.89437   0.24747   0.00000  Uiso   1.00
H356   H     0.87584   0.91987   0.21414   0.00000  Uiso   1.00
H357   H     0.92879   0.90019   0.28045   0.00000  Uiso   1.00
H358   H     0.90454   0.87484   0.31370   0.00000  Uiso   1.00
H359   H     0.94373   0.92170   0.25725   0.00000  Uiso   1.00
H360   H     0.91357   0.97157   0.22171   0.00000  Uiso   1.00
H361   H     0.92975   0.00940   0.21469   0.00000  Uiso   1.00
H362   H     0.99215   0.98215   0.24019   0.00000  Uiso   1.00
H363   H     0.97576   0.94446   0.24870   0.00000  Uiso   1.00
H364   H     0.94224   0.03814   0.23350   0.00000  Uiso   1.00
H365   H     0.95652   0.07428   0.21092   0.00000  Uiso   1.00
H366   H     0.01661   0.04161   0.18606   0.00000  Uiso   1.00
H367   H     0.00243   0.00571   0.20890   0.00000  Uiso   1.00
H368   H     0.67149   0.45481   0.08601   0.00000  Uiso   1.00
H369   H     0.63274   0.46321   0.09088   0.00000  Uiso   1.00
H370   H     0.64524   0.53276   0.06693   0.00000  Uiso   1.00
H371   H     0.68425   0.52425   0.06172   0.00000  Uiso   1.00
H372   H     0.60545   0.47079   0.09240   0.00000  Uiso   1.00
H373   H     0.58096   0.52958   0.08569   0.00000  Uiso   1.00
H374   H     0.54140   0.53618   0.08780   0.00000  Uiso   1.00
H375   H     0.53088   0.46475   0.09732   0.00000  Uiso   1.00
H376   H     0.57011   0.45829   0.09611   0.00000  Uiso   1.00
H377   H     0.33842   0.66352   0.37987   0.00000  Uiso   1.00
H378   H     0.35107   0.63323   0.20974   0.00000  Uiso   1.00
H379   H     0.32669   0.65583   0.17265   0.00000  Uiso   1.00
H380   H     0.32334   0.70649   0.25329   0.00000  Uiso   1.00
H381   H     0.34788   0.68373   0.29079   0.00000  Uiso   1.00
H382   H     0.30602   0.72223   0.22093   0.00000  Uiso   1.00
H383   H     0.28408   0.75402   0.20464   0.00000  Uiso   1.00
H384   H     0.25879   0.77314   0.16397   0.00000  Uiso   1.00
H385   H     0.26441   0.71777   0.09148   0.00000  Uiso   1.00
H386   H     0.28920   0.69855   0.13225   0.00000  Uiso   1.00
H387   H     0.81249   0.16245   0.93256   0.00000  Uiso   1.00
H388   H     0.81391   0.14426   0.75885   0.00000  Uiso   1.00
H389   H     0.78605   0.16741   0.73025   0.00000  Uiso   1.00
H390   H     0.78897   0.21497   0.81540   0.00000  Uiso   1.00
H391   H     0.81680   0.19134   0.84492   0.00000  Uiso   1.00
H392   H     0.76728   0.23070   0.78891   0.00000  Uiso   1.00
H393   H     0.74464   0.26398   0.77291   0.00000  Uiso   1.00
H394   H     0.72314   0.28511   0.72864   0.00000  Uiso   1.00
H395   H     0.73094   0.23032   0.65550   0.00000  Uiso   1.00
H396   H     0.75168   0.20926   0.69981   0.00000  Uiso   1.00
H397   H     0.26300   0.05839   0.57148   0.00000  Uiso   1.00
H398   H     0.30922   0.93131   0.60010   0.00000  Uiso   1.00
H399   H     0.30853   0.89003   0.60881   0.00000  Uiso   1.00
H400   H     0.24465   0.88738   0.56508   0.00000  Uiso   1.00
H401   H     0.24541   0.92812   0.55545   0.00000  Uiso   1.00
H402   H     0.24306   0.86012   0.58732   0.00000  Uiso   1.00
H403   H     0.22363   0.82708   0.59822   0.00000  Uiso   1.00
H404   H     0.22161   0.78556   0.60290   0.00000  Uiso   1.00
H405   H     0.29091   0.78184   0.60034   0.00000  Uiso   1.00
H406   H     0.29290   0.82342   0.59622   0.00000  Uiso   1.00
H407   H     0.65221   0.89462   0.99957   0.00000  Uiso   1.00
H408   H     0.37588   0.62154   0.46518   0.00000  Uiso   1.00
H409   H     0.38005   0.36848   0.72663   0.00000  Uiso   1.00
H410   H     0.65293   0.14633   0.26819   0.00000  Uiso   1.00
H411   H     0.31119   0.95816   0.58096   0.00000  Uiso   1.00
H412   H     0.30374   0.55203   0.92713   0.00000  Uiso   1.00
H413   H     0.19902   0.52765   0.92915   0.00000  Uiso   1.00
H414   H     0.22867   0.55552   0.92984   0.00000  Uiso   1.00
C667   C     0.86097   0.11900   0.84284   0.00000  Uiso   1.00
C668   C     0.87252   0.10067   0.85414   0.00000  Uiso   1.00
C669   C     0.85791   0.09782   0.94664   0.00000  Uiso   1.00
C670   C     0.86770   0.07689   0.95712   0.00000  Uiso   1.00
C671   C     0.85499   0.05844   0.96335   0.00000  Uiso   1.00
C672   C     0.86422   0.03781   0.96879   0.00000  Uiso   1.00
C673   C     0.88617   0.03549   0.96827   0.00000  Uiso   1.00
C674   C     0.89885   0.05398   0.96162   0.00000  Uiso   1.00
C675   C     0.88966   0.07457   0.95618   0.00000  Uiso   1.00
N49    N     0.89522   0.01394   0.97137   0.00000  Uiso   1.00
C676   C     0.91255   0.00874   0.98746   0.00000  Uiso   1.00
C677   C     0.92472   0.02365   0.00982   0.00000  Uiso   1.00
C678   C     0.94655   0.02093   0.01193   0.00000  Uiso   1.00
C679   C     0.95836   0.03365   0.03488   0.00000  Uiso   1.00
C680   C     0.94850   0.04929   0.05620   0.00000  Uiso   1.00
C681   C     0.92653   0.05183   0.05412   0.00000  Uiso   1.00
C682   C     0.91473   0.03902   0.03130   0.00000  Uiso   1.00
C683   C     0.96075   0.06085   0.08321   0.00000  Uiso   1.00
C684   C     0.98260   0.05770   0.08569   0.00000  Uiso   1.00
C685   C     0.99370   0.06536   0.11428   0.00000  Uiso   1.00
C686   C     0.98329   0.07669   0.14084   0.00000  Uiso   1.00
C687   C     0.96159   0.08069   0.13769   0.00000  Uiso   1.00
C688   C     0.95044   0.07293   0.10909   0.00000  Uiso   1.00
C689   C     0.39421   0.61494   0.30871   0.00000  Uiso   1.00
C690   C     0.40731   0.60034   0.32661   0.00000  Uiso   1.00
C691   C     0.39165   0.60976   0.41808   0.00000  Uiso   1.00
C692   C     0.40516   0.59453   0.43879   0.00000  Uiso   1.00
C693   C     0.39739   0.58574   0.46978   0.00000  Uiso   1.00
C694   C     0.40998   0.57223   0.49044   0.00000  Uiso   1.00
C695   C     0.43065   0.56722   0.48067   0.00000  Uiso   1.00
C696   C     0.43860   0.57589   0.44975   0.00000  Uiso   1.00
C697   C     0.42597   0.58947   0.42912   0.00000  Uiso   1.00
N50    N     0.44324   0.55374   0.50300   0.00000  Uiso   1.00
C698   C     0.46267   0.54834   0.49670   0.00000  Uiso   1.00
C699   C     0.47484   0.53473   0.52094   0.00000  Uiso   1.00
C700   C     0.49570   0.52917   0.51310   0.00000  Uiso   1.00
C701   C     0.50758   0.51633   0.53594   0.00000  Uiso   1.00
C702   C     0.49882   0.50886   0.56710   0.00000  Uiso   1.00
C703   C     0.47789   0.51472   0.57485   0.00000  Uiso   1.00
C704   C     0.46600   0.52745   0.55198   0.00000  Uiso   1.00
C705   C     0.27983   0.02718   0.57029   0.00000  Uiso   1.00
C706   C     0.27928   0.00408   0.56969   0.00000  Uiso   1.00
C707   C     0.22297   0.04264   0.57451   0.00000  Uiso   1.00
C708   C     0.18223   0.99837   0.57755   0.00000  Uiso   1.00
C709   C     0.16970   0.00413   0.60596   0.00000  Uiso   1.00
C710   C     0.15325   0.99032   0.61648   0.00000  Uiso   1.00
C711   C     0.14894   0.97084   0.59822   0.00000  Uiso   1.00
C712   C     0.16006   0.96619   0.56816   0.00000  Uiso   1.00
C713   C     0.17667   0.97972   0.55809   0.00000  Uiso   1.00
N51    N     0.13441   0.95478   0.61082   0.00000  Uiso   1.00
C714   C     0.12967   0.95292   0.64313   0.00000  Uiso   1.00
C715   C     0.11416   0.93666   0.65455   0.00000  Uiso   1.00
C716   C     0.10469   0.92244   0.63080   0.00000  Uiso   1.00
C717   C     0.08717   0.91002   0.64030   0.00000  Uiso   1.00
C718   C     0.07886   0.91152   0.67371   0.00000  Uiso   1.00
C719   C     0.08947   0.92461   0.69810   0.00000  Uiso   1.00
C720   C     0.10705   0.93709   0.68858   0.00000  Uiso   1.00
C721   C     0.05652   0.90542   0.67952   0.00000  Uiso   1.00
C722   C     0.04430   0.89806   0.65162   0.00000  Uiso   1.00
C723   C     0.02254   0.90142   0.65122   0.00000  Uiso   1.00
C724   C     0.01265   0.91257   0.67851   0.00000  Uiso   1.00
C725   C     0.02446   0.91667   0.70851   0.00000  Uiso   1.00
C726   C     0.04618   0.91329   0.70893   0.00000  Uiso   1.00
N52    N     0.99316   0.07794   0.17426   0.00000  Uiso   1.00
C727   C     0.83427   0.85280   0.35464   0.00000  Uiso   1.00
C728   C     0.82161   0.84183   0.37868   0.00000  Uiso   1.00
C729   C     0.83782   0.86947   0.46257   0.00000  Uiso   1.00
C730   C     0.83261   0.85327   0.48988   0.00000  Uiso   1.00
C731   C     0.83116   0.85961   0.52459   0.00000  Uiso   1.00
C732   C     0.82752   0.84383   0.55021   0.00000  Uiso   1.00
C733   C     0.82548   0.82156   0.54145   0.00000  Uiso   1.00
C734   C     0.82714   0.81521   0.50690   0.00000  Uiso   1.00
C735   C     0.83079   0.83089   0.48160   0.00000  Uiso   1.00
N53    N     0.82116   0.80565   0.56766   0.00000  Uiso   1.00
C736   C     0.81699   0.78531   0.56012   0.00000  Uiso   1.00
C737   C     0.81179   0.76919   0.58655   0.00000  Uiso   1.00
C738   C     0.80078   0.75033   0.57667   0.00000  Uiso   1.00
C739   C     0.79276   0.73611   0.60159   0.00000  Uiso   1.00
C740   C     0.79600   0.74031   0.63675   0.00000  Uiso   1.00
C741   C     0.80806   0.75878   0.64633   0.00000  Uiso   1.00
C742   C     0.81577   0.77325   0.62141   0.00000  Uiso   1.00
C743   C     0.36550   0.35772   0.81021   0.00000  Uiso   1.00
C744   C     0.35100   0.34547   0.82950   0.00000  Uiso   1.00
C745   C     0.36349   0.36230   0.91968   0.00000  Uiso   1.00
C746   C     0.34899   0.34911   0.94210   0.00000  Uiso   1.00
C747   C     0.34295   0.35737   0.97447   0.00000  Uiso   1.00
C748   C     0.33029   0.34494   0.99667   0.00000  Uiso   1.00
C749   C     0.32343   0.32393   0.98710   0.00000  Uiso   1.00
C750   C     0.32934   0.31550   0.95483   0.00000  Uiso   1.00
C751   C     0.34203   0.32796   0.93267   0.00000  Uiso   1.00
N54    N     0.31099   0.31137   0.01094   0.00000  Uiso   1.00
C752   C     0.30377   0.29179   0.00445   0.00000  Uiso   1.00
C753   C     0.29136   0.27942   0.03000   0.00000  Uiso   1.00
C754   C     0.28305   0.25887   0.02098   0.00000  Uiso   1.00
C755   C     0.27113   0.24678   0.04470   0.00000  Uiso   1.00
C756   C     0.26731   0.25503   0.07794   0.00000  Uiso   1.00
C757   C     0.27587   0.27559   0.08697   0.00000  Uiso   1.00
C758   C     0.28778   0.28770   0.06321   0.00000  Uiso   1.00
C759   C     0.74643   0.46946   0.06873   0.00000  Uiso   1.00
C760   C     0.79641   0.51650   0.07096   0.00000  Uiso   1.00
C761   C     0.76592   0.57002   0.07321   0.00000  Uiso   1.00
C762   C     0.77692   0.58275   0.10014   0.00000  Uiso   1.00
C763   C     0.76998   0.60392   0.10784   0.00000  Uiso   1.00
C764   C     0.75304   0.61326   0.08965   0.00000  Uiso   1.00
C765   C     0.74347   0.60166   0.06280   0.00000  Uiso   1.00
C766   C     0.74978   0.58030   0.05463   0.00000  Uiso   1.00
N55    N     0.74427   0.63398   0.09955   0.00000  Uiso   1.00
C767   C     0.75235   0.64603   0.12365   0.00000  Uiso   1.00
C768   C     0.74234   0.66655   0.13434   0.00000  Uiso   1.00
C769   C     0.72175   0.67190   0.12413   0.00000  Uiso   1.00
C770   C     0.71274   0.69185   0.13435   0.00000  Uiso   1.00
C771   C     0.72423   0.70671   0.15477   0.00000  Uiso   1.00
C772   C     0.74476   0.70094   0.16512   0.00000  Uiso   1.00
C773   C     0.75369   0.68098   0.15517   0.00000  Uiso   1.00
N56    N     0.78404   0.72838   0.66247   0.00000  Uiso   1.00
C774   C     0.10732   0.61170   0.88175   0.00000  Uiso   1.00
C775   C     0.09345   0.59873   0.86233   0.00000  Uiso   1.00
C776   C     0.10530   0.61627   0.77224   0.00000  Uiso   1.00
C777   C     0.09076   0.60319   0.74962   0.00000  Uiso   1.00
C778   C     0.09658   0.59895   0.71532   0.00000  Uiso   1.00
C779   C     0.08333   0.58719   0.69323   0.00000  Uiso   1.00
C780   C     0.06381   0.57942   0.70471   0.00000  Uiso   1.00
C781   C     0.05765   0.58366   0.73883   0.00000  Uiso   1.00
C782   C     0.07101   0.59548   0.76098   0.00000  Uiso   1.00
N57    N     0.05089   0.56714   0.68117   0.00000  Uiso   1.00
C783   C     0.03253   0.55886   0.68848   0.00000  Uiso   1.00
C784   C     0.02062   0.54610   0.66266   0.00000  Uiso   1.00
C785   C     0.00160   0.53590   0.67183   0.00000  Uiso   1.00
C786   C     0.99080   0.52262   0.64807   0.00000  Uiso   1.00
C787   C     0.99886   0.51934   0.61472   0.00000  Uiso   1.00
C788   C     0.01767   0.53009   0.60553   0.00000  Uiso   1.00
C789   C     0.02846   0.54326   0.62922   0.00000  Uiso   1.00
C790   C     0.64086   0.10510   0.41221   0.00000  Uiso   1.00
C791   C     0.62862   0.09365   0.38813   0.00000  Uiso   1.00
C792   C     0.63824   0.12585   0.30822   0.00000  Uiso   1.00
C793   C     0.62351   0.11560   0.28373   0.00000  Uiso   1.00
C794   C     0.63126   0.10381   0.25546   0.00000  Uiso   1.00
C795   C     0.61786   0.08983   0.23708   0.00000  Uiso   1.00
C796   C     0.59670   0.08768   0.24672   0.00000  Uiso   1.00
C797   C     0.58868   0.10066   0.27361   0.00000  Uiso   1.00
C798   C     0.60202   0.11457   0.29194   0.00000  Uiso   1.00
N58    N     0.58514   0.06915   0.23427   0.00000  Uiso   1.00
C799   C     0.56581   0.06519   0.24312   0.00000  Uiso   1.00
C800   C     0.55611   0.04400   0.23512   0.00000  Uiso   1.00
C801   C     0.56879   0.02602   0.22601   0.00000  Uiso   1.00
C802   C     0.55990   0.00520   0.22219   0.00000  Uiso   1.00
C803   C     0.53824   0.00205   0.22752   0.00000  Uiso   1.00
C804   C     0.52555   0.02014   0.23642   0.00000  Uiso   1.00
C805   C     0.53451   0.04099   0.24069   0.00000  Uiso   1.00
C806   C     0.52881   0.98034   0.22072   0.00000  Uiso   1.00
C807   C     0.54118   0.96117   0.22218   0.00000  Uiso   1.00
C808   C     0.53330   0.94120   0.20983   0.00000  Uiso   1.00
C809   C     0.51289   0.94018   0.19610   0.00000  Uiso   1.00
C810   C     0.50025   0.95917   0.19621   0.00000  Uiso   1.00
C811   C     0.50808   0.97904   0.20861   0.00000  Uiso   1.00
C812   C     0.72022   0.49924   0.06943   0.00000  Uiso   1.00
C813   C     0.77003   0.54616   0.06984   0.00000  Uiso   1.00
C814   C     0.81951   0.51090   0.07365   0.00000  Uiso   1.00
C815   C     0.83415   0.52757   0.08165   0.00000  Uiso   1.00
C816   C     0.85570   0.52301   0.08442   0.00000  Uiso   1.00
C817   C     0.86329   0.50152   0.07930   0.00000  Uiso   1.00
C818   C     0.84893   0.48480   0.07124   0.00000  Uiso   1.00
C819   C     0.82734   0.48946   0.06840   0.00000  Uiso   1.00
N59    N     0.88540   0.49641   0.08186   0.00000  Uiso   1.00
C820   C     0.89953   0.51136   0.08820   0.00000  Uiso   1.00
C821   C     0.92225   0.50651   0.09035   0.00000  Uiso   1.00
C822   C     0.93028   0.48499   0.08826   0.00000  Uiso   1.00
C823   C     0.95215   0.48133   0.08933   0.00000  Uiso   1.00
C824   C     0.96618   0.49916   0.09228   0.00000  Uiso   1.00
C825   C     0.95799   0.52059   0.09468   0.00000  Uiso   1.00
C826   C     0.93623   0.52419   0.09387   0.00000  Uiso   1.00
N60    N     0.98873   0.50422   0.59095   0.00000  Uiso   1.00
C827   C     0.13567   0.36060   0.38327   0.00000  Uiso   1.00
C828   C     0.14954   0.34684   0.36525   0.00000  Uiso   1.00
C829   C     0.13429   0.35667   0.27377   0.00000  Uiso   1.00
C830   C     0.14913   0.34300   0.25278   0.00000  Uiso   1.00
C831   C     0.15510   0.35036   0.21990   0.00000  Uiso   1.00
C832   C     0.16857   0.33787   0.19920   0.00000  Uiso   1.00
C833   C     0.17635   0.31764   0.21072   0.00000  Uiso   1.00
C834   C     0.17045   0.30999   0.24350   0.00000  Uiso   1.00
C835   C     0.15692   0.32257   0.26427   0.00000  Uiso   1.00
N61    N     0.19013   0.30542   0.18847   0.00000  Uiso   1.00
C836   C     0.19799   0.28619   0.19552   0.00000  Uiso   1.00
C837   C     0.21213   0.27495   0.17105   0.00000  Uiso   1.00
C838   C     0.22047   0.25429   0.17938   0.00000  Uiso   1.00
C839   C     0.23442   0.24365   0.15689   0.00000  Uiso   1.00
C840   C     0.24021   0.25345   0.12547   0.00000  Uiso   1.00
C841   C     0.23145   0.27403   0.11701   0.00000  Uiso   1.00
C842   C     0.21762   0.28471   0.13958   0.00000  Uiso   1.00
C843   C     0.66410   0.86399   0.92530   0.00000  Uiso   1.00
C844   C     0.67736   0.84714   0.91353   0.00000  Uiso   1.00
C845   C     0.66662   0.84782   0.81908   0.00000  Uiso   1.00
C846   C     0.68299   0.83355   0.80348   0.00000  Uiso   1.00
C847   C     0.69164   0.83992   0.77184   0.00000  Uiso   1.00
C848   C     0.70698   0.82717   0.75595   0.00000  Uiso   1.00
C849   C     0.71393   0.80774   0.77126   0.00000  Uiso   1.00
C850   C     0.70542   0.80100   0.80293   0.00000  Uiso   1.00
C851   C     0.69004   0.81397   0.81907   0.00000  Uiso   1.00
N62    N     0.72870   0.79478   0.75255   0.00000  Uiso   1.00
C852   C     0.73664   0.77616   0.76234   0.00000  Uiso   1.00
C853   C     0.75057   0.76444   0.73851   0.00000  Uiso   1.00
C854   C     0.75850   0.74354   0.74651   0.00000  Uiso   1.00
C855   C     0.77030   0.73187   0.72207   0.00000  Uiso   1.00
C856   C     0.77408   0.74104   0.68942   0.00000  Uiso   1.00
C857   C     0.76610   0.76201   0.68185   0.00000  Uiso   1.00
C858   C     0.75459   0.77360   0.70614   0.00000  Uiso   1.00
C859   C     0.23845   0.96033   0.57095   0.00000  Uiso   1.00
C860   C     0.25834   0.97018   0.57098   0.00000  Uiso   1.00
C861   C     0.20196   0.00856   0.57296   0.00000  Uiso   1.00
C862   C     0.22295   0.06733   0.57815   0.00000  Uiso   1.00
C863   C     0.20546   0.07837   0.59241   0.00000  Uiso   1.00
C864   C     0.20579   0.10127   0.59736   0.00000  Uiso   1.00
C865   C     0.22364   0.11360   0.58832   0.00000  Uiso   1.00
C866   C     0.24085   0.10281   0.57324   0.00000  Uiso   1.00
C867   C     0.24039   0.08009   0.56811   0.00000  Uiso   1.00
N63    N     0.22397   0.13697   0.59409   0.00000  Uiso   1.00
C868   C     0.24124   0.14844   0.59243   0.00000  Uiso   1.00
C869   C     0.24165   0.17247   0.59689   0.00000  Uiso   1.00
C870   C     0.26121   0.18303   0.59875   0.00000  Uiso   1.00
C871   C     0.26237   0.20597   0.60126   0.00000  Uiso   1.00
C872   C     0.24392   0.21872   0.60178   0.00000  Uiso   1.00
C873   C     0.22426   0.20807   0.59993   0.00000  Uiso   1.00
C874   C     0.22312   0.18508   0.59758   0.00000  Uiso   1.00
N64    N     0.25481   0.24251   0.10230   0.00000  Uiso   1.00
C875   C     0.84788   0.11080   0.97147   0.00000  Uiso   1.00
C876   C     0.12292   0.37721   0.43596   0.00000  Uiso   1.00
C877   C     0.11971   0.63030   0.75592   0.00000  Uiso   1.00
C878   C     0.84749   0.85835   0.29661   0.00000  Uiso   1.00
C879   C     0.20358   0.03152   0.57642   0.00000  Uiso   1.00
C880   C     0.20909   0.46110   0.92868   0.00000  Uiso   1.00
C881   C     0.24164   0.49216   0.93156   0.00000  Uiso   1.00
C882   C     0.28388   0.47816   0.92996   0.00000  Uiso   1.00
C883   C     0.26760   0.46286   0.93032   0.00000  Uiso   1.00
C884   C     0.87900   0.62648   0.63569   0.00000  Uiso   1.00
C885   C     0.87969   0.62804   0.67229   0.00000  Uiso   1.00
C886   C     0.34767   0.87618   0.59865   0.00000  Uiso   1.00
C887   C     0.34775   0.86986   0.63372   0.00000  Uiso   1.00
C888   C     0.25943   0.99354   0.56944   0.00000  Uiso   1.00
H415   H     0.88303   0.09131   0.83534   0.00000  Uiso   1.00
H416   H     0.83709   0.06023   0.96399   0.00000  Uiso   1.00
H417   H     0.85385   0.02279   0.97368   0.00000  Uiso   1.00
H418   H     0.91675   0.05220   0.96065   0.00000  Uiso   1.00
H419   H     0.90007   0.08952   0.95096   0.00000  Uiso   1.00
H420   H     0.91941   0.99146   0.98475   0.00000  Uiso   1.00
H421   H     0.95480   0.00829   0.99489   0.00000  Uiso   1.00
H422   H     0.97619   0.03141   0.03647   0.00000  Uiso   1.00
H423   H     0.91820   0.06442   0.07114   0.00000  Uiso   1.00
H424   H     0.89687   0.04111   0.03019   0.00000  Uiso   1.00
H425   H     0.99144   0.04881   0.06423   0.00000  Uiso   1.00
H426   H     0.01143   0.06245   0.11628   0.00000  Uiso   1.00
H427   H     0.95292   0.09033   0.15853   0.00000  Uiso   1.00
H428   H     0.93283   0.07639   0.10661   0.00000  Uiso   1.00
H429   H     0.41889   0.58947   0.31192   0.00000  Uiso   1.00
H430   H     0.38059   0.58960   0.47838   0.00000  Uiso   1.00
H431   H     0.40341   0.56521   0.51546   0.00000  Uiso   1.00
H432   H     0.45540   0.57188   0.44135   0.00000  Uiso   1.00
H433   H     0.43254   0.59656   0.40415   0.00000  Uiso   1.00
H434   H     0.47062   0.55416   0.47199   0.00000  Uiso   1.00
H435   H     0.50312   0.53509   0.48801   0.00000  Uiso   1.00
H436   H     0.52457   0.51181   0.52937   0.00000  Uiso   1.00
H437   H     0.47042   0.50908   0.60005   0.00000  Uiso   1.00
H438   H     0.44901   0.53196   0.55854   0.00000  Uiso   1.00
H439   H     0.29562   0.03617   0.57024   0.00000  Uiso   1.00
H440   H     0.17292   0.02009   0.62051   0.00000  Uiso   1.00
H441   H     0.14332   0.99486   0.63990   0.00000  Uiso   1.00
H442   H     0.15555   0.95131   0.55183   0.00000  Uiso   1.00
H443   H     0.18582   0.97551   0.53369   0.00000  Uiso   1.00
H444   H     0.13762   0.96402   0.66294   0.00000  Uiso   1.00
H445   H     0.11132   0.92101   0.60361   0.00000  Uiso   1.00
H446   H     0.07943   0.89849   0.62087   0.00000  Uiso   1.00
H447   H     0.08374   0.92510   0.72591   0.00000  Uiso   1.00
H448   H     0.11556   0.94759   0.70857   0.00000  Uiso   1.00
H449   H     0.05217   0.88927   0.62908   0.00000  Uiso   1.00
H450   H     0.01271   0.89511   0.62870   0.00000  Uiso   1.00
H451   H     0.01625   0.92282   0.73279   0.00000  Uiso   1.00
H452   H     0.05562   0.91693   0.73326   0.00000  Uiso   1.00
H453   H     0.81029   0.82838   0.36982   0.00000  Uiso   1.00
H454   H     0.83295   0.87769   0.53202   0.00000  Uiso   1.00
H455   H     0.82621   0.84911   0.57830   0.00000  Uiso   1.00
H456   H     0.82549   0.79711   0.49950   0.00000  Uiso   1.00
H457   H     0.83231   0.82530   0.45369   0.00000  Uiso   1.00
H458   H     0.81734   0.77962   0.53215   0.00000  Uiso   1.00
H459   H     0.79834   0.74655   0.54820   0.00000  Uiso   1.00
H460   H     0.78346   0.72088   0.59353   0.00000  Uiso   1.00
H461   H     0.81161   0.76202   0.67465   0.00000  Uiso   1.00
H462   H     0.82529   0.78833   0.62947   0.00000  Uiso   1.00
H463   H     0.33934   0.33410   0.81594   0.00000  Uiso   1.00
H464   H     0.34838   0.37444   0.98296   0.00000  Uiso   1.00
H465   H     0.32550   0.35194   0.02277   0.00000  Uiso   1.00
H466   H     0.32380   0.29843   0.94657   0.00000  Uiso   1.00
H467   H     0.34671   0.32074   0.90667   0.00000  Uiso   1.00
H468   H     0.30699   0.28376   0.97844   0.00000  Uiso   1.00
H469   H     0.28597   0.25187   0.99416   0.00000  Uiso   1.00
H470   H     0.26440   0.23004   0.03715   0.00000  Uiso   1.00
H471   H     0.27315   0.28257   0.11386   0.00000  Uiso   1.00
H472   H     0.29462   0.30438   0.07082   0.00000  Uiso   1.00
H473   H     0.79091   0.57521   0.11433   0.00000  Uiso   1.00
H474   H     0.77805   0.61381   0.12903   0.00000  Uiso   1.00
H475   H     0.73029   0.60966   0.04721   0.00000  Uiso   1.00
H476   H     0.74168   0.57119   0.03262   0.00000  Uiso   1.00
H477   H     0.76755   0.64066   0.13691   0.00000  Uiso   1.00
H478   H     0.71235   0.65995   0.10746   0.00000  Uiso   1.00
H479   H     0.69597   0.69615   0.12612   0.00000  Uiso   1.00
H480   H     0.75433   0.71268   0.18189   0.00000  Uiso   1.00
H481   H     0.77027   0.67646   0.16407   0.00000  Uiso   1.00
H482   H     0.08249   0.58656   0.87576   0.00000  Uiso   1.00
H483   H     0.11236   0.60515   0.70509   0.00000  Uiso   1.00
H484   H     0.08841   0.58386   0.66556   0.00000  Uiso   1.00
H485   H     0.04175   0.57750   0.74862   0.00000  Uiso   1.00
H486   H     0.06566   0.59880   0.78852   0.00000  Uiso   1.00
H487   H     0.02542   0.56142   0.71514   0.00000  Uiso   1.00
H488   H     0.99481   0.53836   0.69873   0.00000  Uiso   1.00
H489   H     0.97534   0.51437   0.65573   0.00000  Uiso   1.00
H490   H     0.02433   0.52813   0.57844   0.00000  Uiso   1.00
H491   H     0.04375   0.55178   0.62139   0.00000  Uiso   1.00
H492   H     0.61944   0.07837   0.39633   0.00000  Uiso   1.00
H493   H     0.64848   0.10563   0.24747   0.00000  Uiso   1.00
H494   H     0.62416   0.08013   0.21414   0.00000  Uiso   1.00
H495   H     0.57121   0.09981   0.28045   0.00000  Uiso   1.00
H496   H     0.59546   0.12516   0.31370   0.00000  Uiso   1.00
H497   H     0.55627   0.07830   0.25725   0.00000  Uiso   1.00
H498   H     0.58643   0.02843   0.22171   0.00000  Uiso   1.00
H499   H     0.57025   0.99060   0.21469   0.00000  Uiso   1.00
H500   H     0.50785   0.01785   0.24019   0.00000  Uiso   1.00
H501   H     0.52424   0.05554   0.24870   0.00000  Uiso   1.00
H502   H     0.55776   0.96186   0.23350   0.00000  Uiso   1.00
H503   H     0.54348   0.92572   0.21092   0.00000  Uiso   1.00
H504   H     0.48339   0.95839   0.18606   0.00000  Uiso   1.00
H505   H     0.49757   0.99429   0.20890   0.00000  Uiso   1.00
H506   H     0.82851   0.54519   0.08601   0.00000  Uiso   1.00
H507   H     0.86726   0.53679   0.09088   0.00000  Uiso   1.00
H508   H     0.85476   0.46724   0.06693   0.00000  Uiso   1.00
H509   H     0.81575   0.47575   0.06172   0.00000  Uiso   1.00
H510   H     0.89455   0.52921   0.09240   0.00000  Uiso   1.00
H511   H     0.91904   0.47042   0.08569   0.00000  Uiso   1.00
H512   H     0.95860   0.46382   0.08780   0.00000  Uiso   1.00
H513   H     0.96912   0.53525   0.09732   0.00000  Uiso   1.00
H514   H     0.92989   0.54171   0.09611   0.00000  Uiso   1.00
H515   H     0.16158   0.33648   0.37987   0.00000  Uiso   1.00
H516   H     0.14893   0.36677   0.20974   0.00000  Uiso   1.00
H517   H     0.17331   0.34417   0.17265   0.00000  Uiso   1.00
H518   H     0.17666   0.29351   0.25329   0.00000  Uiso   1.00
H519   H     0.15212   0.31627   0.29079   0.00000  Uiso   1.00
H520   H     0.19398   0.27777   0.22093   0.00000  Uiso   1.00
H521   H     0.21592   0.24598   0.20464   0.00000  Uiso   1.00
H522   H     0.24121   0.22686   0.16397   0.00000  Uiso   1.00
H523   H     0.23559   0.28223   0.09148   0.00000  Uiso   1.00
H524   H     0.21080   0.30145   0.13225   0.00000  Uiso   1.00
H525   H     0.68751   0.83755   0.93256   0.00000  Uiso   1.00
H526   H     0.68609   0.85574   0.75885   0.00000  Uiso   1.00
H527   H     0.71395   0.83259   0.73025   0.00000  Uiso   1.00
H528   H     0.71103   0.78503   0.81540   0.00000  Uiso   1.00
H529   H     0.68320   0.80866   0.84492   0.00000  Uiso   1.00
H530   H     0.73272   0.76930   0.78891   0.00000  Uiso   1.00
H531   H     0.75536   0.73602   0.77291   0.00000  Uiso   1.00
H532   H     0.77686   0.71489   0.72864   0.00000  Uiso   1.00
H533   H     0.76906   0.76968   0.65550   0.00000  Uiso   1.00
H534   H     0.74832   0.79074   0.69981   0.00000  Uiso   1.00
H535   H     0.23700   0.94161   0.57148   0.00000  Uiso   1.00
H536   H     0.19078   0.06869   0.60010   0.00000  Uiso   1.00
H537   H     0.19147   0.10997   0.60881   0.00000  Uiso   1.00
H538   H     0.25535   0.11262   0.56508   0.00000  Uiso   1.00
H539   H     0.25459   0.07188   0.55545   0.00000  Uiso   1.00
H540   H     0.25694   0.13988   0.58732   0.00000  Uiso   1.00
H541   H     0.27637   0.17292   0.59822   0.00000  Uiso   1.00
H542   H     0.27839   0.21444   0.60290   0.00000  Uiso   1.00
H543   H     0.20909   0.21816   0.60034   0.00000  Uiso   1.00
H544   H     0.20710   0.17658   0.59622   0.00000  Uiso   1.00
H545   H     0.84779   0.10538   0.99957   0.00000  Uiso   1.00
H546   H     0.12412   0.37846   0.46518   0.00000  Uiso   1.00
H547   H     0.11995   0.63152   0.72663   0.00000  Uiso   1.00
H548   H     0.84707   0.85367   0.26819   0.00000  Uiso   1.00
H549   H     0.18881   0.04184   0.58096   0.00000  Uiso   1.00
H550   H     0.19626   0.44797   0.92713   0.00000  Uiso   1.00
H551   H     0.30098   0.47235   0.92915   0.00000  Uiso   1.00
H552   H     0.27133   0.44448   0.92984   0.00000  Uiso   1.00
C889   C     0.63903   0.11900   0.34284   0.00000  Uiso   1.00
C890   C     0.62748   0.10067   0.35414   0.00000  Uiso   1.00
C891   C     0.64209   0.09782   0.44664   0.00000  Uiso   1.00
C892   C     0.63230   0.07689   0.45712   0.00000  Uiso   1.00
C893   C     0.64501   0.05844   0.46335   0.00000  Uiso   1.00
C894   C     0.63578   0.03781   0.46879   0.00000  Uiso   1.00
C895   C     0.61383   0.03549   0.46827   0.00000  Uiso   1.00
C896   C     0.60115   0.05398   0.46162   0.00000  Uiso   1.00
C897   C     0.61034   0.07457   0.45618   0.00000  Uiso   1.00
N65    N     0.60478   0.01394   0.47137   0.00000  Uiso   1.00
C898   C     0.58745   0.00874   0.48746   0.00000  Uiso   1.00
C899   C     0.57528   0.02365   0.50982   0.00000  Uiso   1.00
C900   C     0.55345   0.02093   0.51193   0.00000  Uiso   1.00
C901   C     0.54164   0.03365   0.53488   0.00000  Uiso   1.00
C902   C     0.55150   0.04929   0.55620   0.00000  Uiso   1.00
C903   C     0.57347   0.05183   0.55412   0.00000  Uiso   1.00
C904   C     0.58527   0.03902   0.53130   0.00000  Uiso   1.00
C905   C     0.53925   0.06085   0.58321   0.00000  Uiso   1.00
C906   C     0.51740   0.05770   0.58569   0.00000  Uiso   1.00
C907   C     0.50630   0.06536   0.61428   0.00000  Uiso   1.00
C908   C     0.51671   0.07669   0.64084   0.00000  Uiso   1.00
C909   C     0.53841   0.08069   0.63769   0.00000  Uiso   1.00
C910   C     0.54956   0.07293   0.60909   0.00000  Uiso   1.00
C911   C     0.10579   0.61494   0.80871   0.00000  Uiso   1.00
C912   C     0.09269   0.60034   0.82661   0.00000  Uiso   1.00
C913   C     0.10835   0.60976   0.91808   0.00000  Uiso   1.00
C914   C     0.09484   0.59453   0.93879   0.00000  Uiso   1.00
C915   C     0.10261   0.58574   0.96978   0.00000  Uiso   1.00
C916   C     0.09002   0.57223   0.99044   0.00000  Uiso   1.00
C917   C     0.06935   0.56722   0.98067   0.00000  Uiso   1.00
C918   C     0.06140   0.57589   0.94975   0.00000  Uiso   1.00
C919   C     0.07403   0.58947   0.92912   0.00000  Uiso   1.00
N66    N     0.05676   0.55374   0.00300   0.00000  Uiso   1.00
C920   C     0.03733   0.54834   0.99670   0.00000  Uiso   1.00
C921   C     0.02516   0.53473   0.02094   0.00000  Uiso   1.00
C922   C     0.00430   0.52917   0.01310   0.00000  Uiso   1.00
C923   C     0.99242   0.51633   0.03594   0.00000  Uiso   1.00
C924   C     0.00118   0.50886   0.06710   0.00000  Uiso   1.00
C925   C     0.02211   0.51472   0.07485   0.00000  Uiso   1.00
C926   C     0.03400   0.52745   0.05198   0.00000  Uiso   1.00
C927   C     0.22017   0.02718   0.07029   0.00000  Uiso   1.00
C928   C     0.22072   0.00408   0.06969   0.00000  Uiso   1.00
C929   C     0.27703   0.04264   0.07451   0.00000  Uiso   1.00
C930   C     0.31777   0.99837   0.07755   0.00000  Uiso   1.00
C931   C     0.33030   0.00413   0.10596   0.00000  Uiso   1.00
C932   C     0.34675   0.99032   0.11648   0.00000  Uiso   1.00
C933   C     0.35106   0.97084   0.09822   0.00000  Uiso   1.00
C934   C     0.33994   0.96619   0.06816   0.00000  Uiso   1.00
C935   C     0.32333   0.97972   0.05809   0.00000  Uiso   1.00
N67    N     0.36559   0.95478   0.11082   0.00000  Uiso   1.00
C936   C     0.37033   0.95292   0.14313   0.00000  Uiso   1.00
C937   C     0.38584   0.93666   0.15455   0.00000  Uiso   1.00
C938   C     0.39531   0.92244   0.13080   0.00000  Uiso   1.00
C939   C     0.41283   0.91002   0.14030   0.00000  Uiso   1.00
C940   C     0.42114   0.91152   0.17371   0.00000  Uiso   1.00
C941   C     0.41053   0.92461   0.19810   0.00000  Uiso   1.00
C942   C     0.39295   0.93709   0.18858   0.00000  Uiso   1.00
C943   C     0.44348   0.90542   0.17952   0.00000  Uiso   1.00
C944   C     0.45570   0.89806   0.15162   0.00000  Uiso   1.00
C945   C     0.47746   0.90142   0.15122   0.00000  Uiso   1.00
C946   C     0.48735   0.91257   0.17851   0.00000  Uiso   1.00
C947   C     0.47554   0.91667   0.20851   0.00000  Uiso   1.00
C948   C     0.45382   0.91329   0.20893   0.00000  Uiso   1.00
N68    N     0.50684   0.07794   0.67426   0.00000  Uiso   1.00
C949   C     0.66573   0.85280   0.85464   0.00000  Uiso   1.00
C950   C     0.67839   0.84183   0.87868   0.00000  Uiso   1.00
C951   C     0.66218   0.86947   0.96257   0.00000  Uiso   1.00
C952   C     0.66739   0.85327   0.98988   0.00000  Uiso   1.00
C953   C     0.66884   0.85961   0.02459   0.00000  Uiso   1.00
C954   C     0.67248   0.84383   0.05021   0.00000  Uiso   1.00
C955   C     0.67452   0.82156   0.04145   0.00000  Uiso   1.00
C956   C     0.67286   0.81521   0.00690   0.00000  Uiso   1.00
C957   C     0.66921   0.83089   0.98160   0.00000  Uiso   1.00
N69    N     0.67884   0.80565   0.06766   0.00000  Uiso   1.00
C958   C     0.68301   0.78531   0.06012   0.00000  Uiso   1.00
C959   C     0.68821   0.76919   0.08655   0.00000  Uiso   1.00
C960   C     0.69922   0.75033   0.07667   0.00000  Uiso   1.00
C961   C     0.70724   0.73611   0.10159   0.00000  Uiso   1.00
C962   C     0.70400   0.74031   0.13675   0.00000  Uiso   1.00
C963   C     0.69194   0.75878   0.14633   0.00000  Uiso   1.00
C964   C     0.68423   0.77325   0.12141   0.00000  Uiso   1.00
C965   C     0.13450   0.35772   0.31021   0.00000  Uiso   1.00
C966   C     0.14900   0.34547   0.32950   0.00000  Uiso   1.00
C967   C     0.13651   0.36230   0.41968   0.00000  Uiso   1.00
C968   C     0.15101   0.34911   0.44210   0.00000  Uiso   1.00
C969   C     0.15705   0.35737   0.47447   0.00000  Uiso   1.00
C970   C     0.16971   0.34494   0.49667   0.00000  Uiso   1.00
C971   C     0.17657   0.32393   0.48710   0.00000  Uiso   1.00
C972   C     0.17066   0.31550   0.45483   0.00000  Uiso   1.00
C973   C     0.15797   0.32796   0.43267   0.00000  Uiso   1.00
N70    N     0.18901   0.31137   0.51094   0.00000  Uiso   1.00
C974   C     0.19623   0.29179   0.50445   0.00000  Uiso   1.00
C975   C     0.20864   0.27942   0.53000   0.00000  Uiso   1.00
C976   C     0.21695   0.25887   0.52098   0.00000  Uiso   1.00
C977   C     0.22887   0.24678   0.54470   0.00000  Uiso   1.00
C978   C     0.23269   0.25503   0.57794   0.00000  Uiso   1.00
C979   C     0.22413   0.27559   0.58697   0.00000  Uiso   1.00
C980   C     0.21222   0.28770   0.56321   0.00000  Uiso   1.00
C981   C     0.75357   0.46946   0.56873   0.00000  Uiso   1.00
C982   C     0.70359   0.51650   0.57096   0.00000  Uiso   1.00
C983   C     0.73408   0.57002   0.57321   0.00000  Uiso   1.00
C984   C     0.72308   0.58275   0.60014   0.00000  Uiso   1.00
C985   C     0.73002   0.60392   0.60784   0.00000  Uiso   1.00
C986   C     0.74696   0.61326   0.58965   0.00000  Uiso   1.00
C987   C     0.75653   0.60166   0.56280   0.00000  Uiso   1.00
C988   C     0.75022   0.58030   0.55463   0.00000  Uiso   1.00
N71    N     0.75573   0.63398   0.59955   0.00000  Uiso   1.00
C989   C     0.74765   0.64603   0.62365   0.00000  Uiso   1.00
C990   C     0.75766   0.66655   0.63434   0.00000  Uiso   1.00
C991   C     0.77825   0.67190   0.62413   0.00000  Uiso   1.00
C992   C     0.78726   0.69185   0.63435   0.00000  Uiso   1.00
C993   C     0.77577   0.70671   0.65477   0.00000  Uiso   1.00
C994   C     0.75524   0.70094   0.66512   0.00000  Uiso   1.00
C995   C     0.74631   0.68098   0.65517   0.00000  Uiso   1.00
N72    N     0.71596   0.72838   0.16247   0.00000  Uiso   1.00
C996   C     0.39268   0.61170   0.38175   0.00000  Uiso   1.00
C997   C     0.40655   0.59873   0.36233   0.00000  Uiso   1.00
C998   C     0.39470   0.61627   0.27224   0.00000  Uiso   1.00
C999   C     0.40924   0.60319   0.24962   0.00000  Uiso   1.00
C1000  C     0.40342   0.59895   0.21532   0.00000  Uiso   1.00
C1001  C     0.41667   0.58719   0.19323   0.00000  Uiso   1.00
C1002  C     0.43619   0.57942   0.20471   0.00000  Uiso   1.00
C1003  C     0.44235   0.58366   0.23883   0.00000  Uiso   1.00
C1004  C     0.42899   0.59548   0.26098   0.00000  Uiso   1.00
N73    N     0.44911   0.56714   0.18117   0.00000  Uiso   1.00
C1005  C     0.46747   0.55886   0.18848   0.00000  Uiso   1.00
C1006  C     0.47938   0.54610   0.16266   0.00000  Uiso   1.00
C1007  C     0.49840   0.53590   0.17183   0.00000  Uiso   1.00
C1008  C     0.50920   0.52262   0.14807   0.00000  Uiso   1.00
C1009  C     0.50114   0.51934   0.11472   0.00000  Uiso   1.00
C1010  C     0.48233   0.53009   0.10553   0.00000  Uiso   1.00
C1011  C     0.47154   0.54326   0.12922   0.00000  Uiso   1.00
C1012  C     0.85914   0.10510   0.91221   0.00000  Uiso   1.00
C1013  C     0.87138   0.09365   0.88813   0.00000  Uiso   1.00
C1014  C     0.86176   0.12585   0.80822   0.00000  Uiso   1.00
C1015  C     0.87649   0.11560   0.78373   0.00000  Uiso   1.00
C1016  C     0.86874   0.10381   0.75546   0.00000  Uiso   1.00
C1017  C     0.88214   0.08983   0.73708   0.00000  Uiso   1.00
C1018  C     0.90330   0.08768   0.74672   0.00000  Uiso   1.00
C1019  C     0.91132   0.10066   0.77361   0.00000  Uiso   1.00
C1020  C     0.89798   0.11457   0.79194   0.00000  Uiso   1.00
N74    N     0.91486   0.06915   0.73427   0.00000  Uiso   1.00
C1021  C     0.93419   0.06519   0.74312   0.00000  Uiso   1.00
C1022  C     0.94389   0.04400   0.73512   0.00000  Uiso   1.00
C1023  C     0.93121   0.02602   0.72601   0.00000  Uiso   1.00
C1024  C     0.94010   0.00520   0.72219   0.00000  Uiso   1.00
C1025  C     0.96176   0.00205   0.72752   0.00000  Uiso   1.00
C1026  C     0.97445   0.02014   0.73642   0.00000  Uiso   1.00
C1027  C     0.96549   0.04099   0.74069   0.00000  Uiso   1.00
C1028  C     0.97119   0.98034   0.72072   0.00000  Uiso   1.00
C1029  C     0.95882   0.96117   0.72218   0.00000  Uiso   1.00
C1030  C     0.96670   0.94120   0.70983   0.00000  Uiso   1.00
C1031  C     0.98711   0.94018   0.69610   0.00000  Uiso   1.00
C1032  C     0.99975   0.95917   0.69621   0.00000  Uiso   1.00
C1033  C     0.99192   0.97904   0.70861   0.00000  Uiso   1.00
C1034  C     0.77978   0.49924   0.56943   0.00000  Uiso   1.00
C1035  C     0.72997   0.54616   0.56984   0.00000  Uiso   1.00
C1036  C     0.68049   0.51090   0.57365   0.00000  Uiso   1.00
C1037  C     0.66585   0.52757   0.58165   0.00000  Uiso   1.00
C1038  C     0.64430   0.52301   0.58442   0.00000  Uiso   1.00
C1039  C     0.63671   0.50152   0.57930   0.00000  Uiso   1.00
C1040  C     0.65107   0.48480   0.57124   0.00000  Uiso   1.00
C1041  C     0.67266   0.48946   0.56840   0.00000  Uiso   1.00
N75    N     0.61460   0.49641   0.58186   0.00000  Uiso   1.00
C1042  C     0.60047   0.51136   0.58820   0.00000  Uiso   1.00
C1043  C     0.57775   0.50651   0.59035   0.00000  Uiso   1.00
C1044  C     0.56972   0.48499   0.58826   0.00000  Uiso   1.00
C1045  C     0.54785   0.48133   0.58933   0.00000  Uiso   1.00
C1046  C     0.53382   0.49916   0.59228   0.00000  Uiso   1.00
C1047  C     0.54201   0.52059   0.59468   0.00000  Uiso   1.00
C1048  C     0.56377   0.52419   0.59387   0.00000  Uiso   1.00
N76    N     0.51127   0.50422   0.09095   0.00000  Uiso   1.00
C1049  C     0.36433   0.36060   0.88327   0.00000  Uiso   1.00
C1050  C     0.35046   0.34684   0.86525   0.00000  Uiso   1.00
C1051  C     0.36571   0.35667   0.77377   0.00000  Uiso   1.00
C1052  C     0.35087   0.34300   0.75278   0.00000  Uiso   1.00
C1053  C     0.34490   0.35036   0.71990   0.00000  Uiso   1.00
C1054  C     0.33143   0.33787   0.69920   0.00000  Uiso   1.00
C1055  C     0.32365   0.31764   0.71072   0.00000  Uiso   1.00
C1056  C     0.32955   0.30999   0.74350   0.00000  Uiso   1.00
C1057  C     0.34308   0.32257   0.76427   0.00000  Uiso   1.00
N77    N     0.30987   0.30542   0.68847   0.00000  Uiso   1.00
C1058  C     0.30201   0.28619   0.69552   0.00000  Uiso   1.00
C1059  C     0.28787   0.27495   0.67105   0.00000  Uiso   1.00
C1060  C     0.27953   0.25429   0.67938   0.00000  Uiso   1.00
C1061  C     0.26558   0.24365   0.65689   0.00000  Uiso   1.00
C1062  C     0.25979   0.25345   0.62547   0.00000  Uiso   1.00
C1063  C     0.26855   0.27403   0.61701   0.00000  Uiso   1.00
C1064  C     0.28238   0.28471   0.63958   0.00000  Uiso   1.00
C1065  C     0.83590   0.86399   0.42530   0.00000  Uiso   1.00
C1066  C     0.82264   0.84714   0.41353   0.00000  Uiso   1.00
C1067  C     0.83338   0.84782   0.31908   0.00000  Uiso   1.00
C1068  C     0.81701   0.83355   0.30348   0.00000  Uiso   1.00
C1069  C     0.80836   0.83992   0.27184   0.00000  Uiso   1.00
C1070  C     0.79302   0.82717   0.25595   0.00000  Uiso   1.00
C1071  C     0.78607   0.80774   0.27126   0.00000  Uiso   1.00
C1072  C     0.79458   0.80100   0.30293   0.00000  Uiso   1.00
C1073  C     0.80996   0.81397   0.31907   0.00000  Uiso   1.00
N78    N     0.77130   0.79478   0.25255   0.00000  Uiso   1.00
C1074  C     0.76336   0.77616   0.26234   0.00000  Uiso   1.00
C1075  C     0.74943   0.76444   0.23851   0.00000  Uiso   1.00
C1076  C     0.74150   0.74354   0.24651   0.00000  Uiso   1.00
C1077  C     0.72970   0.73187   0.22207   0.00000  Uiso   1.00
C1078  C     0.72592   0.74104   0.18942   0.00000  Uiso   1.00
C1079  C     0.73390   0.76201   0.18185   0.00000  Uiso   1.00
C1080  C     0.74541   0.77360   0.20614   0.00000  Uiso   1.00
C1081  C     0.26155   0.96033   0.07095   0.00000  Uiso   1.00
C1082  C     0.24166   0.97018   0.07098   0.00000  Uiso   1.00
C1083  C     0.29804   0.00856   0.07296   0.00000  Uiso   1.00
C1084  C     0.27705   0.06733   0.07815   0.00000  Uiso   1.00
C1085  C     0.29454   0.07837   0.09241   0.00000  Uiso   1.00
C1086  C     0.29421   0.10127   0.09736   0.00000  Uiso   1.00
C1087  C     0.27636   0.11360   0.08832   0.00000  Uiso   1.00
C1088  C     0.25915   0.10281   0.07324   0.00000  Uiso   1.00
C1089  C     0.25961   0.08009   0.06811   0.00000  Uiso   1.00
N79    N     0.27603   0.13697   0.09409   0.00000  Uiso   1.00
C1090  C     0.25876   0.14844   0.09243   0.00000  Uiso   1.00
C1091  C     0.25835   0.17247   0.09689   0.00000  Uiso   1.00
C1092  C     0.23879   0.18303   0.09875   0.00000  Uiso   1.00
C1093  C     0.23763   0.20597   0.10126   0.00000  Uiso   1.00
C1094  C     0.25608   0.21872   0.10178   0.00000  Uiso   1.00
C1095  C     0.27574   0.20807   0.09993   0.00000  Uiso   1.00
C1096  C     0.27688   0.18508   0.09758   0.00000  Uiso   1.00
N80    N     0.24519   0.24251   0.60230   0.00000  Uiso   1.00
C1097  C     0.65212   0.11080   0.47147   0.00000  Uiso   1.00
C1098  C     0.37708   0.37721   0.93596   0.00000  Uiso   1.00
C1099  C     0.38029   0.63030   0.25592   0.00000  Uiso   1.00
C1100  C     0.65251   0.85835   0.79661   0.00000  Uiso   1.00
C1101  C     0.29642   0.03152   0.07642   0.00000  Uiso   1.00
C1102  C     0.29091   0.46110   0.42868   0.00000  Uiso   1.00
C1103  C     0.25836   0.49216   0.43156   0.00000  Uiso   1.00
C1104  C     0.21612   0.47816   0.42996   0.00000  Uiso   1.00
C1105  C     0.23240   0.46286   0.43032   0.00000  Uiso   1.00
C1106  C     0.62100   0.62648   0.13569   0.00000  Uiso   1.00
C1107  C     0.62031   0.62804   0.17229   0.00000  Uiso   1.00
C1108  C     0.15233   0.87618   0.09865   0.00000  Uiso   1.00
C1109  C     0.15225   0.86986   0.13372   0.00000  Uiso   1.00
C1110  C     0.24057   0.99354   0.06944   0.00000  Uiso   1.00
H553   H     0.61697   0.09131   0.33534   0.00000  Uiso   1.00
H554   H     0.66291   0.06023   0.46399   0.00000  Uiso   1.00
H555   H     0.64615   0.02279   0.47368   0.00000  Uiso   1.00
H556   H     0.58325   0.05220   0.46065   0.00000  Uiso   1.00
H557   H     0.59993   0.08952   0.45096   0.00000  Uiso   1.00
H558   H     0.58059   0.99146   0.48475   0.00000  Uiso   1.00
H559   H     0.54520   0.00829   0.49489   0.00000  Uiso   1.00
H560   H     0.52381   0.03141   0.53647   0.00000  Uiso   1.00
H561   H     0.58180   0.06442   0.57114   0.00000  Uiso   1.00
H562   H     0.60313   0.04111   0.53019   0.00000  Uiso   1.00
H563   H     0.50856   0.04881   0.56423   0.00000  Uiso   1.00
H564   H     0.48857   0.06245   0.61628   0.00000  Uiso   1.00
H565   H     0.54708   0.09033   0.65853   0.00000  Uiso   1.00
H566   H     0.56717   0.07639   0.60661   0.00000  Uiso   1.00
H567   H     0.08111   0.58947   0.81192   0.00000  Uiso   1.00
H568   H     0.11941   0.58960   0.97838   0.00000  Uiso   1.00
H569   H     0.09659   0.56521   0.01546   0.00000  Uiso   1.00
H570   H     0.04460   0.57188   0.94135   0.00000  Uiso   1.00
H571   H     0.06746   0.59656   0.90415   0.00000  Uiso   1.00
H572   H     0.02938   0.55416   0.97199   0.00000  Uiso   1.00
H573   H     0.99688   0.53509   0.98801   0.00000  Uiso   1.00
H574   H     0.97543   0.51181   0.02937   0.00000  Uiso   1.00
H575   H     0.02958   0.50908   0.10005   0.00000  Uiso   1.00
H576   H     0.05099   0.53196   0.05854   0.00000  Uiso   1.00
H577   H     0.20438   0.03617   0.07024   0.00000  Uiso   1.00
H578   H     0.32708   0.02009   0.12051   0.00000  Uiso   1.00
H579   H     0.35668   0.99486   0.13990   0.00000  Uiso   1.00
H580   H     0.34445   0.95131   0.05183   0.00000  Uiso   1.00
H581   H     0.31418   0.97551   0.03369   0.00000  Uiso   1.00
H582   H     0.36238   0.96402   0.16294   0.00000  Uiso   1.00
H583   H     0.38868   0.92101   0.10361   0.00000  Uiso   1.00
H584   H     0.42057   0.89849   0.12087   0.00000  Uiso   1.00
H585   H     0.41626   0.92510   0.22591   0.00000  Uiso   1.00
H586   H     0.38444   0.94759   0.20857   0.00000  Uiso   1.00
H587   H     0.44783   0.88927   0.12908   0.00000  Uiso   1.00
H588   H     0.48729   0.89511   0.12870   0.00000  Uiso   1.00
H589   H     0.48375   0.92282   0.23279   0.00000  Uiso   1.00
H590   H     0.44438   0.91693   0.23326   0.00000  Uiso   1.00
H591   H     0.68971   0.82838   0.86982   0.00000  Uiso   1.00
H592   H     0.66705   0.87769   0.03202   0.00000  Uiso   1.00
H593   H     0.67379   0.84911   0.07830   0.00000  Uiso   1.00
H594   H     0.67451   0.79711   0.99950   0.00000  Uiso   1.00
H595   H     0.66769   0.82530   0.95369   0.00000  Uiso   1.00
H596   H     0.68266   0.77962   0.03215   0.00000  Uiso   1.00
H597   H     0.70166   0.74655   0.04820   0.00000  Uiso   1.00
H598   H     0.71654   0.72088   0.09353   0.00000  Uiso   1.00
H599   H     0.68839   0.76202   0.17465   0.00000  Uiso   1.00
H600   H     0.67471   0.78833   0.12947   0.00000  Uiso   1.00
H601   H     0.16066   0.33410   0.31594   0.00000  Uiso   1.00
H602   H     0.15162   0.37444   0.48296   0.00000  Uiso   1.00
H603   H     0.17450   0.35194   0.52277   0.00000  Uiso   1.00
H604   H     0.17620   0.29843   0.44657   0.00000  Uiso   1.00
H605   H     0.15329   0.32074   0.40667   0.00000  Uiso   1.00
H606   H     0.19301   0.28376   0.47844   0.00000  Uiso   1.00
H607   H     0.21403   0.25187   0.49416   0.00000  Uiso   1.00
H608   H     0.23560   0.23004   0.53715   0.00000  Uiso   1.00
H609   H     0.22685   0.28257   0.61386   0.00000  Uiso   1.00
H610   H     0.20538   0.30438   0.57082   0.00000  Uiso   1.00
H611   H     0.70909   0.57521   0.61433   0.00000  Uiso   1.00
H612   H     0.72195   0.61381   0.62903   0.00000  Uiso   1.00
H613   H     0.76971   0.60966   0.54721   0.00000  Uiso   1.00
H614   H     0.75832   0.57119   0.53262   0.00000  Uiso   1.00
H615   H     0.73245   0.64066   0.63691   0.00000  Uiso   1.00
H616   H     0.78765   0.65995   0.60746   0.00000  Uiso   1.00
H617   H     0.80403   0.69615   0.62612   0.00000  Uiso   1.00
H618   H     0.74567   0.71268   0.68189   0.00000  Uiso   1.00
H619   H     0.72973   0.67646   0.66407   0.00000  Uiso   1.00
H620   H     0.41751   0.58656   0.37576   0.00000  Uiso   1.00
H621   H     0.38764   0.60515   0.20509   0.00000  Uiso   1.00
H622   H     0.41159   0.58386   0.16556   0.00000  Uiso   1.00
H623   H     0.45825   0.57750   0.24862   0.00000  Uiso   1.00
H624   H     0.43434   0.59880   0.28852   0.00000  Uiso   1.00
H625   H     0.47458   0.56142   0.21514   0.00000  Uiso   1.00
H626   H     0.50519   0.53836   0.19873   0.00000  Uiso   1.00
H627   H     0.52466   0.51437   0.15573   0.00000  Uiso   1.00
H628   H     0.47567   0.52813   0.07844   0.00000  Uiso   1.00
H629   H     0.45625   0.55178   0.12139   0.00000  Uiso   1.00
H630   H     0.88056   0.07837   0.89633   0.00000  Uiso   1.00
H631   H     0.85152   0.10563   0.74747   0.00000  Uiso   1.00
H632   H     0.87584   0.08013   0.71414   0.00000  Uiso   1.00
H633   H     0.92879   0.09981   0.78045   0.00000  Uiso   1.00
H634   H     0.90454   0.12516   0.81370   0.00000  Uiso   1.00
H635   H     0.94373   0.07830   0.75725   0.00000  Uiso   1.00
H636   H     0.91357   0.02843   0.72171   0.00000  Uiso   1.00
H637   H     0.92975   0.99060   0.71469   0.00000  Uiso   1.00
H638   H     0.99215   0.01785   0.74019   0.00000  Uiso   1.00
H639   H     0.97576   0.05554   0.74870   0.00000  Uiso   1.00
H640   H     0.94224   0.96186   0.73350   0.00000  Uiso   1.00
H641   H     0.95652   0.92572   0.71092   0.00000  Uiso   1.00
H642   H     0.01661   0.95839   0.68606   0.00000  Uiso   1.00
H643   H     0.00243   0.99429   0.70890   0.00000  Uiso   1.00
H644   H     0.67149   0.54519   0.58601   0.00000  Uiso   1.00
H645   H     0.63274   0.53679   0.59088   0.00000  Uiso   1.00
H646   H     0.64524   0.46724   0.56693   0.00000  Uiso   1.00
H647   H     0.68425   0.47575   0.56172   0.00000  Uiso   1.00
H648   H     0.60545   0.52921   0.59240   0.00000  Uiso   1.00
H649   H     0.58096   0.47042   0.58569   0.00000  Uiso   1.00
H650   H     0.54140   0.46382   0.58780   0.00000  Uiso   1.00
H651   H     0.53088   0.53525   0.59732   0.00000  Uiso   1.00
H652   H     0.57011   0.54171   0.59611   0.00000  Uiso   1.00
H653   H     0.33842   0.33648   0.87987   0.00000  Uiso   1.00
H654   H     0.35107   0.36677   0.70974   0.00000  Uiso   1.00
H655   H     0.32669   0.34417   0.67265   0.00000  Uiso   1.00
H656   H     0.32334   0.29351   0.75329   0.00000  Uiso   1.00
H657   H     0.34788   0.31627   0.79079   0.00000  Uiso   1.00
H658   H     0.30602   0.27777   0.72093   0.00000  Uiso   1.00
H659   H     0.28408   0.24598   0.70464   0.00000  Uiso   1.00
H660   H     0.25879   0.22686   0.66397   0.00000  Uiso   1.00
H661   H     0.26441   0.28223   0.59148   0.00000  Uiso   1.00
H662   H     0.28920   0.30145   0.63225   0.00000  Uiso   1.00
H663   H     0.81249   0.83755   0.43256   0.00000  Uiso   1.00
H664   H     0.81391   0.85574   0.25885   0.00000  Uiso   1.00
H665   H     0.78605   0.83259   0.23025   0.00000  Uiso   1.00
H666   H     0.78897   0.78503   0.31540   0.00000  Uiso   1.00
H667   H     0.81680   0.80866   0.34492   0.00000  Uiso   1.00
H668   H     0.76728   0.76930   0.28891   0.00000  Uiso   1.00
H669   H     0.74464   0.73602   0.27291   0.00000  Uiso   1.00
H670   H     0.72314   0.71489   0.22864   0.00000  Uiso   1.00
H671   H     0.73094   0.76968   0.15550   0.00000  Uiso   1.00
H672   H     0.75168   0.79074   0.19981   0.00000  Uiso   1.00
H673   H     0.26300   0.94161   0.07148   0.00000  Uiso   1.00
H674   H     0.30922   0.06869   0.10010   0.00000  Uiso   1.00
H675   H     0.30853   0.10997   0.10881   0.00000  Uiso   1.00
H676   H     0.24465   0.11262   0.06508   0.00000  Uiso   1.00
H677   H     0.24541   0.07188   0.05545   0.00000  Uiso   1.00
H678   H     0.24306   0.13988   0.08732   0.00000  Uiso   1.00
H679   H     0.22363   0.17292   0.09822   0.00000  Uiso   1.00
H680   H     0.22161   0.21444   0.10290   0.00000  Uiso   1.00
H681   H     0.29091   0.21816   0.10034   0.00000  Uiso   1.00
H682   H     0.29290   0.17658   0.09622   0.00000  Uiso   1.00
H683   H     0.65221   0.10538   0.49957   0.00000  Uiso   1.00
H684   H     0.37588   0.37846   0.96518   0.00000  Uiso   1.00
H685   H     0.38005   0.63152   0.22663   0.00000  Uiso   1.00
H686   H     0.65293   0.85367   0.76819   0.00000  Uiso   1.00
H687   H     0.31119   0.04184   0.08096   0.00000  Uiso   1.00
H688   H     0.30374   0.44797   0.42713   0.00000  Uiso   1.00
H689   H     0.19902   0.47235   0.42915   0.00000  Uiso   1.00
H690   H     0.22867   0.44448   0.42984   0.00000  Uiso   1.00
C1111  C     0.86097   0.88100   0.34284   0.00000  Uiso   1.00
C1112  C     0.87252   0.89933   0.35414   0.00000  Uiso   1.00
C1113  C     0.85791   0.90218   0.44664   0.00000  Uiso   1.00
C1114  C     0.86770   0.92311   0.45712   0.00000  Uiso   1.00
C1115  C     0.85499   0.94156   0.46335   0.00000  Uiso   1.00
C1116  C     0.86422   0.96219   0.46879   0.00000  Uiso   1.00
C1117  C     0.88617   0.96451   0.46827   0.00000  Uiso   1.00
C1118  C     0.89885   0.94602   0.46162   0.00000  Uiso   1.00
C1119  C     0.88966   0.92543   0.45618   0.00000  Uiso   1.00
N81    N     0.89522   0.98606   0.47137   0.00000  Uiso   1.00
C1120  C     0.91255   0.99126   0.48746   0.00000  Uiso   1.00
C1121  C     0.92472   0.97635   0.50982   0.00000  Uiso   1.00
C1122  C     0.94655   0.97907   0.51193   0.00000  Uiso   1.00
C1123  C     0.95836   0.96635   0.53488   0.00000  Uiso   1.00
C1124  C     0.94850   0.95071   0.55620   0.00000  Uiso   1.00
C1125  C     0.92653   0.94817   0.55412   0.00000  Uiso   1.00
C1126  C     0.91473   0.96098   0.53130   0.00000  Uiso   1.00
C1127  C     0.96075   0.93915   0.58321   0.00000  Uiso   1.00
C1128  C     0.98260   0.94230   0.58569   0.00000  Uiso   1.00
C1129  C     0.99370   0.93464   0.61428   0.00000  Uiso   1.00
C1130  C     0.98329   0.92331   0.64084   0.00000  Uiso   1.00
C1131  C     0.96159   0.91931   0.63769   0.00000  Uiso   1.00
C1132  C     0.95044   0.92707   0.60909   0.00000  Uiso   1.00
C1133  C     0.39421   0.38506   0.80871   0.00000  Uiso   1.00
C1134  C     0.40731   0.39966   0.82661   0.00000  Uiso   1.00
C1135  C     0.39165   0.39024   0.91808   0.00000  Uiso   1.00
C1136  C     0.40516   0.40547   0.93879   0.00000  Uiso   1.00
C1137  C     0.39739   0.41426   0.96978   0.00000  Uiso   1.00
C1138  C     0.40998   0.42777   0.99044   0.00000  Uiso   1.00
C1139  C     0.43065   0.43278   0.98067   0.00000  Uiso   1.00
C1140  C     0.43860   0.42411   0.94975   0.00000  Uiso   1.00
C1141  C     0.42597   0.41053   0.92912   0.00000  Uiso   1.00
N82    N     0.44324   0.44626   0.00300   0.00000  Uiso   1.00
C1142  C     0.46267   0.45166   0.99670   0.00000  Uiso   1.00
C1143  C     0.47484   0.46527   0.02094   0.00000  Uiso   1.00
C1144  C     0.49570   0.47083   0.01310   0.00000  Uiso   1.00
C1145  C     0.50758   0.48367   0.03594   0.00000  Uiso   1.00
C1146  C     0.49882   0.49114   0.06710   0.00000  Uiso   1.00
C1147  C     0.47789   0.48528   0.07485   0.00000  Uiso   1.00
C1148  C     0.46600   0.47255   0.05198   0.00000  Uiso   1.00
C1149  C     0.27983   0.97282   0.07029   0.00000  Uiso   1.00
C1150  C     0.27928   0.99592   0.06969   0.00000  Uiso   1.00
C1151  C     0.22297   0.95736   0.07451   0.00000  Uiso   1.00
C1152  C     0.18223   0.00163   0.07755   0.00000  Uiso   1.00
C1153  C     0.16970   0.99587   0.10596   0.00000  Uiso   1.00
C1154  C     0.15325   0.00968   0.11648   0.00000  Uiso   1.00
C1155  C     0.14894   0.02916   0.09822   0.00000  Uiso   1.00
C1156  C     0.16006   0.03381   0.06816   0.00000  Uiso   1.00
C1157  C     0.17667   0.02028   0.05809   0.00000  Uiso   1.00
N83    N     0.13441   0.04522   0.11082   0.00000  Uiso   1.00
C1158  C     0.12967   0.04708   0.14313   0.00000  Uiso   1.00
C1159  C     0.11416   0.06334   0.15455   0.00000  Uiso   1.00
C1160  C     0.10469   0.07756   0.13080   0.00000  Uiso   1.00
C1161  C     0.08717   0.08998   0.14030   0.00000  Uiso   1.00
C1162  C     0.07886   0.08848   0.17371   0.00000  Uiso   1.00
C1163  C     0.08947   0.07539   0.19810   0.00000  Uiso   1.00
C1164  C     0.10705   0.06291   0.18858   0.00000  Uiso   1.00
C1165  C     0.05652   0.09458   0.17952   0.00000  Uiso   1.00
C1166  C     0.04430   0.10194   0.15162   0.00000  Uiso   1.00
C1167  C     0.02254   0.09858   0.15122   0.00000  Uiso   1.00
C1168  C     0.01265   0.08743   0.17851   0.00000  Uiso   1.00
C1169  C     0.02446   0.08333   0.20851   0.00000  Uiso   1.00
C1170  C     0.04618   0.08671   0.20893   0.00000  Uiso   1.00
N84    N     0.99316   0.92206   0.67426   0.00000  Uiso   1.00
C1171  C     0.83427   0.14720   0.85464   0.00000  Uiso   1.00
C1172  C     0.82161   0.15817   0.87868   0.00000  Uiso   1.00
C1173  C     0.83782   0.13053   0.96257   0.00000  Uiso   1.00
C1174  C     0.83261   0.14673   0.98988   0.00000  Uiso   1.00
C1175  C     0.83116   0.14039   0.02459   0.00000  Uiso   1.00
C1176  C     0.82752   0.15617   0.05021   0.00000  Uiso   1.00
C1177  C     0.82548   0.17844   0.04145   0.00000  Uiso   1.00
C1178  C     0.82714   0.18479   0.00690   0.00000  Uiso   1.00
C1179  C     0.83079   0.16911   0.98160   0.00000  Uiso   1.00
N85    N     0.82116   0.19435   0.06766   0.00000  Uiso   1.00
C1180  C     0.81699   0.21469   0.06012   0.00000  Uiso   1.00
C1181  C     0.81179   0.23081   0.08655   0.00000  Uiso   1.00
C1182  C     0.80078   0.24967   0.07667   0.00000  Uiso   1.00
C1183  C     0.79276   0.26389   0.10159   0.00000  Uiso   1.00
C1184  C     0.79600   0.25969   0.13675   0.00000  Uiso   1.00
C1185  C     0.80806   0.24122   0.14633   0.00000  Uiso   1.00
C1186  C     0.81577   0.22675   0.12141   0.00000  Uiso   1.00
C1187  C     0.36550   0.64228   0.31021   0.00000  Uiso   1.00
C1188  C     0.35100   0.65453   0.32950   0.00000  Uiso   1.00
C1189  C     0.36349   0.63770   0.41968   0.00000  Uiso   1.00
C1190  C     0.34899   0.65089   0.44210   0.00000  Uiso   1.00
C1191  C     0.34295   0.64263   0.47447   0.00000  Uiso   1.00
C1192  C     0.33029   0.65506   0.49667   0.00000  Uiso   1.00
C1193  C     0.32343   0.67607   0.48710   0.00000  Uiso   1.00
C1194  C     0.32934   0.68450   0.45483   0.00000  Uiso   1.00
C1195  C     0.34203   0.67204   0.43267   0.00000  Uiso   1.00
N86    N     0.31099   0.68863   0.51094   0.00000  Uiso   1.00
C1196  C     0.30377   0.70821   0.50445   0.00000  Uiso   1.00
C1197  C     0.29136   0.72058   0.53000   0.00000  Uiso   1.00
C1198  C     0.28305   0.74113   0.52098   0.00000  Uiso   1.00
C1199  C     0.27113   0.75322   0.54470   0.00000  Uiso   1.00
C1200  C     0.26731   0.74497   0.57794   0.00000  Uiso   1.00
C1201  C     0.27587   0.72441   0.58697   0.00000  Uiso   1.00
C1202  C     0.28778   0.71230   0.56321   0.00000  Uiso   1.00
C1203  C     0.74643   0.53054   0.56873   0.00000  Uiso   1.00
C1204  C     0.79641   0.48350   0.57096   0.00000  Uiso   1.00
C1205  C     0.76592   0.42998   0.57321   0.00000  Uiso   1.00
C1206  C     0.77692   0.41725   0.60014   0.00000  Uiso   1.00
C1207  C     0.76998   0.39608   0.60784   0.00000  Uiso   1.00
C1208  C     0.75304   0.38674   0.58965   0.00000  Uiso   1.00
C1209  C     0.74347   0.39834   0.56280   0.00000  Uiso   1.00
C1210  C     0.74978   0.41970   0.55463   0.00000  Uiso   1.00
N87    N     0.74427   0.36602   0.59955   0.00000  Uiso   1.00
C1211  C     0.75235   0.35397   0.62365   0.00000  Uiso   1.00
C1212  C     0.74234   0.33345   0.63434   0.00000  Uiso   1.00
C1213  C     0.72175   0.32810   0.62413   0.00000  Uiso   1.00
C1214  C     0.71274   0.30815   0.63435   0.00000  Uiso   1.00
C1215  C     0.72423   0.29329   0.65477   0.00000  Uiso   1.00
C1216  C     0.74476   0.29906   0.66512   0.00000  Uiso   1.00
C1217  C     0.75369   0.31902   0.65517   0.00000  Uiso   1.00
N88    N     0.78404   0.27162   0.16247   0.00000  Uiso   1.00
C1218  C     0.10732   0.38830   0.38175   0.00000  Uiso   1.00
C1219  C     0.09345   0.40127   0.36233   0.00000  Uiso   1.00
C1220  C     0.10530   0.38373   0.27224   0.00000  Uiso   1.00
C1221  C     0.09076   0.39681   0.24962   0.00000  Uiso   1.00
C1222  C     0.09658   0.40105   0.21532   0.00000  Uiso   1.00
C1223  C     0.08333   0.41281   0.19323   0.00000  Uiso   1.00
C1224  C     0.06381   0.42058   0.20471   0.00000  Uiso   1.00
C1225  C     0.05765   0.41634   0.23883   0.00000  Uiso   1.00
C1226  C     0.07101   0.40452   0.26098   0.00000  Uiso   1.00
N89    N     0.05089   0.43286   0.18117   0.00000  Uiso   1.00
C1227  C     0.03253   0.44114   0.18848   0.00000  Uiso   1.00
C1228  C     0.02062   0.45390   0.16266   0.00000  Uiso   1.00
C1229  C     0.00160   0.46410   0.17183   0.00000  Uiso   1.00
C1230  C     0.99080   0.47738   0.14807   0.00000  Uiso   1.00
C1231  C     0.99886   0.48066   0.11472   0.00000  Uiso   1.00
C1232  C     0.01767   0.46991   0.10553   0.00000  Uiso   1.00
C1233  C     0.02846   0.45674   0.12922   0.00000  Uiso   1.00
C1234  C     0.64086   0.89490   0.91221   0.00000  Uiso   1.00
C1235  C     0.62862   0.90635   0.88813   0.00000  Uiso   1.00
C1236  C     0.63824   0.87415   0.80822   0.00000  Uiso   1.00
C1237  C     0.62351   0.88440   0.78373   0.00000  Uiso   1.00
C1238  C     0.63126   0.89619   0.75546   0.00000  Uiso   1.00
C1239  C     0.61786   0.91017   0.73708   0.00000  Uiso   1.00
C1240  C     0.59670   0.91232   0.74672   0.00000  Uiso   1.00
C1241  C     0.58868   0.89934   0.77361   0.00000  Uiso   1.00
C1242  C     0.60202   0.88543   0.79194   0.00000  Uiso   1.00
N90    N     0.58514   0.93085   0.73427   0.00000  Uiso   1.00
C1243  C     0.56581   0.93481   0.74312   0.00000  Uiso   1.00
C1244  C     0.55611   0.95600   0.73512   0.00000  Uiso   1.00
C1245  C     0.56879   0.97398   0.72601   0.00000  Uiso   1.00
C1246  C     0.55990   0.99480   0.72219   0.00000  Uiso   1.00
C1247  C     0.53824   0.99795   0.72752   0.00000  Uiso   1.00
C1248  C     0.52555   0.97986   0.73642   0.00000  Uiso   1.00
C1249  C     0.53451   0.95901   0.74069   0.00000  Uiso   1.00
C1250  C     0.52881   0.01966   0.72072   0.00000  Uiso   1.00
C1251  C     0.54118   0.03883   0.72218   0.00000  Uiso   1.00
C1252  C     0.53330   0.05880   0.70983   0.00000  Uiso   1.00
C1253  C     0.51289   0.05982   0.69610   0.00000  Uiso   1.00
C1254  C     0.50025   0.04083   0.69621   0.00000  Uiso   1.00
C1255  C     0.50808   0.02096   0.70861   0.00000  Uiso   1.00
C1256  C     0.72022   0.50076   0.56943   0.00000  Uiso   1.00
C1257  C     0.77003   0.45384   0.56984   0.00000  Uiso   1.00
C1258  C     0.81951   0.48910   0.57365   0.00000  Uiso   1.00
C1259  C     0.83415   0.47243   0.58165   0.00000  Uiso   1.00
C1260  C     0.85570   0.47699   0.58442   0.00000  Uiso   1.00
C1261  C     0.86329   0.49848   0.57930   0.00000  Uiso   1.00
C1262  C     0.84893   0.51520   0.57124   0.00000  Uiso   1.00
C1263  C     0.82734   0.51054   0.56840   0.00000  Uiso   1.00
N91    N     0.88540   0.50359   0.58186   0.00000  Uiso   1.00
C1264  C     0.89953   0.48864   0.58820   0.00000  Uiso   1.00
C1265  C     0.92225   0.49349   0.59035   0.00000  Uiso   1.00
C1266  C     0.93028   0.51501   0.58826   0.00000  Uiso   1.00
C1267  C     0.95215   0.51867   0.58933   0.00000  Uiso   1.00
C1268  C     0.96618   0.50084   0.59228   0.00000  Uiso   1.00
C1269  C     0.95799   0.47941   0.59468   0.00000  Uiso   1.00
C1270  C     0.93623   0.47581   0.59387   0.00000  Uiso   1.00
N92    N     0.98873   0.49578   0.09095   0.00000  Uiso   1.00
C1271  C     0.13567   0.63940   0.88327   0.00000  Uiso   1.00
C1272  C     0.14954   0.65316   0.86525   0.00000  Uiso   1.00
C1273  C     0.13429   0.64333   0.77377   0.00000  Uiso   1.00
C1274  C     0.14913   0.65700   0.75278   0.00000  Uiso   1.00
C1275  C     0.15510   0.64964   0.71990   0.00000  Uiso   1.00
C1276  C     0.16857   0.66213   0.69920   0.00000  Uiso   1.00
C1277  C     0.17635   0.68236   0.71072   0.00000  Uiso   1.00
C1278  C     0.17045   0.69001   0.74350   0.00000  Uiso   1.00
C1279  C     0.15692   0.67743   0.76427   0.00000  Uiso   1.00
N93    N     0.19013   0.69458   0.68847   0.00000  Uiso   1.00
C1280  C     0.19799   0.71381   0.69552   0.00000  Uiso   1.00
C1281  C     0.21213   0.72505   0.67105   0.00000  Uiso   1.00
C1282  C     0.22047   0.74571   0.67938   0.00000  Uiso   1.00
C1283  C     0.23442   0.75635   0.65689   0.00000  Uiso   1.00
C1284  C     0.24021   0.74655   0.62547   0.00000  Uiso   1.00
C1285  C     0.23145   0.72597   0.61701   0.00000  Uiso   1.00
C1286  C     0.21762   0.71529   0.63958   0.00000  Uiso   1.00
C1287  C     0.66410   0.13601   0.42530   0.00000  Uiso   1.00
C1288  C     0.67736   0.15286   0.41353   0.00000  Uiso   1.00
C1289  C     0.66662   0.15218   0.31908   0.00000  Uiso   1.00
C1290  C     0.68299   0.16645   0.30348   0.00000  Uiso   1.00
C1291  C     0.69164   0.16008   0.27184   0.00000  Uiso   1.00
C1292  C     0.70698   0.17283   0.25595   0.00000  Uiso   1.00
C1293  C     0.71393   0.19226   0.27126   0.00000  Uiso   1.00
C1294  C     0.70542   0.19900   0.30293   0.00000  Uiso   1.00
C1295  C     0.69004   0.18603   0.31907   0.00000  Uiso   1.00
N94    N     0.72870   0.20522   0.25255   0.00000  Uiso   1.00
C1296  C     0.73664   0.22384   0.26234   0.00000  Uiso   1.00
C1297  C     0.75057   0.23556   0.23851   0.00000  Uiso   1.00
C1298  C     0.75850   0.25646   0.24651   0.00000  Uiso   1.00
C1299  C     0.77030   0.26813   0.22207   0.00000  Uiso   1.00
C1300  C     0.77408   0.25896   0.18942   0.00000  Uiso   1.00
C1301  C     0.76610   0.23799   0.18185   0.00000  Uiso   1.00
C1302  C     0.75459   0.22640   0.20614   0.00000  Uiso   1.00
C1303  C     0.23845   0.03967   0.07095   0.00000  Uiso   1.00
C1304  C     0.25834   0.02982   0.07098   0.00000  Uiso   1.00
C1305  C     0.20196   0.99144   0.07296   0.00000  Uiso   1.00
C1306  C     0.22295   0.93267   0.07815   0.00000  Uiso   1.00
C1307  C     0.20546   0.92163   0.09241   0.00000  Uiso   1.00
C1308  C     0.20579   0.89873   0.09736   0.00000  Uiso   1.00
C1309  C     0.22364   0.88640   0.08832   0.00000  Uiso   1.00
C1310  C     0.24085   0.89719   0.07324   0.00000  Uiso   1.00
C1311  C     0.24039   0.91991   0.06811   0.00000  Uiso   1.00
N95    N     0.22397   0.86303   0.09409   0.00000  Uiso   1.00
C1312  C     0.24124   0.85156   0.09243   0.00000  Uiso   1.00
C1313  C     0.24165   0.82753   0.09689   0.00000  Uiso   1.00
C1314  C     0.26121   0.81697   0.09875   0.00000  Uiso   1.00
C1315  C     0.26237   0.79403   0.10126   0.00000  Uiso   1.00
C1316  C     0.24392   0.78128   0.10178   0.00000  Uiso   1.00
C1317  C     0.22426   0.79193   0.09993   0.00000  Uiso   1.00
C1318  C     0.22312   0.81492   0.09758   0.00000  Uiso   1.00
N96    N     0.25481   0.75749   0.60230   0.00000  Uiso   1.00
C1319  C     0.84788   0.88920   0.47147   0.00000  Uiso   1.00
C1320  C     0.12292   0.62279   0.93596   0.00000  Uiso   1.00
C1321  C     0.11971   0.36970   0.25592   0.00000  Uiso   1.00
C1322  C     0.84749   0.14165   0.79661   0.00000  Uiso   1.00
C1323  C     0.20358   0.96848   0.07642   0.00000  Uiso   1.00
C1324  C     0.20909   0.53890   0.42868   0.00000  Uiso   1.00
C1325  C     0.24164   0.50784   0.43156   0.00000  Uiso   1.00
C1326  C     0.28388   0.52184   0.42996   0.00000  Uiso   1.00
C1327  C     0.26760   0.53714   0.43032   0.00000  Uiso   1.00
C1328  C     0.87900   0.37352   0.13569   0.00000  Uiso   1.00
C1329  C     0.87969   0.37196   0.17229   0.00000  Uiso   1.00
C1330  C     0.34767   0.12382   0.09865   0.00000  Uiso   1.00
C1331  C     0.34775   0.13014   0.13372   0.00000  Uiso   1.00
C1332  C     0.25943   0.00646   0.06944   0.00000  Uiso   1.00
H691   H     0.88303   0.90869   0.33534   0.00000  Uiso   1.00
H692   H     0.83709   0.93977   0.46399   0.00000  Uiso   1.00
H693   H     0.85385   0.97721   0.47368   0.00000  Uiso   1.00
H694   H     0.91675   0.94780   0.46065   0.00000  Uiso   1.00
H695   H     0.90007   0.91048   0.45096   0.00000  Uiso   1.00
H696   H     0.91941   0.00854   0.48475   0.00000  Uiso   1.00
H697   H     0.95480   0.99171   0.49489   0.00000  Uiso   1.00
H698   H     0.97619   0.96859   0.53647   0.00000  Uiso   1.00
H699   H     0.91820   0.93558   0.57114   0.00000  Uiso   1.00
H700   H     0.89687   0.95889   0.53019   0.00000  Uiso   1.00
H701   H     0.99144   0.95119   0.56423   0.00000  Uiso   1.00
H702   H     0.01143   0.93755   0.61628   0.00000  Uiso   1.00
H703   H     0.95292   0.90967   0.65853   0.00000  Uiso   1.00
H704   H     0.93283   0.92361   0.60661   0.00000  Uiso   1.00
H705   H     0.41889   0.41053   0.81192   0.00000  Uiso   1.00
H706   H     0.38059   0.41040   0.97838   0.00000  Uiso   1.00
H707   H     0.40341   0.43479   0.01546   0.00000  Uiso   1.00
H708   H     0.45540   0.42812   0.94135   0.00000  Uiso   1.00
H709   H     0.43254   0.40344   0.90415   0.00000  Uiso   1.00
H710   H     0.47062   0.44584   0.97199   0.00000  Uiso   1.00
H711   H     0.50312   0.46491   0.98801   0.00000  Uiso   1.00
H712   H     0.52457   0.48819   0.02937   0.00000  Uiso   1.00
H713   H     0.47042   0.49092   0.10005   0.00000  Uiso   1.00
H714   H     0.44901   0.46804   0.05854   0.00000  Uiso   1.00
H715   H     0.29562   0.96383   0.07024   0.00000  Uiso   1.00
H716   H     0.17292   0.97991   0.12051   0.00000  Uiso   1.00
H717   H     0.14332   0.00514   0.13990   0.00000  Uiso   1.00
H718   H     0.15555   0.04869   0.05183   0.00000  Uiso   1.00
H719   H     0.18582   0.02449   0.03369   0.00000  Uiso   1.00
H720   H     0.13762   0.03598   0.16294   0.00000  Uiso   1.00
H721   H     0.11132   0.07899   0.10361   0.00000  Uiso   1.00
H722   H     0.07943   0.10151   0.12087   0.00000  Uiso   1.00
H723   H     0.08374   0.07490   0.22591   0.00000  Uiso   1.00
H724   H     0.11556   0.05241   0.20857   0.00000  Uiso   1.00
H725   H     0.05217   0.11073   0.12908   0.00000  Uiso   1.00
H726   H     0.01271   0.10489   0.12870   0.00000  Uiso   1.00
H727   H     0.01625   0.07718   0.23279   0.00000  Uiso   1.00
H728   H     0.05562   0.08307   0.23326   0.00000  Uiso   1.00
H729   H     0.81029   0.17162   0.86982   0.00000  Uiso   1.00
H730   H     0.83295   0.12231   0.03202   0.00000  Uiso   1.00
H731   H     0.82621   0.15089   0.07830   0.00000  Uiso   1.00
H732   H     0.82549   0.20289   0.99950   0.00000  Uiso   1.00
H733   H     0.83231   0.17470   0.95369   0.00000  Uiso   1.00
H734   H     0.81734   0.22038   0.03215   0.00000  Uiso   1.00
H735   H     0.79834   0.25345   0.04820   0.00000  Uiso   1.00
H736   H     0.78346   0.27912   0.09353   0.00000  Uiso   1.00
H737   H     0.81161   0.23798   0.17465   0.00000  Uiso   1.00
H738   H     0.82529   0.21167   0.12947   0.00000  Uiso   1.00
H739   H     0.33934   0.66590   0.31594   0.00000  Uiso   1.00
H740   H     0.34838   0.62556   0.48296   0.00000  Uiso   1.00
H741   H     0.32550   0.64806   0.52277   0.00000  Uiso   1.00
H742   H     0.32380   0.70157   0.44657   0.00000  Uiso   1.00
H743   H     0.34671   0.67926   0.40667   0.00000  Uiso   1.00
H744   H     0.30699   0.71624   0.47844   0.00000  Uiso   1.00
H745   H     0.28597   0.74813   0.49416   0.00000  Uiso   1.00
H746   H     0.26440   0.76996   0.53715   0.00000  Uiso   1.00
H747   H     0.27315   0.71743   0.61386   0.00000  Uiso   1.00
H748   H     0.29462   0.69562   0.57082   0.00000  Uiso   1.00
H749   H     0.79091   0.42479   0.61433   0.00000  Uiso   1.00
H750   H     0.77805   0.38619   0.62903   0.00000  Uiso   1.00
H751   H     0.73029   0.39034   0.54721   0.00000  Uiso   1.00
H752   H     0.74168   0.42881   0.53262   0.00000  Uiso   1.00
H753   H     0.76755   0.35934   0.63691   0.00000  Uiso   1.00
H754   H     0.71235   0.34005   0.60746   0.00000  Uiso   1.00
H755   H     0.69597   0.30385   0.62612   0.00000  Uiso   1.00
H756   H     0.75433   0.28732   0.68189   0.00000  Uiso   1.00
H757   H     0.77027   0.32354   0.66407   0.00000  Uiso   1.00
H758   H     0.08249   0.41344   0.37576   0.00000  Uiso   1.00
H759   H     0.11236   0.39485   0.20509   0.00000  Uiso   1.00
H760   H     0.08841   0.41614   0.16556   0.00000  Uiso   1.00
H761   H     0.04175   0.42250   0.24862   0.00000  Uiso   1.00
H762   H     0.06566   0.40120   0.28852   0.00000  Uiso   1.00
H763   H     0.02542   0.43858   0.21514   0.00000  Uiso   1.00
H764   H     0.99481   0.46164   0.19873   0.00000  Uiso   1.00
H765   H     0.97534   0.48563   0.15573   0.00000  Uiso   1.00
H766   H     0.02433   0.47187   0.07844   0.00000  Uiso   1.00
H767   H     0.04375   0.44822   0.12139   0.00000  Uiso   1.00
H768   H     0.61944   0.92163   0.89633   0.00000  Uiso   1.00
H769   H     0.64848   0.89437   0.74747   0.00000  Uiso   1.00
H770   H     0.62416   0.91987   0.71414   0.00000  Uiso   1.00
H771   H     0.57121   0.90019   0.78045   0.00000  Uiso   1.00
H772   H     0.59546   0.87484   0.81370   0.00000  Uiso   1.00
H773   H     0.55627   0.92170   0.75725   0.00000  Uiso   1.00
H774   H     0.58643   0.97157   0.72171   0.00000  Uiso   1.00
H775   H     0.57025   0.00940   0.71469   0.00000  Uiso   1.00
H776   H     0.50785   0.98215   0.74019   0.00000  Uiso   1.00
H777   H     0.52424   0.94446   0.74870   0.00000  Uiso   1.00
H778   H     0.55776   0.03814   0.73350   0.00000  Uiso   1.00
H779   H     0.54348   0.07428   0.71092   0.00000  Uiso   1.00
H780   H     0.48339   0.04161   0.68606   0.00000  Uiso   1.00
H781   H     0.49757   0.00571   0.70890   0.00000  Uiso   1.00
H782   H     0.82851   0.45481   0.58601   0.00000  Uiso   1.00
H783   H     0.86726   0.46321   0.59088   0.00000  Uiso   1.00
H784   H     0.85476   0.53276   0.56693   0.00000  Uiso   1.00
H785   H     0.81575   0.52425   0.56172   0.00000  Uiso   1.00
H786   H     0.89455   0.47079   0.59240   0.00000  Uiso   1.00
H787   H     0.91904   0.52958   0.58569   0.00000  Uiso   1.00
H788   H     0.95860   0.53618   0.58780   0.00000  Uiso   1.00
H789   H     0.96912   0.46475   0.59732   0.00000  Uiso   1.00
H790   H     0.92989   0.45829   0.59611   0.00000  Uiso   1.00
H791   H     0.16158   0.66352   0.87987   0.00000  Uiso   1.00
H792   H     0.14893   0.63323   0.70974   0.00000  Uiso   1.00
H793   H     0.17331   0.65583   0.67265   0.00000  Uiso   1.00
H794   H     0.17666   0.70649   0.75329   0.00000  Uiso   1.00
H795   H     0.15212   0.68373   0.79079   0.00000  Uiso   1.00
H796   H     0.19398   0.72223   0.72093   0.00000  Uiso   1.00
H797   H     0.21592   0.75402   0.70464   0.00000  Uiso   1.00
H798   H     0.24121   0.77314   0.66397   0.00000  Uiso   1.00
H799   H     0.23559   0.71777   0.59148   0.00000  Uiso   1.00
H800   H     0.21080   0.69855   0.63225   0.00000  Uiso   1.00
H801   H     0.68751   0.16245   0.43256   0.00000  Uiso   1.00
H802   H     0.68609   0.14426   0.25885   0.00000  Uiso   1.00
H803   H     0.71395   0.16741   0.23025   0.00000  Uiso   1.00
H804   H     0.71103   0.21497   0.31540   0.00000  Uiso   1.00
H805   H     0.68320   0.19134   0.34492   0.00000  Uiso   1.00
H806   H     0.73272   0.23070   0.28891   0.00000  Uiso   1.00
H807   H     0.75536   0.26398   0.27291   0.00000  Uiso   1.00
H808   H     0.77686   0.28511   0.22864   0.00000  Uiso   1.00
H809   H     0.76906   0.23032   0.15550   0.00000  Uiso   1.00
H810   H     0.74832   0.20926   0.19981   0.00000  Uiso   1.00
H811   H     0.23700   0.05839   0.07148   0.00000  Uiso   1.00
H812   H     0.19078   0.93131   0.10010   0.00000  Uiso   1.00
H813   H     0.19147   0.89003   0.10881   0.00000  Uiso   1.00
H814   H     0.25535   0.88738   0.06508   0.00000  Uiso   1.00
H815   H     0.25459   0.92812   0.05545   0.00000  Uiso   1.00
H816   H     0.25694   0.86012   0.08732   0.00000  Uiso   1.00
H817   H     0.27637   0.82708   0.09822   0.00000  Uiso   1.00
H818   H     0.27839   0.78556   0.10290   0.00000  Uiso   1.00
H819   H     0.20909   0.78184   0.10034   0.00000  Uiso   1.00
H820   H     0.20710   0.82342   0.09622   0.00000  Uiso   1.00
H821   H     0.84779   0.89462   0.49957   0.00000  Uiso   1.00
H822   H     0.12412   0.62154   0.96518   0.00000  Uiso   1.00
H823   H     0.11995   0.36848   0.22663   0.00000  Uiso   1.00
H824   H     0.84707   0.14633   0.76819   0.00000  Uiso   1.00
H825   H     0.18881   0.95816   0.08096   0.00000  Uiso   1.00
H826   H     0.19626   0.55203   0.42713   0.00000  Uiso   1.00
H827   H     0.30098   0.52765   0.42915   0.00000  Uiso   1.00
H828   H     0.27133   0.55552   0.42984   0.00000  Uiso   1.00
C1333  C     0.36097   0.11900   0.15716   0.00000  Uiso   1.00
C1334  C     0.37252   0.10067   0.14586   0.00000  Uiso   1.00
C1335  C     0.35791   0.09782   0.05336   0.00000  Uiso   1.00
C1336  C     0.36770   0.07689   0.04288   0.00000  Uiso   1.00
C1337  C     0.35499   0.05844   0.03665   0.00000  Uiso   1.00
C1338  C     0.36422   0.03781   0.03121   0.00000  Uiso   1.00
C1339  C     0.38617   0.03549   0.03173   0.00000  Uiso   1.00
C1340  C     0.39885   0.05398   0.03838   0.00000  Uiso   1.00
C1341  C     0.38966   0.07457   0.04382   0.00000  Uiso   1.00
N97    N     0.39522   0.01394   0.02863   0.00000  Uiso   1.00
C1342  C     0.41255   0.00874   0.01254   0.00000  Uiso   1.00
C1343  C     0.42472   0.02365   0.99018   0.00000  Uiso   1.00
C1344  C     0.44655   0.02093   0.98807   0.00000  Uiso   1.00
C1345  C     0.45836   0.03365   0.96512   0.00000  Uiso   1.00
C1346  C     0.44850   0.04929   0.94380   0.00000  Uiso   1.00
C1347  C     0.42653   0.05183   0.94588   0.00000  Uiso   1.00
C1348  C     0.41473   0.03902   0.96870   0.00000  Uiso   1.00
C1349  C     0.46075   0.06085   0.91679   0.00000  Uiso   1.00
C1350  C     0.48260   0.05770   0.91431   0.00000  Uiso   1.00
C1351  C     0.49370   0.06536   0.88572   0.00000  Uiso   1.00
C1352  C     0.48329   0.07669   0.85916   0.00000  Uiso   1.00
C1353  C     0.46159   0.08069   0.86231   0.00000  Uiso   1.00
C1354  C     0.45044   0.07293   0.89091   0.00000  Uiso   1.00
C1355  C     0.89421   0.61494   0.69129   0.00000  Uiso   1.00
C1356  C     0.90731   0.60034   0.67339   0.00000  Uiso   1.00
C1357  C     0.89165   0.60976   0.58192   0.00000  Uiso   1.00
C1358  C     0.90516   0.59453   0.56121   0.00000  Uiso   1.00
C1359  C     0.89739   0.58574   0.53022   0.00000  Uiso   1.00
C1360  C     0.90998   0.57223   0.50956   0.00000  Uiso   1.00
C1361  C     0.93065   0.56722   0.51933   0.00000  Uiso   1.00
C1362  C     0.93860   0.57589   0.55025   0.00000  Uiso   1.00
C1363  C     0.92597   0.58947   0.57088   0.00000  Uiso   1.00
N98    N     0.94324   0.55374   0.49700   0.00000  Uiso   1.00
C1364  C     0.96267   0.54834   0.50330   0.00000  Uiso   1.00
C1365  C     0.97484   0.53473   0.47906   0.00000  Uiso   1.00
C1366  C     0.99570   0.52917   0.48690   0.00000  Uiso   1.00
C1367  C     0.00758   0.51633   0.46406   0.00000  Uiso   1.00
C1368  C     0.99882   0.50886   0.43290   0.00000  Uiso   1.00
C1369  C     0.97789   0.51472   0.42515   0.00000  Uiso   1.00
C1370  C     0.96600   0.52745   0.44802   0.00000  Uiso   1.00
C1371  C     0.77983   0.02718   0.42971   0.00000  Uiso   1.00
C1372  C     0.77928   0.00408   0.43031   0.00000  Uiso   1.00
C1373  C     0.72297   0.04264   0.42549   0.00000  Uiso   1.00
C1374  C     0.68223   0.99837   0.42245   0.00000  Uiso   1.00
C1375  C     0.66970   0.00413   0.39404   0.00000  Uiso   1.00
C1376  C     0.65325   0.99032   0.38352   0.00000  Uiso   1.00
C1377  C     0.64894   0.97084   0.40178   0.00000  Uiso   1.00
C1378  C     0.66006   0.96619   0.43184   0.00000  Uiso   1.00
C1379  C     0.67667   0.97972   0.44191   0.00000  Uiso   1.00
N99    N     0.63441   0.95478   0.38918   0.00000  Uiso   1.00
C1380  C     0.62967   0.95292   0.35687   0.00000  Uiso   1.00
C1381  C     0.61416   0.93666   0.34545   0.00000  Uiso   1.00
C1382  C     0.60469   0.92244   0.36920   0.00000  Uiso   1.00
C1383  C     0.58717   0.91002   0.35970   0.00000  Uiso   1.00
C1384  C     0.57886   0.91152   0.32629   0.00000  Uiso   1.00
C1385  C     0.58947   0.92461   0.30190   0.00000  Uiso   1.00
C1386  C     0.60705   0.93709   0.31142   0.00000  Uiso   1.00
C1387  C     0.55652   0.90542   0.32048   0.00000  Uiso   1.00
C1388  C     0.54430   0.89806   0.34838   0.00000  Uiso   1.00
C1389  C     0.52254   0.90142   0.34878   0.00000  Uiso   1.00
C1390  C     0.51265   0.91257   0.32149   0.00000  Uiso   1.00
C1391  C     0.52446   0.91667   0.29149   0.00000  Uiso   1.00
C1392  C     0.54618   0.91329   0.29107   0.00000  Uiso   1.00
N100   N     0.49316   0.07794   0.82574   0.00000  Uiso   1.00
C1393  C     0.33427   0.85280   0.64536   0.00000  Uiso   1.00
C1394  C     0.32161   0.84183   0.62132   0.00000  Uiso   1.00
C1395  C     0.33782   0.86947   0.53743   0.00000  Uiso   1.00
C1396  C     0.33261   0.85327   0.51012   0.00000  Uiso   1.00
C1397  C     0.33116   0.85961   0.47541   0.00000  Uiso   1.00
C1398  C     0.32752   0.84383   0.44979   0.00000  Uiso   1.00
C1399  C     0.32548   0.82156   0.45855   0.00000  Uiso   1.00
C1400  C     0.32714   0.81521   0.49310   0.00000  Uiso   1.00
C1401  C     0.33079   0.83089   0.51840   0.00000  Uiso   1.00
N101   N     0.32116   0.80565   0.43234   0.00000  Uiso   1.00
C1402  C     0.31699   0.78531   0.43988   0.00000  Uiso   1.00
C1403  C     0.31179   0.76919   0.41345   0.00000  Uiso   1.00
C1404  C     0.30078   0.75033   0.42333   0.00000  Uiso   1.00
C1405  C     0.29276   0.73611   0.39841   0.00000  Uiso   1.00
C1406  C     0.29600   0.74031   0.36325   0.00000  Uiso   1.00
C1407  C     0.30806   0.75878   0.35367   0.00000  Uiso   1.00
C1408  C     0.31577   0.77325   0.37859   0.00000  Uiso   1.00
C1409  C     0.86550   0.35772   0.18979   0.00000  Uiso   1.00
C1410  C     0.85100   0.34547   0.17050   0.00000  Uiso   1.00
C1411  C     0.86349   0.36230   0.08032   0.00000  Uiso   1.00
C1412  C     0.84899   0.34911   0.05790   0.00000  Uiso   1.00
C1413  C     0.84295   0.35737   0.02553   0.00000  Uiso   1.00
C1414  C     0.83029   0.34494   0.00333   0.00000  Uiso   1.00
C1415  C     0.82343   0.32393   0.01290   0.00000  Uiso   1.00
C1416  C     0.82934   0.31550   0.04517   0.00000  Uiso   1.00
C1417  C     0.84203   0.32796   0.06733   0.00000  Uiso   1.00
N102   N     0.81099   0.31137   0.98906   0.00000  Uiso   1.00
C1418  C     0.80377   0.29179   0.99555   0.00000  Uiso   1.00
C1419  C     0.79136   0.27942   0.97000   0.00000  Uiso   1.00
C1420  C     0.78305   0.25887   0.97902   0.00000  Uiso   1.00
C1421  C     0.77113   0.24678   0.95530   0.00000  Uiso   1.00
C1422  C     0.76731   0.25503   0.92206   0.00000  Uiso   1.00
C1423  C     0.77587   0.27559   0.91303   0.00000  Uiso   1.00
C1424  C     0.78778   0.28770   0.93679   0.00000  Uiso   1.00
C1425  C     0.24643   0.46946   0.93127   0.00000  Uiso   1.00
C1426  C     0.29641   0.51650   0.92904   0.00000  Uiso   1.00
C1427  C     0.26592   0.57002   0.92679   0.00000  Uiso   1.00
C1428  C     0.27692   0.58275   0.89986   0.00000  Uiso   1.00
C1429  C     0.26998   0.60392   0.89216   0.00000  Uiso   1.00
C1430  C     0.25304   0.61326   0.91035   0.00000  Uiso   1.00
C1431  C     0.24347   0.60166   0.93720   0.00000  Uiso   1.00
C1432  C     0.24978   0.58030   0.94537   0.00000  Uiso   1.00
N103   N     0.24427   0.63398   0.90045   0.00000  Uiso   1.00
C1433  C     0.25235   0.64603   0.87635   0.00000  Uiso   1.00
C1434  C     0.24234   0.66655   0.86566   0.00000  Uiso   1.00
C1435  C     0.22175   0.67190   0.87587   0.00000  Uiso   1.00
C1436  C     0.21274   0.69185   0.86565   0.00000  Uiso   1.00
C1437  C     0.22423   0.70671   0.84523   0.00000  Uiso   1.00
C1438  C     0.24476   0.70094   0.83488   0.00000  Uiso   1.00
C1439  C     0.25369   0.68098   0.84483   0.00000  Uiso   1.00
N104   N     0.28404   0.72838   0.33753   0.00000  Uiso   1.00
C1440  C     0.60732   0.61170   0.11825   0.00000  Uiso   1.00
C1441  C     0.59345   0.59873   0.13767   0.00000  Uiso   1.00
C1442  C     0.60530   0.61627   0.22776   0.00000  Uiso   1.00
C1443  C     0.59076   0.60319   0.25038   0.00000  Uiso   1.00
C1444  C     0.59658   0.59895   0.28468   0.00000  Uiso   1.00
C1445  C     0.58333   0.58719   0.30677   0.00000  Uiso   1.00
C1446  C     0.56381   0.57942   0.29529   0.00000  Uiso   1.00
C1447  C     0.55765   0.58366   0.26117   0.00000  Uiso   1.00
C1448  C     0.57101   0.59548   0.23902   0.00000  Uiso   1.00
N105   N     0.55089   0.56714   0.31883   0.00000  Uiso   1.00
C1449  C     0.53253   0.55886   0.31152   0.00000  Uiso   1.00
C1450  C     0.52062   0.54610   0.33734   0.00000  Uiso   1.00
C1451  C     0.50160   0.53590   0.32817   0.00000  Uiso   1.00
C1452  C     0.49080   0.52262   0.35193   0.00000  Uiso   1.00
C1453  C     0.49886   0.51934   0.38528   0.00000  Uiso   1.00
C1454  C     0.51767   0.53009   0.39447   0.00000  Uiso   1.00
C1455  C     0.52846   0.54326   0.37078   0.00000  Uiso   1.00
C1456  C     0.14086   0.10510   0.58779   0.00000  Uiso   1.00
C1457  C     0.12862   0.09365   0.61187   0.00000  Uiso   1.00
C1458  C     0.13824   0.12585   0.69178   0.00000  Uiso   1.00
C1459  C     0.12351   0.11560   0.71627   0.00000  Uiso   1.00
C1460  C     0.13126   0.10381   0.74454   0.00000  Uiso   1.00
C1461  C     0.11786   0.08983   0.76292   0.00000  Uiso   1.00
C1462  C     0.09670   0.08768   0.75328   0.00000  Uiso   1.00
C1463  C     0.08868   0.10066   0.72639   0.00000  Uiso   1.00
C1464  C     0.10202   0.11457   0.70806   0.00000  Uiso   1.00
N106   N     0.08514   0.06915   0.76573   0.00000  Uiso   1.00
C1465  C     0.06581   0.06519   0.75688   0.00000  Uiso   1.00
C1466  C     0.05611   0.04400   0.76488   0.00000  Uiso   1.00
C1467  C     0.06879   0.02602   0.77399   0.00000  Uiso   1.00
C1468  C     0.05990   0.00520   0.77781   0.00000  Uiso   1.00
C1469  C     0.03824   0.00205   0.77248   0.00000  Uiso   1.00
C1470  C     0.02555   0.02014   0.76358   0.00000  Uiso   1.00
C1471  C     0.03451   0.04099   0.75931   0.00000  Uiso   1.00
C1472  C     0.02881   0.98034   0.77928   0.00000  Uiso   1.00
C1473  C     0.04118   0.96117   0.77782   0.00000  Uiso   1.00
C1474  C     0.03330   0.94120   0.79017   0.00000  Uiso   1.00
C1475  C     0.01289   0.94018   0.80390   0.00000  Uiso   1.00
C1476  C     0.00025   0.95917   0.80379   0.00000  Uiso   1.00
C1477  C     0.00808   0.97904   0.79139   0.00000  Uiso   1.00
C1478  C     0.22022   0.49924   0.93057   0.00000  Uiso   1.00
C1479  C     0.27003   0.54616   0.93016   0.00000  Uiso   1.00
C1480  C     0.31951   0.51090   0.92635   0.00000  Uiso   1.00
C1481  C     0.33415   0.52757   0.91835   0.00000  Uiso   1.00
C1482  C     0.35570   0.52301   0.91558   0.00000  Uiso   1.00
C1483  C     0.36329   0.50152   0.92070   0.00000  Uiso   1.00
C1484  C     0.34893   0.48480   0.92876   0.00000  Uiso   1.00
C1485  C     0.32734   0.48946   0.93160   0.00000  Uiso   1.00
N107   N     0.38540   0.49641   0.91814   0.00000  Uiso   1.00
C1486  C     0.39953   0.51136   0.91180   0.00000  Uiso   1.00
C1487  C     0.42225   0.50651   0.90965   0.00000  Uiso   1.00
C1488  C     0.43028   0.48499   0.91174   0.00000  Uiso   1.00
C1489  C     0.45215   0.48133   0.91067   0.00000  Uiso   1.00
C1490  C     0.46618   0.49916   0.90772   0.00000  Uiso   1.00
C1491  C     0.45799   0.52059   0.90532   0.00000  Uiso   1.00
C1492  C     0.43623   0.52419   0.90613   0.00000  Uiso   1.00
N108   N     0.48873   0.50422   0.40905   0.00000  Uiso   1.00
C1493  C     0.63567   0.36060   0.61673   0.00000  Uiso   1.00
C1494  C     0.64954   0.34684   0.63475   0.00000  Uiso   1.00
C1495  C     0.63429   0.35667   0.72623   0.00000  Uiso   1.00
C1496  C     0.64913   0.34300   0.74722   0.00000  Uiso   1.00
C1497  C     0.65510   0.35036   0.78010   0.00000  Uiso   1.00
C1498  C     0.66857   0.33787   0.80080   0.00000  Uiso   1.00
C1499  C     0.67635   0.31764   0.78928   0.00000  Uiso   1.00
C1500  C     0.67045   0.30999   0.75650   0.00000  Uiso   1.00
C1501  C     0.65692   0.32257   0.73573   0.00000  Uiso   1.00
N109   N     0.69013   0.30542   0.81153   0.00000  Uiso   1.00
C1502  C     0.69799   0.28619   0.80448   0.00000  Uiso   1.00
C1503  C     0.71213   0.27495   0.82895   0.00000  Uiso   1.00
C1504  C     0.72047   0.25429   0.82062   0.00000  Uiso   1.00
C1505  C     0.73442   0.24365   0.84311   0.00000  Uiso   1.00
C1506  C     0.74021   0.25345   0.87453   0.00000  Uiso   1.00
C1507  C     0.73145   0.27403   0.88299   0.00000  Uiso   1.00
C1508  C     0.71762   0.28471   0.86042   0.00000  Uiso   1.00
C1509  C     0.16410   0.86399   0.07470   0.00000  Uiso   1.00
C1510  C     0.17736   0.84714   0.08647   0.00000  Uiso   1.00
C1511  C     0.16662   0.84782   0.18092   0.00000  Uiso   1.00
C1512  C     0.18299   0.83355   0.19652   0.00000  Uiso   1.00
C1513  C     0.19164   0.83992   0.22816   0.00000  Uiso   1.00
C1514  C     0.20698   0.82717   0.24405   0.00000  Uiso   1.00
C1515  C     0.21393   0.80774   0.22874   0.00000  Uiso   1.00
C1516  C     0.20542   0.80100   0.19707   0.00000  Uiso   1.00
C1517  C     0.19004   0.81397   0.18093   0.00000  Uiso   1.00
N110   N     0.22870   0.79478   0.24745   0.00000  Uiso   1.00
C1518  C     0.23664   0.77616   0.23766   0.00000  Uiso   1.00
C1519  C     0.25057   0.76444   0.26149   0.00000  Uiso   1.00
C1520  C     0.25850   0.74354   0.25349   0.00000  Uiso   1.00
C1521  C     0.27030   0.73187   0.27793   0.00000  Uiso   1.00
C1522  C     0.27408   0.74104   0.31058   0.00000  Uiso   1.00
C1523  C     0.26610   0.76201   0.31815   0.00000  Uiso   1.00
C1524  C     0.25459   0.77360   0.29386   0.00000  Uiso   1.00
C1525  C     0.73845   0.96033   0.42905   0.00000  Uiso   1.00
C1526  C     0.75834   0.97018   0.42902   0.00000  Uiso   1.00
C1527  C     0.70196   0.00856   0.42704   0.00000  Uiso   1.00
C1528  C     0.72295   0.06733   0.42185   0.00000  Uiso   1.00
C1529  C     0.70546   0.07837   0.40759   0.00000  Uiso   1.00
C1530  C     0.70579   0.10127   0.40264   0.00000  Uiso   1.00
C1531  C     0.72364   0.11360   0.41168   0.00000  Uiso   1.00
C1532  C     0.74085   0.10281   0.42676   0.00000  Uiso   1.00
C1533  C     0.74039   0.08009   0.43189   0.00000  Uiso   1.00
N111   N     0.72397   0.13697   0.40591   0.00000  Uiso   1.00
C1534  C     0.74124   0.14844   0.40757   0.00000  Uiso   1.00
C1535  C     0.74165   0.17247   0.40311   0.00000  Uiso   1.00
C1536  C     0.76121   0.18303   0.40125   0.00000  Uiso   1.00
C1537  C     0.76237   0.20597   0.39874   0.00000  Uiso   1.00
C1538  C     0.74392   0.21872   0.39822   0.00000  Uiso   1.00
C1539  C     0.72426   0.20807   0.40007   0.00000  Uiso   1.00
C1540  C     0.72312   0.18508   0.40242   0.00000  Uiso   1.00
N112   N     0.75481   0.24251   0.89770   0.00000  Uiso   1.00
C1541  C     0.34788   0.11080   0.02853   0.00000  Uiso   1.00
C1542  C     0.62292   0.37721   0.56404   0.00000  Uiso   1.00
C1543  C     0.61971   0.63030   0.24408   0.00000  Uiso   1.00
C1544  C     0.34749   0.85835   0.70339   0.00000  Uiso   1.00
C1545  C     0.70358   0.03152   0.42358   0.00000  Uiso   1.00
C1546  C     0.70909   0.46110   0.07132   0.00000  Uiso   1.00
C1547  C     0.74164   0.49216   0.06844   0.00000  Uiso   1.00
C1548  C     0.78388   0.47816   0.07004   0.00000  Uiso   1.00
C1549  C     0.76760   0.46286   0.06968   0.00000  Uiso   1.00
C1550  C     0.37900   0.62648   0.36431   0.00000  Uiso   1.00
C1551  C     0.37969   0.62804   0.32771   0.00000  Uiso   1.00
C1552  C     0.84767   0.87618   0.40135   0.00000  Uiso   1.00
C1553  C     0.84775   0.86986   0.36628   0.00000  Uiso   1.00
C1554  C     0.75943   0.99354   0.43056   0.00000  Uiso   1.00
H829   H     0.38303   0.09131   0.16466   0.00000  Uiso   1.00
H830   H     0.33709   0.06023   0.03601   0.00000  Uiso   1.00
H831   H     0.35385   0.02279   0.02632   0.00000  Uiso   1.00
H832   H     0.41675   0.05220   0.03935   0.00000  Uiso   1.00
H833   H     0.40007   0.08952   0.04904   0.00000  Uiso   1.00
H834   H     0.41941   0.99146   0.01525   0.00000  Uiso   1.00
H835   H     0.45480   0.00829   0.00511   0.00000  Uiso   1.00
H836   H     0.47619   0.03141   0.96353   0.00000  Uiso   1.00
H837   H     0.41820   0.06442   0.92886   0.00000  Uiso   1.00
H838   H     0.39687   0.04111   0.96981   0.00000  Uiso   1.00
H839   H     0.49144   0.04881   0.93577   0.00000  Uiso   1.00
H840   H     0.51143   0.06245   0.88372   0.00000  Uiso   1.00
H841   H     0.45292   0.09033   0.84147   0.00000  Uiso   1.00
H842   H     0.43283   0.07639   0.89339   0.00000  Uiso   1.00
H843   H     0.91889   0.58947   0.68808   0.00000  Uiso   1.00
H844   H     0.88059   0.58960   0.52162   0.00000  Uiso   1.00
H845   H     0.90341   0.56521   0.48454   0.00000  Uiso   1.00
H846   H     0.95540   0.57188   0.55865   0.00000  Uiso   1.00
H847   H     0.93254   0.59656   0.59585   0.00000  Uiso   1.00
H848   H     0.97062   0.55416   0.52801   0.00000  Uiso   1.00
H849   H     0.00312   0.53509   0.51199   0.00000  Uiso   1.00
H850   H     0.02457   0.51181   0.47063   0.00000  Uiso   1.00
H851   H     0.97042   0.50908   0.39995   0.00000  Uiso   1.00
H852   H     0.94901   0.53196   0.44146   0.00000  Uiso   1.00
H853   H     0.79562   0.03617   0.42976   0.00000  Uiso   1.00
H854   H     0.67292   0.02009   0.37949   0.00000  Uiso   1.00
H855   H     0.64332   0.99486   0.36010   0.00000  Uiso   1.00
H856   H     0.65555   0.95131   0.44817   0.00000  Uiso   1.00
H857   H     0.68582   0.97551   0.46631   0.00000  Uiso   1.00
H858   H     0.63762   0.96402   0.33706   0.00000  Uiso   1.00
H859   H     0.61132   0.92101   0.39639   0.00000  Uiso   1.00
H860   H     0.57943   0.89849   0.37913   0.00000  Uiso   1.00
H861   H     0.58374   0.92510   0.27409   0.00000  Uiso   1.00
H862   H     0.61556   0.94759   0.29143   0.00000  Uiso   1.00
H863   H     0.55217   0.88927   0.37092   0.00000  Uiso   1.00
H864   H     0.51271   0.89511   0.37130   0.00000  Uiso   1.00
H865   H     0.51625   0.92282   0.26721   0.00000  Uiso   1.00
H866   H     0.55562   0.91693   0.26674   0.00000  Uiso   1.00
H867   H     0.31029   0.82838   0.63018   0.00000  Uiso   1.00
H868   H     0.33295   0.87769   0.46798   0.00000  Uiso   1.00
H869   H     0.32621   0.84911   0.42170   0.00000  Uiso   1.00
H870   H     0.32549   0.79711   0.50050   0.00000  Uiso   1.00
H871   H     0.33231   0.82530   0.54631   0.00000  Uiso   1.00
H872   H     0.31734   0.77962   0.46785   0.00000  Uiso   1.00
H873   H     0.29834   0.74655   0.45180   0.00000  Uiso   1.00
H874   H     0.28346   0.72088   0.40647   0.00000  Uiso   1.00
H875   H     0.31161   0.76202   0.32535   0.00000  Uiso   1.00
H876   H     0.32529   0.78833   0.37053   0.00000  Uiso   1.00
H877   H     0.83934   0.33410   0.18406   0.00000  Uiso   1.00
H878   H     0.84838   0.37444   0.01704   0.00000  Uiso   1.00
H879   H     0.82550   0.35194   0.97723   0.00000  Uiso   1.00
H880   H     0.82380   0.29843   0.05343   0.00000  Uiso   1.00
H881   H     0.84671   0.32074   0.09333   0.00000  Uiso   1.00
H882   H     0.80699   0.28376   0.02156   0.00000  Uiso   1.00
H883   H     0.78597   0.25187   0.00584   0.00000  Uiso   1.00
H884   H     0.76440   0.23004   0.96285   0.00000  Uiso   1.00
H885   H     0.77315   0.28257   0.88614   0.00000  Uiso   1.00
H886   H     0.79462   0.30438   0.92918   0.00000  Uiso   1.00
H887   H     0.29091   0.57521   0.88567   0.00000  Uiso   1.00
H888   H     0.27805   0.61381   0.87097   0.00000  Uiso   1.00
H889   H     0.23029   0.60966   0.95279   0.00000  Uiso   1.00
H890   H     0.24168   0.57119   0.96738   0.00000  Uiso   1.00
H891   H     0.26755   0.64066   0.86309   0.00000  Uiso   1.00
H892   H     0.21235   0.65995   0.89254   0.00000  Uiso   1.00
H893   H     0.19597   0.69615   0.87388   0.00000  Uiso   1.00
H894   H     0.25433   0.71268   0.81811   0.00000  Uiso   1.00
H895   H     0.27027   0.67646   0.83593   0.00000  Uiso   1.00
H896   H     0.58249   0.58656   0.12424   0.00000  Uiso   1.00
H897   H     0.61236   0.60515   0.29491   0.00000  Uiso   1.00
H898   H     0.58841   0.58386   0.33444   0.00000  Uiso   1.00
H899   H     0.54175   0.57750   0.25138   0.00000  Uiso   1.00
H900   H     0.56566   0.59880   0.21148   0.00000  Uiso   1.00
H901   H     0.52542   0.56142   0.28486   0.00000  Uiso   1.00
H902   H     0.49481   0.53836   0.30127   0.00000  Uiso   1.00
H903   H     0.47534   0.51437   0.34427   0.00000  Uiso   1.00
H904   H     0.52433   0.52813   0.42156   0.00000  Uiso   1.00
H905   H     0.54375   0.55178   0.37861   0.00000  Uiso   1.00
H906   H     0.11944   0.07837   0.60367   0.00000  Uiso   1.00
H907   H     0.14848   0.10563   0.75253   0.00000  Uiso   1.00
H908   H     0.12416   0.08013   0.78586   0.00000  Uiso   1.00
H909   H     0.07121   0.09981   0.71955   0.00000  Uiso   1.00
H910   H     0.09546   0.12516   0.68630   0.00000  Uiso   1.00
H911   H     0.05627   0.07830   0.74275   0.00000  Uiso   1.00
H912   H     0.08643   0.02843   0.77829   0.00000  Uiso   1.00
H913   H     0.07025   0.99060   0.78531   0.00000  Uiso   1.00
H914   H     0.00785   0.01785   0.75981   0.00000  Uiso   1.00
H915   H     0.02424   0.05554   0.75130   0.00000  Uiso   1.00
H916   H     0.05776   0.96186   0.76650   0.00000  Uiso   1.00
H917   H     0.04348   0.92572   0.78908   0.00000  Uiso   1.00
H918   H     0.98339   0.95839   0.81394   0.00000  Uiso   1.00
H919   H     0.99757   0.99429   0.79110   0.00000  Uiso   1.00
H920   H     0.32851   0.54519   0.91399   0.00000  Uiso   1.00
H921   H     0.36726   0.53679   0.90912   0.00000  Uiso   1.00
H922   H     0.35476   0.46724   0.93307   0.00000  Uiso   1.00
H923   H     0.31575   0.47575   0.93828   0.00000  Uiso   1.00
H924   H     0.39455   0.52921   0.90760   0.00000  Uiso   1.00
H925   H     0.41904   0.47042   0.91431   0.00000  Uiso   1.00
H926   H     0.45860   0.46382   0.91220   0.00000  Uiso   1.00
H927   H     0.46912   0.53525   0.90268   0.00000  Uiso   1.00
H928   H     0.42989   0.54171   0.90389   0.00000  Uiso   1.00
H929   H     0.66158   0.33648   0.62013   0.00000  Uiso   1.00
H930   H     0.64893   0.36677   0.79026   0.00000  Uiso   1.00
H931   H     0.67331   0.34417   0.82735   0.00000  Uiso   1.00
H932   H     0.67666   0.29351   0.74671   0.00000  Uiso   1.00
H933   H     0.65212   0.31627   0.70921   0.00000  Uiso   1.00
H934   H     0.69398   0.27777   0.77907   0.00000  Uiso   1.00
H935   H     0.71592   0.24598   0.79536   0.00000  Uiso   1.00
H936   H     0.74121   0.22686   0.83603   0.00000  Uiso   1.00
H937   H     0.73559   0.28223   0.90852   0.00000  Uiso   1.00
H938   H     0.71080   0.30145   0.86775   0.00000  Uiso   1.00
H939   H     0.18751   0.83755   0.06744   0.00000  Uiso   1.00
H940   H     0.18609   0.85574   0.24115   0.00000  Uiso   1.00
H941   H     0.21395   0.83259   0.26975   0.00000  Uiso   1.00
H942   H     0.21103   0.78503   0.18460   0.00000  Uiso   1.00
H943   H     0.18320   0.80866   0.15508   0.00000  Uiso   1.00
H944   H     0.23272   0.76930   0.21109   0.00000  Uiso   1.00
H945   H     0.25536   0.73602   0.22709   0.00000  Uiso   1.00
H946   H     0.27686   0.71489   0.27136   0.00000  Uiso   1.00
H947   H     0.26906   0.76968   0.34450   0.00000  Uiso   1.00
H948   H     0.24832   0.79074   0.30019   0.00000  Uiso   1.00
H949   H     0.73700   0.94161   0.42852   0.00000  Uiso   1.00
H950   H     0.69078   0.06869   0.39990   0.00000  Uiso   1.00
H951   H     0.69147   0.10997   0.39119   0.00000  Uiso   1.00
H952   H     0.75535   0.11262   0.43492   0.00000  Uiso   1.00
H953   H     0.75459   0.07188   0.44455   0.00000  Uiso   1.00
H954   H     0.75694   0.13988   0.41268   0.00000  Uiso   1.00
H955   H     0.77637   0.17292   0.40178   0.00000  Uiso   1.00
H956   H     0.77839   0.21444   0.39710   0.00000  Uiso   1.00
H957   H     0.70909   0.21816   0.39966   0.00000  Uiso   1.00
H958   H     0.70710   0.17658   0.40378   0.00000  Uiso   1.00
H959   H     0.34779   0.10538   0.00043   0.00000  Uiso   1.00
H960   H     0.62412   0.37846   0.53482   0.00000  Uiso   1.00
H961   H     0.61995   0.63152   0.27337   0.00000  Uiso   1.00
H962   H     0.34707   0.85367   0.73181   0.00000  Uiso   1.00
H963   H     0.68881   0.04184   0.41904   0.00000  Uiso   1.00
H964   H     0.69626   0.44797   0.07287   0.00000  Uiso   1.00
H965   H     0.80098   0.47235   0.07085   0.00000  Uiso   1.00
H966   H     0.77133   0.44448   0.07016   0.00000  Uiso   1.00
C1555  C     0.13903   0.88100   0.15716   0.00000  Uiso   1.00
C1556  C     0.12748   0.89933   0.14586   0.00000  Uiso   1.00
C1557  C     0.14209   0.90218   0.05336   0.00000  Uiso   1.00
C1558  C     0.13230   0.92311   0.04288   0.00000  Uiso   1.00
C1559  C     0.14501   0.94156   0.03665   0.00000  Uiso   1.00
C1560  C     0.13578   0.96219   0.03121   0.00000  Uiso   1.00
C1561  C     0.11383   0.96451   0.03173   0.00000  Uiso   1.00
C1562  C     0.10115   0.94602   0.03838   0.00000  Uiso   1.00
C1563  C     0.11034   0.92543   0.04382   0.00000  Uiso   1.00
N113   N     0.10478   0.98606   0.02863   0.00000  Uiso   1.00
C1564  C     0.08745   0.99126   0.01254   0.00000  Uiso   1.00
C1565  C     0.07528   0.97635   0.99018   0.00000  Uiso   1.00
C1566  C     0.05345   0.97907   0.98807   0.00000  Uiso   1.00
C1567  C     0.04164   0.96635   0.96512   0.00000  Uiso   1.00
C1568  C     0.05150   0.95071   0.94380   0.00000  Uiso   1.00
C1569  C     0.07347   0.94817   0.94588   0.00000  Uiso   1.00
C1570  C     0.08527   0.96098   0.96870   0.00000  Uiso   1.00
C1571  C     0.03925   0.93915   0.91679   0.00000  Uiso   1.00
C1572  C     0.01740   0.94230   0.91431   0.00000  Uiso   1.00
C1573  C     0.00630   0.93464   0.88572   0.00000  Uiso   1.00
C1574  C     0.01671   0.92331   0.85916   0.00000  Uiso   1.00
C1575  C     0.03841   0.91931   0.86231   0.00000  Uiso   1.00
C1576  C     0.04956   0.92707   0.89091   0.00000  Uiso   1.00
C1577  C     0.60579   0.38506   0.69129   0.00000  Uiso   1.00
C1578  C     0.59269   0.39966   0.67339   0.00000  Uiso   1.00
C1579  C     0.60835   0.39024   0.58192   0.00000  Uiso   1.00
C1580  C     0.59484   0.40547   0.56121   0.00000  Uiso   1.00
C1581  C     0.60261   0.41426   0.53022   0.00000  Uiso   1.00
C1582  C     0.59002   0.42777   0.50956   0.00000  Uiso   1.00
C1583  C     0.56935   0.43278   0.51933   0.00000  Uiso   1.00
C1584  C     0.56140   0.42411   0.55025   0.00000  Uiso   1.00
C1585  C     0.57403   0.41053   0.57088   0.00000  Uiso   1.00
N114   N     0.55676   0.44626   0.49700   0.00000  Uiso   1.00
C1586  C     0.53733   0.45166   0.50330   0.00000  Uiso   1.00
C1587  C     0.52516   0.46527   0.47906   0.00000  Uiso   1.00
C1588  C     0.50430   0.47083   0.48690   0.00000  Uiso   1.00
C1589  C     0.49242   0.48367   0.46406   0.00000  Uiso   1.00
C1590  C     0.50118   0.49114   0.43290   0.00000  Uiso   1.00
C1591  C     0.52211   0.48528   0.42515   0.00000  Uiso   1.00
C1592  C     0.53400   0.47255   0.44802   0.00000  Uiso   1.00
C1593  C     0.72017   0.97282   0.42971   0.00000  Uiso   1.00
C1594  C     0.72072   0.99592   0.43031   0.00000  Uiso   1.00
C1595  C     0.77703   0.95736   0.42549   0.00000  Uiso   1.00
C1596  C     0.81777   0.00163   0.42245   0.00000  Uiso   1.00
C1597  C     0.83030   0.99587   0.39404   0.00000  Uiso   1.00
C1598  C     0.84675   0.00968   0.38352   0.00000  Uiso   1.00
C1599  C     0.85106   0.02916   0.40178   0.00000  Uiso   1.00
C1600  C     0.83994   0.03381   0.43184   0.00000  Uiso   1.00
C1601  C     0.82333   0.02028   0.44191   0.00000  Uiso   1.00
N115   N     0.86559   0.04522   0.38918   0.00000  Uiso   1.00
C1602  C     0.87033   0.04708   0.35687   0.00000  Uiso   1.00
C1603  C     0.88584   0.06334   0.34545   0.00000  Uiso   1.00
C1604  C     0.89531   0.07756   0.36920   0.00000  Uiso   1.00
C1605  C     0.91283   0.08998   0.35970   0.00000  Uiso   1.00
C1606  C     0.92114   0.08848   0.32629   0.00000  Uiso   1.00
C1607  C     0.91053   0.07539   0.30190   0.00000  Uiso   1.00
C1608  C     0.89295   0.06291   0.31142   0.00000  Uiso   1.00
C1609  C     0.94348   0.09458   0.32048   0.00000  Uiso   1.00
C1610  C     0.95570   0.10194   0.34838   0.00000  Uiso   1.00
C1611  C     0.97746   0.09858   0.34878   0.00000  Uiso   1.00
C1612  C     0.98735   0.08743   0.32149   0.00000  Uiso   1.00
C1613  C     0.97554   0.08333   0.29149   0.00000  Uiso   1.00
C1614  C     0.95382   0.08671   0.29107   0.00000  Uiso   1.00
N116   N     0.00684   0.92206   0.82574   0.00000  Uiso   1.00
C1615  C     0.16573   0.14720   0.64536   0.00000  Uiso   1.00
C1616  C     0.17839   0.15817   0.62132   0.00000  Uiso   1.00
C1617  C     0.16218   0.13053   0.53743   0.00000  Uiso   1.00
C1618  C     0.16739   0.14673   0.51012   0.00000  Uiso   1.00
C1619  C     0.16884   0.14039   0.47541   0.00000  Uiso   1.00
C1620  C     0.17248   0.15617   0.44979   0.00000  Uiso   1.00
C1621  C     0.17452   0.17844   0.45855   0.00000  Uiso   1.00
C1622  C     0.17286   0.18479   0.49310   0.00000  Uiso   1.00
C1623  C     0.16921   0.16911   0.51840   0.00000  Uiso   1.00
N117   N     0.17884   0.19435   0.43234   0.00000  Uiso   1.00
C1624  C     0.18301   0.21469   0.43988   0.00000  Uiso   1.00
C1625  C     0.18821   0.23081   0.41345   0.00000  Uiso   1.00
C1626  C     0.19922   0.24967   0.42333   0.00000  Uiso   1.00
C1627  C     0.20724   0.26389   0.39841   0.00000  Uiso   1.00
C1628  C     0.20400   0.25969   0.36325   0.00000  Uiso   1.00
C1629  C     0.19194   0.24122   0.35367   0.00000  Uiso   1.00
C1630  C     0.18423   0.22675   0.37859   0.00000  Uiso   1.00
C1631  C     0.63450   0.64228   0.18979   0.00000  Uiso   1.00
C1632  C     0.64900   0.65453   0.17050   0.00000  Uiso   1.00
C1633  C     0.63651   0.63770   0.08032   0.00000  Uiso   1.00
C1634  C     0.65101   0.65089   0.05790   0.00000  Uiso   1.00
C1635  C     0.65705   0.64263   0.02553   0.00000  Uiso   1.00
C1636  C     0.66971   0.65506   0.00333   0.00000  Uiso   1.00
C1637  C     0.67657   0.67607   0.01290   0.00000  Uiso   1.00
C1638  C     0.67066   0.68450   0.04517   0.00000  Uiso   1.00
C1639  C     0.65797   0.67204   0.06733   0.00000  Uiso   1.00
N118   N     0.68901   0.68863   0.98906   0.00000  Uiso   1.00
C1640  C     0.69623   0.70821   0.99555   0.00000  Uiso   1.00
C1641  C     0.70864   0.72058   0.97000   0.00000  Uiso   1.00
C1642  C     0.71695   0.74113   0.97902   0.00000  Uiso   1.00
C1643  C     0.72887   0.75322   0.95530   0.00000  Uiso   1.00
C1644  C     0.73269   0.74497   0.92206   0.00000  Uiso   1.00
C1645  C     0.72413   0.72441   0.91303   0.00000  Uiso   1.00
C1646  C     0.71222   0.71230   0.93679   0.00000  Uiso   1.00
C1647  C     0.25357   0.53054   0.93127   0.00000  Uiso   1.00
C1648  C     0.20359   0.48350   0.92904   0.00000  Uiso   1.00
C1649  C     0.23408   0.42998   0.92679   0.00000  Uiso   1.00
C1650  C     0.22308   0.41725   0.89986   0.00000  Uiso   1.00
C1651  C     0.23002   0.39608   0.89216   0.00000  Uiso   1.00
C1652  C     0.24696   0.38674   0.91035   0.00000  Uiso   1.00
C1653  C     0.25653   0.39834   0.93720   0.00000  Uiso   1.00
C1654  C     0.25022   0.41970   0.94537   0.00000  Uiso   1.00
N119   N     0.25573   0.36602   0.90045   0.00000  Uiso   1.00
C1655  C     0.24765   0.35397   0.87635   0.00000  Uiso   1.00
C1656  C     0.25766   0.33345   0.86566   0.00000  Uiso   1.00
C1657  C     0.27825   0.32810   0.87587   0.00000  Uiso   1.00
C1658  C     0.28726   0.30815   0.86565   0.00000  Uiso   1.00
C1659  C     0.27577   0.29329   0.84523   0.00000  Uiso   1.00
C1660  C     0.25524   0.29906   0.83488   0.00000  Uiso   1.00
C1661  C     0.24631   0.31902   0.84483   0.00000  Uiso   1.00
N120   N     0.21596   0.27162   0.33753   0.00000  Uiso   1.00
C1662  C     0.89268   0.38830   0.11825   0.00000  Uiso   1.00
C1663  C     0.90655   0.40127   0.13767   0.00000  Uiso   1.00
C1664  C     0.89470   0.38373   0.22776   0.00000  Uiso   1.00
C1665  C     0.90924   0.39681   0.25038   0.00000  Uiso   1.00
C1666  C     0.90342   0.40105   0.28468   0.00000  Uiso   1.00
C1667  C     0.91667   0.41281   0.30677   0.00000  Uiso   1.00
C1668  C     0.93619   0.42058   0.29529   0.00000  Uiso   1.00
C1669  C     0.94235   0.41634   0.26117   0.00000  Uiso   1.00
C1670  C     0.92899   0.40452   0.23902   0.00000  Uiso   1.00
N121   N     0.94911   0.43286   0.31883   0.00000  Uiso   1.00
C1671  C     0.96747   0.44114   0.31152   0.00000  Uiso   1.00
C1672  C     0.97938   0.45390   0.33734   0.00000  Uiso   1.00
C1673  C     0.99840   0.46410   0.32817   0.00000  Uiso   1.00
C1674  C     0.00920   0.47738   0.35193   0.00000  Uiso   1.00
C1675  C     0.00114   0.48066   0.38528   0.00000  Uiso   1.00
C1676  C     0.98233   0.46991   0.39447   0.00000  Uiso   1.00
C1677  C     0.97154   0.45674   0.37078   0.00000  Uiso   1.00
C1678  C     0.35914   0.89490   0.58779   0.00000  Uiso   1.00
C1679  C     0.37138   0.90635   0.61187   0.00000  Uiso   1.00
C1680  C     0.36176   0.87415   0.69178   0.00000  Uiso   1.00
C1681  C     0.37649   0.88440   0.71627   0.00000  Uiso   1.00
C1682  C     0.36874   0.89619   0.74454   0.00000  Uiso   1.00
C1683  C     0.38214   0.91017   0.76292   0.00000  Uiso   1.00
C1684  C     0.40330   0.91232   0.75328   0.00000  Uiso   1.00
C1685  C     0.41132   0.89934   0.72639   0.00000  Uiso   1.00
C1686  C     0.39798   0.88543   0.70806   0.00000  Uiso   1.00
N122   N     0.41486   0.93085   0.76573   0.00000  Uiso   1.00
C1687  C     0.43419   0.93481   0.75688   0.00000  Uiso   1.00
C1688  C     0.44389   0.95600   0.76488   0.00000  Uiso   1.00
C1689  C     0.43121   0.97398   0.77399   0.00000  Uiso   1.00
C1690  C     0.44010   0.99480   0.77781   0.00000  Uiso   1.00
C1691  C     0.46176   0.99795   0.77248   0.00000  Uiso   1.00
C1692  C     0.47445   0.97986   0.76358   0.00000  Uiso   1.00
C1693  C     0.46549   0.95901   0.75931   0.00000  Uiso   1.00
C1694  C     0.47119   0.01966   0.77928   0.00000  Uiso   1.00
C1695  C     0.45882   0.03883   0.77782   0.00000  Uiso   1.00
C1696  C     0.46670   0.05880   0.79017   0.00000  Uiso   1.00
C1697  C     0.48711   0.05982   0.80390   0.00000  Uiso   1.00
C1698  C     0.49975   0.04083   0.80379   0.00000  Uiso   1.00
C1699  C     0.49192   0.02096   0.79139   0.00000  Uiso   1.00
C1700  C     0.27978   0.50076   0.93057   0.00000  Uiso   1.00
C1701  C     0.22997   0.45384   0.93016   0.00000  Uiso   1.00
C1702  C     0.18049   0.48910   0.92635   0.00000  Uiso   1.00
C1703  C     0.16585   0.47243   0.91835   0.00000  Uiso   1.00
C1704  C     0.14430   0.47699   0.91558   0.00000  Uiso   1.00
C1705  C     0.13671   0.49848   0.92070   0.00000  Uiso   1.00
C1706  C     0.15107   0.51520   0.92876   0.00000  Uiso   1.00
C1707  C     0.17266   0.51054   0.93160   0.00000  Uiso   1.00
N123   N     0.11460   0.50359   0.91814   0.00000  Uiso   1.00
C1708  C     0.10047   0.48864   0.91180   0.00000  Uiso   1.00
C1709  C     0.07775   0.49349   0.90965   0.00000  Uiso   1.00
C1710  C     0.06972   0.51501   0.91174   0.00000  Uiso   1.00
C1711  C     0.04785   0.51867   0.91067   0.00000  Uiso   1.00
C1712  C     0.03382   0.50084   0.90772   0.00000  Uiso   1.00
C1713  C     0.04201   0.47941   0.90532   0.00000  Uiso   1.00
C1714  C     0.06377   0.47581   0.90613   0.00000  Uiso   1.00
N124   N     0.01127   0.49578   0.40905   0.00000  Uiso   1.00
C1715  C     0.86433   0.63940   0.61673   0.00000  Uiso   1.00
C1716  C     0.85046   0.65316   0.63475   0.00000  Uiso   1.00
C1717  C     0.86571   0.64333   0.72623   0.00000  Uiso   1.00
C1718  C     0.85087   0.65700   0.74722   0.00000  Uiso   1.00
C1719  C     0.84490   0.64964   0.78010   0.00000  Uiso   1.00
C1720  C     0.83143   0.66213   0.80080   0.00000  Uiso   1.00
C1721  C     0.82365   0.68236   0.78928   0.00000  Uiso   1.00
C1722  C     0.82955   0.69001   0.75650   0.00000  Uiso   1.00
C1723  C     0.84308   0.67743   0.73573   0.00000  Uiso   1.00
N125   N     0.80987   0.69458   0.81153   0.00000  Uiso   1.00
C1724  C     0.80201   0.71381   0.80448   0.00000  Uiso   1.00
C1725  C     0.78787   0.72505   0.82895   0.00000  Uiso   1.00
C1726  C     0.77953   0.74571   0.82062   0.00000  Uiso   1.00
C1727  C     0.76558   0.75635   0.84311   0.00000  Uiso   1.00
C1728  C     0.75979   0.74655   0.87453   0.00000  Uiso   1.00
C1729  C     0.76855   0.72597   0.88299   0.00000  Uiso   1.00
C1730  C     0.78238   0.71529   0.86042   0.00000  Uiso   1.00
C1731  C     0.33590   0.13601   0.07470   0.00000  Uiso   1.00
C1732  C     0.32264   0.15286   0.08647   0.00000  Uiso   1.00
C1733  C     0.33338   0.15218   0.18092   0.00000  Uiso   1.00
C1734  C     0.31701   0.16645   0.19652   0.00000  Uiso   1.00
C1735  C     0.30836   0.16008   0.22816   0.00000  Uiso   1.00
C1736  C     0.29302   0.17283   0.24405   0.00000  Uiso   1.00
C1737  C     0.28607   0.19226   0.22874   0.00000  Uiso   1.00
C1738  C     0.29458   0.19900   0.19707   0.00000  Uiso   1.00
C1739  C     0.30996   0.18603   0.18093   0.00000  Uiso   1.00
N126   N     0.27130   0.20522   0.24745   0.00000  Uiso   1.00
C1740  C     0.26336   0.22384   0.23766   0.00000  Uiso   1.00
C1741  C     0.24943   0.23556   0.26149   0.00000  Uiso   1.00
C1742  C     0.24150   0.25646   0.25349   0.00000  Uiso   1.00
C1743  C     0.22970   0.26813   0.27793   0.00000  Uiso   1.00
C1744  C     0.22592   0.25896   0.31058   0.00000  Uiso   1.00
C1745  C     0.23390   0.23799   0.31815   0.00000  Uiso   1.00
C1746  C     0.24541   0.22640   0.29386   0.00000  Uiso   1.00
C1747  C     0.76155   0.03967   0.42905   0.00000  Uiso   1.00
C1748  C     0.74166   0.02982   0.42902   0.00000  Uiso   1.00
C1749  C     0.79804   0.99144   0.42704   0.00000  Uiso   1.00
C1750  C     0.77705   0.93267   0.42185   0.00000  Uiso   1.00
C1751  C     0.79454   0.92163   0.40759   0.00000  Uiso   1.00
C1752  C     0.79421   0.89873   0.40264   0.00000  Uiso   1.00
C1753  C     0.77636   0.88640   0.41168   0.00000  Uiso   1.00
C1754  C     0.75915   0.89719   0.42676   0.00000  Uiso   1.00
C1755  C     0.75961   0.91991   0.43189   0.00000  Uiso   1.00
N127   N     0.77603   0.86303   0.40591   0.00000  Uiso   1.00
C1756  C     0.75876   0.85156   0.40757   0.00000  Uiso   1.00
C1757  C     0.75835   0.82753   0.40311   0.00000  Uiso   1.00
C1758  C     0.73879   0.81697   0.40125   0.00000  Uiso   1.00
C1759  C     0.73763   0.79403   0.39874   0.00000  Uiso   1.00
C1760  C     0.75608   0.78128   0.39822   0.00000  Uiso   1.00
C1761  C     0.77574   0.79193   0.40007   0.00000  Uiso   1.00
C1762  C     0.77688   0.81492   0.40242   0.00000  Uiso   1.00
N128   N     0.74519   0.75749   0.89770   0.00000  Uiso   1.00
C1763  C     0.15212   0.88920   0.02853   0.00000  Uiso   1.00
C1764  C     0.87708   0.62279   0.56404   0.00000  Uiso   1.00
C1765  C     0.88029   0.36970   0.24408   0.00000  Uiso   1.00
C1766  C     0.15251   0.14165   0.70339   0.00000  Uiso   1.00
C1767  C     0.79642   0.96848   0.42358   0.00000  Uiso   1.00
C1768  C     0.79091   0.53890   0.07132   0.00000  Uiso   1.00
C1769  C     0.75836   0.50784   0.06844   0.00000  Uiso   1.00
C1770  C     0.71612   0.52184   0.07004   0.00000  Uiso   1.00
C1771  C     0.73240   0.53714   0.06968   0.00000  Uiso   1.00
C1772  C     0.12100   0.37352   0.36431   0.00000  Uiso   1.00
C1773  C     0.12031   0.37196   0.32771   0.00000  Uiso   1.00
C1774  C     0.65233   0.12382   0.40135   0.00000  Uiso   1.00
C1775  C     0.65225   0.13014   0.36628   0.00000  Uiso   1.00
C1776  C     0.74057   0.00646   0.43056   0.00000  Uiso   1.00
H967   H     0.11697   0.90869   0.16466   0.00000  Uiso   1.00
H968   H     0.16291   0.93977   0.03601   0.00000  Uiso   1.00
H969   H     0.14615   0.97721   0.02632   0.00000  Uiso   1.00
H970   H     0.08325   0.94780   0.03935   0.00000  Uiso   1.00
H971   H     0.09993   0.91048   0.04904   0.00000  Uiso   1.00
H972   H     0.08059   0.00854   0.01525   0.00000  Uiso   1.00
H973   H     0.04520   0.99171   0.00511   0.00000  Uiso   1.00
H974   H     0.02381   0.96859   0.96353   0.00000  Uiso   1.00
H975   H     0.08180   0.93558   0.92886   0.00000  Uiso   1.00
H976   H     0.10313   0.95889   0.96981   0.00000  Uiso   1.00
H977   H     0.00856   0.95119   0.93577   0.00000  Uiso   1.00
H978   H     0.98857   0.93755   0.88372   0.00000  Uiso   1.00
H979   H     0.04708   0.90967   0.84147   0.00000  Uiso   1.00
H980   H     0.06717   0.92361   0.89339   0.00000  Uiso   1.00
H981   H     0.58111   0.41053   0.68808   0.00000  Uiso   1.00
H982   H     0.61941   0.41040   0.52162   0.00000  Uiso   1.00
H983   H     0.59659   0.43479   0.48454   0.00000  Uiso   1.00
H984   H     0.54460   0.42812   0.55865   0.00000  Uiso   1.00
H985   H     0.56746   0.40344   0.59585   0.00000  Uiso   1.00
H986   H     0.52938   0.44584   0.52801   0.00000  Uiso   1.00
H987   H     0.49688   0.46491   0.51199   0.00000  Uiso   1.00
H988   H     0.47543   0.48819   0.47063   0.00000  Uiso   1.00
H989   H     0.52958   0.49092   0.39995   0.00000  Uiso   1.00
H990   H     0.55099   0.46804   0.44146   0.00000  Uiso   1.00
H991   H     0.70438   0.96383   0.42976   0.00000  Uiso   1.00
H992   H     0.82708   0.97991   0.37949   0.00000  Uiso   1.00
H993   H     0.85668   0.00514   0.36010   0.00000  Uiso   1.00
H994   H     0.84445   0.04869   0.44817   0.00000  Uiso   1.00
H995   H     0.81418   0.02449   0.46631   0.00000  Uiso   1.00
H996   H     0.86238   0.03598   0.33706   0.00000  Uiso   1.00
H997   H     0.88868   0.07899   0.39639   0.00000  Uiso   1.00
H998   H     0.92057   0.10151   0.37913   0.00000  Uiso   1.00
H999   H     0.91626   0.07490   0.27409   0.00000  Uiso   1.00
H1000  H     0.88444   0.05241   0.29143   0.00000  Uiso   1.00
H1001  H     0.94783   0.11073   0.37092   0.00000  Uiso   1.00
H1002  H     0.98729   0.10489   0.37130   0.00000  Uiso   1.00
H1003  H     0.98375   0.07718   0.26721   0.00000  Uiso   1.00
H1004  H     0.94438   0.08307   0.26674   0.00000  Uiso   1.00
H1005  H     0.18971   0.17162   0.63018   0.00000  Uiso   1.00
H1006  H     0.16705   0.12231   0.46798   0.00000  Uiso   1.00
H1007  H     0.17379   0.15089   0.42170   0.00000  Uiso   1.00
H1008  H     0.17451   0.20289   0.50050   0.00000  Uiso   1.00
H1009  H     0.16769   0.17470   0.54631   0.00000  Uiso   1.00
H1010  H     0.18266   0.22038   0.46785   0.00000  Uiso   1.00
H1011  H     0.20166   0.25345   0.45180   0.00000  Uiso   1.00
H1012  H     0.21654   0.27912   0.40647   0.00000  Uiso   1.00
H1013  H     0.18839   0.23798   0.32535   0.00000  Uiso   1.00
H1014  H     0.17471   0.21167   0.37053   0.00000  Uiso   1.00
H1015  H     0.66066   0.66590   0.18406   0.00000  Uiso   1.00
H1016  H     0.65162   0.62556   0.01704   0.00000  Uiso   1.00
H1017  H     0.67450   0.64806   0.97723   0.00000  Uiso   1.00
H1018  H     0.67620   0.70157   0.05343   0.00000  Uiso   1.00
H1019  H     0.65329   0.67926   0.09333   0.00000  Uiso   1.00
H1020  H     0.69301   0.71624   0.02156   0.00000  Uiso   1.00
H1021  H     0.71403   0.74813   0.00584   0.00000  Uiso   1.00
H1022  H     0.73560   0.76996   0.96285   0.00000  Uiso   1.00
H1023  H     0.72685   0.71743   0.88614   0.00000  Uiso   1.00
H1024  H     0.70538   0.69562   0.92918   0.00000  Uiso   1.00
H1025  H     0.20909   0.42479   0.88567   0.00000  Uiso   1.00
H1026  H     0.22195   0.38619   0.87097   0.00000  Uiso   1.00
H1027  H     0.26971   0.39034   0.95279   0.00000  Uiso   1.00
H1028  H     0.25832   0.42881   0.96738   0.00000  Uiso   1.00
H1029  H     0.23245   0.35934   0.86309   0.00000  Uiso   1.00
H1030  H     0.28765   0.34005   0.89254   0.00000  Uiso   1.00
H1031  H     0.30403   0.30385   0.87388   0.00000  Uiso   1.00
H1032  H     0.24567   0.28732   0.81811   0.00000  Uiso   1.00
H1033  H     0.22973   0.32354   0.83593   0.00000  Uiso   1.00
H1034  H     0.91751   0.41344   0.12424   0.00000  Uiso   1.00
H1035  H     0.88764   0.39485   0.29491   0.00000  Uiso   1.00
H1036  H     0.91159   0.41614   0.33444   0.00000  Uiso   1.00
H1037  H     0.95825   0.42250   0.25138   0.00000  Uiso   1.00
H1038  H     0.93434   0.40120   0.21148   0.00000  Uiso   1.00
H1039  H     0.97458   0.43858   0.28486   0.00000  Uiso   1.00
H1040  H     0.00519   0.46164   0.30127   0.00000  Uiso   1.00
H1041  H     0.02466   0.48563   0.34427   0.00000  Uiso   1.00
H1042  H     0.97567   0.47187   0.42156   0.00000  Uiso   1.00
H1043  H     0.95625   0.44822   0.37861   0.00000  Uiso   1.00
H1044  H     0.38056   0.92163   0.60367   0.00000  Uiso   1.00
H1045  H     0.35152   0.89437   0.75253   0.00000  Uiso   1.00
H1046  H     0.37584   0.91987   0.78586   0.00000  Uiso   1.00
H1047  H     0.42879   0.90019   0.71955   0.00000  Uiso   1.00
H1048  H     0.40454   0.87484   0.68630   0.00000  Uiso   1.00
H1049  H     0.44373   0.92170   0.74275   0.00000  Uiso   1.00
H1050  H     0.41357   0.97157   0.77829   0.00000  Uiso   1.00
H1051  H     0.42975   0.00940   0.78531   0.00000  Uiso   1.00
H1052  H     0.49215   0.98215   0.75981   0.00000  Uiso   1.00
H1053  H     0.47576   0.94446   0.75130   0.00000  Uiso   1.00
H1054  H     0.44224   0.03814   0.76650   0.00000  Uiso   1.00
H1055  H     0.45652   0.07428   0.78908   0.00000  Uiso   1.00
H1056  H     0.51661   0.04161   0.81394   0.00000  Uiso   1.00
H1057  H     0.50243   0.00571   0.79110   0.00000  Uiso   1.00
H1058  H     0.17149   0.45481   0.91399   0.00000  Uiso   1.00
H1059  H     0.13274   0.46321   0.90912   0.00000  Uiso   1.00
H1060  H     0.14524   0.53276   0.93307   0.00000  Uiso   1.00
H1061  H     0.18425   0.52425   0.93828   0.00000  Uiso   1.00
H1062  H     0.10545   0.47079   0.90760   0.00000  Uiso   1.00
H1063  H     0.08096   0.52958   0.91431   0.00000  Uiso   1.00
H1064  H     0.04140   0.53618   0.91220   0.00000  Uiso   1.00
H1065  H     0.03088   0.46475   0.90268   0.00000  Uiso   1.00
H1066  H     0.07011   0.45829   0.90389   0.00000  Uiso   1.00
H1067  H     0.83842   0.66352   0.62013   0.00000  Uiso   1.00
H1068  H     0.85107   0.63323   0.79026   0.00000  Uiso   1.00
H1069  H     0.82669   0.65583   0.82735   0.00000  Uiso   1.00
H1070  H     0.82334   0.70649   0.74671   0.00000  Uiso   1.00
H1071  H     0.84788   0.68373   0.70921   0.00000  Uiso   1.00
H1072  H     0.80602   0.72223   0.77907   0.00000  Uiso   1.00
H1073  H     0.78408   0.75402   0.79536   0.00000  Uiso   1.00
H1074  H     0.75879   0.77314   0.83603   0.00000  Uiso   1.00
H1075  H     0.76441   0.71777   0.90852   0.00000  Uiso   1.00
H1076  H     0.78920   0.69855   0.86775   0.00000  Uiso   1.00
H1077  H     0.31249   0.16245   0.06744   0.00000  Uiso   1.00
H1078  H     0.31391   0.14426   0.24115   0.00000  Uiso   1.00
H1079  H     0.28605   0.16741   0.26975   0.00000  Uiso   1.00
H1080  H     0.28897   0.21497   0.18460   0.00000  Uiso   1.00
H1081  H     0.31680   0.19134   0.15508   0.00000  Uiso   1.00
H1082  H     0.26728   0.23070   0.21109   0.00000  Uiso   1.00
H1083  H     0.24464   0.26398   0.22709   0.00000  Uiso   1.00
H1084  H     0.22314   0.28511   0.27136   0.00000  Uiso   1.00
H1085  H     0.23094   0.23032   0.34450   0.00000  Uiso   1.00
H1086  H     0.25168   0.20926   0.30019   0.00000  Uiso   1.00
H1087  H     0.76300   0.05839   0.42852   0.00000  Uiso   1.00
H1088  H     0.80922   0.93131   0.39990   0.00000  Uiso   1.00
H1089  H     0.80853   0.89003   0.39119   0.00000  Uiso   1.00
H1090  H     0.74465   0.88738   0.43492   0.00000  Uiso   1.00
H1091  H     0.74541   0.92812   0.44455   0.00000  Uiso   1.00
H1092  H     0.74306   0.86012   0.41268   0.00000  Uiso   1.00
H1093  H     0.72363   0.82708   0.40178   0.00000  Uiso   1.00
H1094  H     0.72161   0.78556   0.39710   0.00000  Uiso   1.00
H1095  H     0.79091   0.78184   0.39966   0.00000  Uiso   1.00
H1096  H     0.79290   0.82342   0.40378   0.00000  Uiso   1.00
H1097  H     0.15221   0.89462   0.00043   0.00000  Uiso   1.00
H1098  H     0.87588   0.62154   0.53482   0.00000  Uiso   1.00
H1099  H     0.88005   0.36848   0.27337   0.00000  Uiso   1.00
H1100  H     0.15293   0.14633   0.73181   0.00000  Uiso   1.00
H1101  H     0.81119   0.95816   0.41904   0.00000  Uiso   1.00
H1102  H     0.80374   0.55203   0.07287   0.00000  Uiso   1.00
H1103  H     0.69902   0.52765   0.07085   0.00000  Uiso   1.00
H1104  H     0.72867   0.55552   0.07016   0.00000  Uiso   1.00
loop_
_geom_bond_atom_site_label_1
_geom_bond_atom_site_label_2
_geom_bond_distance
_geom_bond_site_symmetry_2
_ccdc_geom_bond_type
C1     C2      1.402   .     S
C1     C887    1.410   .     D
C1     C1680   1.408   .     S
C2     H1      1.140   .     S
C2     C1679   1.389   .     D
C3     C1678   1.410   .     D
C3     C4      1.471   .     S
C3     C209    1.398   .     S
C4     C9      1.399   .     D
C4     C5      1.400   .     S
C5     H2      1.140   .     S
C5     C6      1.398   .     D
C6     C7      1.398   .     S
C6     H3      1.140   .     S
C7     N1      1.433   .     S
C7     C8      1.404   .     D
C8     H4      1.140   .     S
C8     C9      1.395   .     S
C9     H5      1.140   .     S
N1     C10     1.303   .     D
C10    C11     1.472   .     S
C10    H6      1.140   1_565 S
C11    C12     1.396   .     D
C11    C16     1.402   .     S
C12    C13     1.397   .     S
C12    H7      1.140   .     S
C13    H8      1.140   .     S
C13    C14     1.406   .     D
C14    C17     1.482   .     S
C14    C15     1.403   .     S
C15    H9      1.140   .     S
C15    C16     1.396   .     D
C16    H10     1.140   .     S
C17    C18     1.401   .     D
C17    C22     1.405   .     S
C18    H11     1.140   .     S
C18    C19     1.394   .     S
C19    H12     1.140   .     S
C19    C20     1.404   .     D
C20    N4      1.443   .     S
C20    C21     1.402   .     S
C21    H13     1.140   .     S
C21    C22     1.398   .     D
C22    H14     1.140   .     S
C23    C1664   1.419   .     S
C23    C24     1.399   .     S
C23    C1329   1.422   .     D
C24    C1663   1.392   .     D
C24    H15     1.140   .     S
C25    C26     1.495   .     S
C25    C432    1.400   .     D
C25    C1662   1.417   .     S
C26    C31     1.405   .     S
C26    C27     1.406   .     D
C27    C28     1.397   .     S
C27    H16     1.140   .     S
C28    C29     1.397   .     D
C28    H17     1.140   1_554 S
C29    C30     1.405   .     S
C29    N2      1.435   1_554 S
C30    C31     1.401   .     D
C30    H18     1.140   .     S
C31    H19     1.140   .     S
N2     C29     1.435   1_556 S
N2     C32     1.298   1_556 D
C32    H20     1.140   .     S
C32    N2      1.298   1_554 D
C32    C33     1.471   1_554 S
C33    C34     1.398   .     S
C33    C38     1.401   .     D
C33    C32     1.471   1_556 S
C34    C35     1.400   1_655 D
C34    H21     1.140   1_656 S
C35    H22     1.140   .     S
C35    C34     1.400   1_455 D
C35    C36     1.407   1_455 S
C36    C37     1.406   .     D
C36    C35     1.407   1_655 S
C36    N28     1.453   1_655 S
C37    C38     1.398   .     S
C37    H23     1.140   .     S
C38    H24     1.140   .     S
C39    H25     1.140   .     S
C39    C40     1.402   .     S
C39    C415    1.385   .     D
C40    C222    1.411   1_565 S
C40    C417    1.421   1_565 D
C41    C213    1.404   .     D
C41    C416    1.424   .     S
C41    C196    1.505   .     S
C42    C47     1.406   .     S
C42    C43     1.404   1_545 D
C42    C195    1.406   1_545 S
C43    H26     1.140   .     S
C43    C42     1.404   1_565 D
C43    C44     1.399   1_565 S
C44    C45     1.405   .     D
C44    H27     1.140   .     S
C44    C43     1.399   1_545 S
C45    N3      1.427   .     S
C45    C46     1.393   .     S
C46    H28     1.140   .     S
C46    C47     1.391   .     D
C47    H29     1.140   .     S
N3     C48     1.295   .     D
C48    H30     1.140   .     S
C48    C49     1.462   .     S
C49    C54     1.397   .     S
C49    C50     1.398   .     D
C50    H31     1.140   .     S
C50    C51     1.392   .     S
C51    C52     1.403   .     D
C51    H32     1.140   .     S
C52    C55     1.481   .     S
C52    C53     1.407   .     S
C53    C54     1.397   .     D
C53    H33     1.140   .     S
C54    H34     1.140   .     S
C55    C60     1.401   .     S
C55    C56     1.405   .     D
C56    C57     1.394   .     S
C56    H35     1.140   .     S
C57    C58     1.405   .     D
C57    H36     1.140   .     S
C58    N100    1.373   .     S
C58    C59     1.407   .     S
C59    C60     1.392   .     D
C59    H37     1.140   .     S
C60    H38     1.140   .     S
N4     C1390   1.373   .     S
N4     C365    1.441   .     S
C61    C1733   1.415   .     S
C61    C62     1.400   .     S
C61    C1331   1.416   .     D
C62    H39     1.140   .     S
C62    C1732   1.393   .     D
C63    C64     1.483   .     S
C63    C1541   1.400   .     D
C63    C1731   1.490   .     S
C64    C69     1.400   .     S
C64    C65     1.405   1_554 D
C65    H40     1.140   .     S
C65    C66     1.400   .     S
C65    C64     1.405   1_556 D
C66    H41     1.140   .     S
C66    C67     1.400   .     D
C67    C68     1.400   .     S
C67    N5      1.429   .     S
C68    C69     1.387   1_556 D
C68    H42     1.140   1_556 S
C69    H43     1.140   .     S
C69    C68     1.387   1_554 D
N5     C70     1.296   .     D
C70    C71     1.456   .     S
C70    H44     1.140   .     S
C71    C72     1.394   .     D
C71    C76     1.399   .     S
C72    H45     1.140   .     S
C72    C73     1.393   .     S
C73    H46     1.140   .     S
C73    C74     1.404   .     D
C74    C75     1.407   .     S
C74    N8      1.448   .     S
C75    H47     1.140   .     S
C75    C76     1.395   .     D
C76    H48     1.140   .     S
C77    C1717   1.417   .     S
C77    C78     1.399   .     D
C77    C885    1.420   .     S
C78    C1716   1.391   .     S
C78    H49     1.140   .     S
C79    C1764   1.400   .     D
C79    C80     1.498   .     S
C79    C1715   1.419   .     S
C80    C85     1.406   .     S
C80    C81     1.407   .     D
C81    C82     1.399   .     S
C81    H50     1.140   .     S
C82    C83     1.397   .     D
C82    H51     1.140   .     S
C83    C84     1.405   .     S
C83    N6      1.435   .     S
C84    H52     1.140   .     S
C84    C85     1.400   .     D
C85    H53     1.140   .     S
N6     C86     1.298   .     D
C86    C87     1.472   .     S
C86    H54     1.140   .     S
C87    C88     1.398   .     D
C87    C92     1.403   .     S
C88    C89     1.399   .     S
C88    H55     1.140   .     S
C89    C90     1.406   .     D
C89    H56     1.140   .     S
C90    C91     1.405   .     S
C90    N16     1.449   .     S
C91    C92     1.401   .     D
C91    H57     1.140   .     S
C92    H58     1.140   .     S
C93    C369    1.410   .     S
C93    C1327   1.401   .     S
C93    C1325   1.411   .     D
C94    C148    1.507   .     S
C94    C368    1.424   .     D
C94    C1102   1.403   .     S
C95    C100    1.399   .     D
C95    C147    1.477   .     S
C95    C96     1.475   .     S
C96    H59     1.140   .     S
C96    C97     1.390   .     D
C97    C98     1.405   .     S
C97    H60     1.140   .     S
C98    N7      1.427   .     S
C98    C99     1.397   .     D
C99    H61     1.140   .     S
C99    C100    1.393   .     S
C100   H62     1.140   .     S
N7     C101    1.293   .     D
C101   C102    1.458   .     S
C101   H63     1.140   .     S
C102   C103    1.402   .     D
C102   C107    1.392   .     S
C103   H64     1.140   .     S
C103   C104    1.396   .     S
C104   H65     1.140   .     S
C104   C105    1.404   .     D
C105   C106    1.406   .     S
C105   N120    1.447   .     S
C106   C107    1.392   .     D
C106   H66     1.140   .     S
C107   H67     1.140   .     S
N8     C1659   1.447   .     S
N8     C190    1.444   .     S
C108   C109    1.400   .     S
C108   C662    1.419   .     D
C108   C1579   1.417   .     S
C109   H68     1.140   .     S
C109   C1578   1.392   .     D
C110   C1577   1.419   .     D
C110   C111    1.500   .     S
C110   C211    1.400   .     S
C111   C116    1.407   .     S
C111   C112    1.406   .     D
C112   H69     1.140   .     S
C112   C113    1.397   .     S
C113   C114    1.397   .     D
C113   H70     1.140   .     S
C114   N9      1.436   .     S
C114   C115    1.405   .     S
C115   H71     1.140   .     S
C115   C116    1.404   .     D
C116   H72     1.140   .     S
N9     C117    1.299   .     D
C117   H73     1.140   .     S
C117   C118    1.475   .     S
C118   C119    1.401   .     D
C118   C123    1.401   .     S
C119   C120    1.403   .     S
C119   H74     1.140   .     S
C120   H75     1.140   .     S
C120   C121    1.407   .     D
C121   N12     1.451   .     S
C121   C122    1.405   .     S
C122   C123    1.397   .     D
C122   H76     1.140   .     S
C123   H77     1.140   .     S
C124   C1557   1.410   .     D
C124   C125    1.400   .     S
C124   C1108   1.413   .     S
C125   H78     1.140   .     S
C125   C1556   1.389   .     D
C126   C434    1.393   .     S
C126   C127    1.471   .     S
C126   C1555   1.408   .     D
C127   C132    1.400   .     D
C127   C128    1.400   .     S
C128   H79     1.140   .     S
C128   C129    1.397   .     D
C129   C130    1.399   .     S
C129   H80     1.140   .     S
C130   N10     1.427   .     S
C130   C131    1.403   .     D
C131   C132    1.391   .     S
C131   H81     1.140   .     S
C132   H82     1.140   .     S
N10    C133    1.295   .     D
C133   C134    1.459   .     S
C133   H83     1.140   .     S
C134   C139    1.398   .     D
C134   C135    1.401   .     S
C135   H84     1.140   .     S
C135   C136    1.391   .     D
C136   C137    1.401   .     S
C136   H85     1.140   1_565 S
C137   C138    1.404   .     D
C137   C140    1.471   1_565 S
C138   H86     1.140   .     S
C138   C139    1.397   .     S
C139   H87     1.140   .     S
C140   C145    1.398   .     S
C140   C141    1.404   .     D
C140   C137    1.471   1_545 S
C141   C142    1.396   .     S
C141   H88     1.140   .     S
C142   H89     1.140   .     S
C142   C143    1.401   .     D
C143   C144    1.403   .     S
C143   N20     1.441   .     S
C144   C145    1.390   .     D
C144   H90     1.140   1_455 S
C145   H91     1.140   1_455 S
C146   C316    1.424   .     D
C146   C1325   1.424   .     S
C146   C1104   1.396   .     S
C147   C1102   1.396   .     D
C147   C315    1.410   .     S
C148   C149    1.407   .     D
C148   C153    1.407   .     S
C149   C150    1.398   .     S
C149   H92     1.140   .     S
C150   C151    1.404   .     D
C150   H93     1.140   .     S
C151   N11     1.439   .     S
C151   C152    1.398   .     S
C152   C153    1.402   .     D
C152   H94     1.140   .     S
C153   H95     1.140   .     S
N11    C154    1.298   .     D
C154   H96     1.140   .     S
C154   C155    1.472   .     S
C155   C160    1.398   .     S
C155   C156    1.404   .     D
C156   C157    1.404   .     S
C156   H97     1.140   .     S
C157   H98     1.140   .     S
C157   C158    1.405   .     D
C158   N108    1.445   .     S
C158   C159    1.403   .     S
C159   C160    1.397   .     D
C159   H99     1.140   .     S
C160   H100    1.140   .     S
N12    C1490   1.445   .     S
N12    C258    1.453   .     S
C161   C1106   1.422   .     S
C161   C162    1.400   .     D
C161   C1633   1.419   .     S
C162   H101    1.140   .     S
C162   C1632   1.391   .     S
C163   C1631   1.417   .     S
C163   C164    1.496   .     S
C163   C1543   1.400   .     D
C164   C169    1.407   .     D
C164   C165    1.405   .     S
C165   C166    1.396   .     D
C165   H102    1.140   .     S
C166   C167    1.397   .     S
C166   H103    1.140   .     S
C167   N13     1.435   .     S
C167   C168    1.406   .     D
C168   C169    1.403   .     S
C168   H104    1.140   .     S
C169   H105    1.140   .     S
N13    C170    1.298   .     D
C170   H106    1.140   .     S
C170   C171    1.474   .     S
C171   C176    1.402   .     D
C171   C172    1.398   .     S
C172   C173    1.401   .     D
C172   H107    1.140   .     S
C173   H108    1.140   .     S
C173   C174    1.406   .     S
C174   N16     1.451   .     S
C174   C175    1.406   .     D
C175   H109    1.140   .     S
C175   C176    1.399   .     S
C176   H110    1.140   .     S
C177   C178    1.400   .     S
C177   C1617   1.490   .     S
C177   C664    1.403   .     D
C178   H111    1.140   .     S
C178   C1616   1.393   .     D
C179   C1615   1.415   .     D
C179   C180    1.481   .     S
C179   C1766   1.403   .     S
C180   C181    1.400   .     D
C180   C185    1.406   .     S
C181   C182    1.387   .     S
C181   H112    1.140   .     S
C182   H113    1.140   .     S
C182   C183    1.392   .     D
C183   C184    1.404   .     S
C183   N14     1.422   .     S
C184   H114    1.140   .     S
C184   C185    1.401   .     D
C185   H115    1.140   .     S
N14    C186    1.294   .     D
C186   C187    1.464   .     S
C186   H116    1.140   .     S
C187   C188    1.399   .     D
C187   C192    1.398   .     S
C188   H117    1.140   .     S
C188   C189    1.401   .     S
C189   C190    1.405   .     D
C189   H118    1.140   .     S
C190   C191    1.401   .     S
C191   C192    1.384   .     D
C191   H119    1.140   .     S
C192   H120    1.140   .     S
C193   C194    1.395   .     S
C193   H121    1.140   .     S
C193   C261    1.385   .     D
C194   C263    1.424   .     S
C194   C222    1.420   .     D
C195   C213    1.403   .     S
C195   C42     1.406   1_565 S
C195   C262    1.421   1_565 D
C196   C201    1.405   .     S
C196   C197    1.409   .     D
C197   H122    1.140   .     S
C197   C198    1.403   .     S
C198   C199    1.401   .     D
C198   H123    1.140   .     S
C199   N15     1.436   .     S
C199   C200    1.401   .     S
C200   H124    1.140   .     S
C200   C201    1.393   .     D
C201   H125    1.140   .     S
N15    C202    1.299   .     D
C202   C203    1.469   .     S
C202   H126    1.140   .     S
C203   C208    1.402   .     S
C203   C204    1.397   .     D
C204   C205    1.397   .     S
C204   H127    1.140   .     S
C205   H128    1.140   .     S
C205   C206    1.402   .     D
C206   C207    1.406   .     S
C206   N128    1.446   .     S
C207   C208    1.400   .     D
C207   H129    1.140   .     S
C208   H130    1.140   .     S
N16    C1760   1.446   .     S
C209   C1395   1.400   .     D
C209   H131    1.140   .     S
C210   C1633   1.400   .     D
C210   C247    1.400   .     S
C210   H132    1.140   .     S
C211   H133    1.140   .     S
C211   C1495   1.400   .     D
C212   C348    1.393   .     S
C212   C1733   1.403   .     D
C212   H134    1.140   .     S
C213   H135    1.140   .     S
C214   H136    1.140   .     S
C214   C1035   1.396   .     S
C214   C982    1.403   .     D
C215   C1256   1.424   .     D
C215   C1203   1.411   .     S
C215   C437    1.424   .     S
C216   C1034   1.396   .     S
C216   H137    1.140   .     S
C216   C217    1.388   .     D
C217   C1203   1.401   .     S
C217   H138    1.140   .     S
C218   C219    1.425   .     D
C218   C552    1.419   .     S
C218   C1049   1.422   .     S
C219   C1133   1.422   .     S
C219   C743    1.420   .     S
C220   C221    1.415   .     D
C220   C621    1.403   .     S
C220   C1012   1.413   .     S
C221   C667    1.410   .     S
C221   C1171   1.416   .     S
C222   C40     1.411   1_545 S
C222   C444    1.430   1_545 S
H6     C10     1.140   1_545 S
H17    C28     1.140   1_556 S
H21    C34     1.140   1_454 S
H42    C68     1.140   1_554 S
H85    C136    1.140   1_545 S
H90    C144    1.140   1_655 S
H91    C145    1.140   1_655 S
C223   C224    1.402   .     S
C223   C665    1.410   .     D
C223   C1458   1.408   .     S
C224   H139    1.140   .     S
C224   C1457   1.389   .     D
C225   C1456   1.410   .     D
C225   C431    1.398   .     S
C225   C226    1.471   .     S
C226   C231    1.399   .     D
C226   C227    1.400   .     S
C227   H140    1.140   .     S
C227   C228    1.398   .     D
C228   C229    1.398   .     S
C228   H141    1.140   .     S
C229   C230    1.404   .     D
C229   N17     1.433   .     S
C230   H142    1.140   .     S
C230   C231    1.395   .     S
C231   H143    1.140   .     S
N17    C232    1.303   .     D
C232   C233    1.472   .     S
C232   H144    1.140   1_545 S
C233   C234    1.396   .     D
C233   C238    1.402   .     S
C234   C235    1.397   .     S
C234   H145    1.140   .     S
C235   H146    1.140   .     S
C235   C236    1.406   .     D
C236   C237    1.403   .     S
C236   C239    1.482   .     S
C237   H147    1.140   .     S
C237   C238    1.396   .     D
C238   H148    1.140   .     S
C239   C240    1.401   .     D
C239   C244    1.405   .     S
C240   H149    1.140   .     S
C240   C241    1.394   .     S
C241   C242    1.404   .     D
C241   H150    1.140   1_455 S
C242   N20     1.443   .     S
C242   C243    1.402   .     S
C243   H151    1.140   .     S
C243   C244    1.398   .     D
C244   H152    1.140   .     S
C245   C1442   1.419   .     D
C245   C1107   1.422   .     S
C245   C246    1.399   .     S
C246   C1441   1.392   .     D
C246   H153    1.140   .     S
C247   C248    1.495   .     S
C247   C1440   1.417   .     D
C248   C253    1.405   .     D
C248   C249    1.406   .     S
C249   H154    1.140   .     S
C249   C250    1.397   .     D
C250   C251    1.397   .     S
C250   H155    1.140   1_554 S
C251   C252    1.405   .     D
C251   N18     1.435   1_554 S
C252   H156    1.140   .     S
C252   C253    1.401   .     S
C253   H157    1.140   .     S
N18    C251    1.435   1_556 S
N18    C254    1.298   1_556 D
C254   H158    1.140   .     S
C254   N18     1.298   1_554 D
C254   C255    1.471   1_554 S
C255   C256    1.398   .     S
C255   C260    1.401   .     D
C255   C254    1.471   1_556 S
C256   C257    1.400   .     D
C256   H159    1.140   1_556 S
C257   H160    1.140   .     S
C257   C258    1.407   .     S
C258   C259    1.406   .     D
C259   C260    1.398   .     S
C259   H161    1.140   .     S
C260   H162    1.140   .     S
C261   C262    1.402   .     S
C261   H163    1.140   .     S
C262   C195    1.421   1_545 D
C262   C444    1.411   1_545 S
C263   C435    1.404   .     D
C263   C418    1.505   .     S
C264   C269    1.406   .     D
C264   C265    1.404   1_565 S
C264   C417    1.406   1_565 S
C265   H164    1.140   .     S
C265   C264    1.404   1_545 S
C265   C266    1.399   1_545 D
C266   C267    1.405   .     S
C266   H165    1.140   .     S
C266   C265    1.399   1_565 D
C267   N19     1.427   .     S
C267   C268    1.393   .     D
C268   C269    1.391   .     S
C268   H166    1.140   .     S
C269   H167    1.140   .     S
N19    C270    1.295   .     D
C270   C271    1.462   .     S
C270   H168    1.140   .     S
C271   C276    1.397   .     D
C271   C272    1.398   .     S
C272   H169    1.140   .     S
C272   C273    1.392   .     D
C273   C274    1.403   .     S
C273   H170    1.140   .     S
C274   C275    1.407   .     D
C274   C277    1.481   .     S
C275   C276    1.397   .     S
C275   H171    1.140   .     S
C276   H172    1.140   .     S
C277   C282    1.401   .     D
C277   C278    1.405   .     S
C278   C279    1.394   .     D
C278   H173    1.140   .     S
C279   C280    1.405   .     S
C279   H174    1.140   .     S
C280   C281    1.407   .     D
C280   N116    1.373   1_655 S
C281   C282    1.392   .     S
C281   H175    1.140   .     S
C282   H176    1.140   .     S
N20    C1612   1.373   1_455 S
C283   C1511   1.415   .     S
C283   C1109   1.416   .     D
C283   C284    1.400   .     S
C284   H177    1.140   .     S
C284   C1510   1.393   .     D
C285   C286    1.483   .     S
C285   C1763   1.400   .     D
C285   C1509   1.490   .     S
C286   C291    1.400   .     S
C286   C287    1.405   1_554 D
C287   H178    1.140   .     S
C287   C288    1.400   .     S
C287   C286    1.405   1_556 D
C288   H179    1.140   .     S
C288   C289    1.400   .     D
C289   C290    1.400   .     S
C289   N21     1.429   .     S
C290   C291    1.387   1_556 D
C290   H180    1.140   1_556 S
C291   H181    1.140   .     S
C291   C290    1.387   1_554 D
N21    C292    1.296   .     D
C292   C293    1.456   .     S
C292   H182    1.140   .     S
C293   C294    1.394   .     D
C293   C298    1.399   .     S
C294   H183    1.140   .     S
C294   C295    1.393   .     S
C295   H184    1.140   .     S
C295   C296    1.404   .     D
C296   C297    1.407   .     S
C296   N24     1.448   .     S
C297   H185    1.140   .     S
C297   C298    1.395   .     D
C298   H186    1.140   .     S
C299   C1495   1.417   .     S
C299   C663    1.420   .     D
C299   C300    1.399   .     S
C300   C1494   1.391   .     D
C300   H187    1.140   .     S
C301   C1542   1.400   .     S
C301   C302    1.498   .     S
C301   C1493   1.419   .     D
C302   C307    1.406   .     D
C302   C303    1.407   .     S
C303   H188    1.140   .     S
C303   C304    1.399   .     D
C304   C305    1.397   .     S
C304   H189    1.140   .     S
C305   C306    1.405   .     D
C305   N22     1.435   .     S
C306   C307    1.400   .     S
C306   H190    1.140   .     S
C307   H191    1.140   .     S
N22    C308    1.298   .     D
C308   C309    1.472   .     S
C308   H192    1.140   .     S
C309   C310    1.398   .     D
C309   C314    1.403   .     S
C310   C311    1.399   .     S
C310   H193    1.140   .     S
C311   C312    1.406   .     D
C311   H194    1.140   .     S
C312   C313    1.405   .     S
C312   N32     1.449   .     S
C313   C314    1.401   .     D
C313   H195    1.140   .     S
C314   H196    1.140   .     S
C315   C1103   1.411   .     D
C315   C1105   1.401   .     S
C316   C370    1.507   .     S
C316   C1324   1.403   .     S
C317   C322    1.399   .     S
C317   C369    1.477   .     S
C317   C318    1.475   .     D
C318   H197    1.140   .     S
C318   C319    1.390   .     S
C319   C320    1.405   .     D
C319   H198    1.140   .     S
C320   N23     1.427   .     S
C320   C321    1.397   .     S
C321   H199    1.140   .     S
C321   C322    1.393   .     D
C322   H200    1.140   .     S
N23    C323    1.293   .     D
C323   C324    1.458   .     S
C323   H201    1.140   .     S
C324   C325    1.402   .     S
C324   C329    1.392   .     D
C325   C326    1.396   .     D
C325   H202    1.140   .     S
C326   H203    1.140   .     S
C326   C327    1.404   .     S
C327   C328    1.406   .     D
C327   N104    1.447   .     S
C328   C329    1.392   .     S
C328   H204    1.140   .     S
C329   H205    1.140   .     S
N24    C1437   1.447   .     S
N24    C412    1.444   .     S
C330   C331    1.400   .     S
C330   C884    1.419   .     S
C330   C1357   1.417   .     D
C331   H206    1.140   .     S
C331   C1356   1.392   .     D
C332   C1355   1.419   .     D
C332   C433    1.400   .     S
C332   C333    1.500   .     S
C333   C338    1.407   .     D
C333   C334    1.406   .     S
C334   C335    1.397   .     D
C334   H207    1.140   .     S
C335   C336    1.397   .     S
C335   H208    1.140   .     S
C336   N25     1.436   .     S
C336   C337    1.405   .     D
C337   H209    1.140   .     S
C337   C338    1.404   .     S
C338   H210    1.140   .     S
N25    C339    1.299   .     D
C339   H211    1.140   .     S
C339   C340    1.475   .     S
C340   C341    1.401   .     D
C340   C345    1.401   .     S
C341   C342    1.403   1_655 S
C341   H212    1.140   1_655 S
C342   H213    1.140   .     S
C342   C343    1.407   .     D
C342   C341    1.403   1_455 S
C343   N28     1.451   .     S
C343   C344    1.405   1_455 S
C344   C345    1.397   .     D
C344   H214    1.140   .     S
C344   C343    1.405   1_655 S
C345   H215    1.140   .     S
C346   C1335   1.410   .     D
C346   C1330   1.413   .     S
C346   C347    1.400   .     S
C347   H216    1.140   .     S
C347   C1334   1.389   .     D
C348   C349    1.471   .     S
C348   C1333   1.408   .     D
C349   C354    1.400   .     D
C349   C350    1.400   .     S
C350   C351    1.397   .     D
C350   H217    1.140   .     S
C351   C352    1.399   .     S
C351   H218    1.140   .     S
C352   N26     1.427   .     S
C352   C353    1.403   .     D
C353   C354    1.391   .     S
C353   H219    1.140   .     S
C354   H220    1.140   .     S
N26    C355    1.295   .     D
C355   H221    1.140   .     S
C355   C356    1.459   .     S
C356   C361    1.398   .     D
C356   C357    1.401   .     S
C357   C358    1.391   .     D
C357   H222    1.140   .     S
C358   C359    1.401   .     S
C358   H223    1.140   1_545 S
C359   C360    1.404   .     D
C359   C362    1.471   1_545 S
C360   H224    1.140   .     S
C360   C361    1.397   .     S
C361   H225    1.140   .     S
C362   C367    1.398   .     S
C362   C363    1.404   .     D
C362   C359    1.471   1_565 S
C363   C364    1.396   .     S
C363   H226    1.140   .     S
C364   C365    1.401   .     D
C364   H227    1.140   .     S
C365   C366    1.403   .     S
C366   H228    1.140   .     S
C366   C367    1.390   .     D
C367   H229    1.140   .     S
C368   C1326   1.396   .     S
C368   C1103   1.424   .     S
C369   C1324   1.396   .     D
C370   C371    1.407   .     D
C370   C375    1.407   .     S
C371   H230    1.140   .     S
C371   C372    1.398   .     S
C372   C373    1.404   .     D
C372   H231    1.140   .     S
C373   N27     1.439   .     S
C373   C374    1.398   .     S
C374   H232    1.140   .     S
C374   C375    1.402   .     D
C375   H233    1.140   .     S
N27    C376    1.298   .     D
C376   H234    1.140   .     S
C376   C377    1.472   .     S
C377   C382    1.398   .     D
C377   C378    1.404   .     S
C378   H235    1.140   .     S
C378   C379    1.404   .     D
C379   H236    1.140   .     S
C379   C380    1.405   .     S
C380   C381    1.403   .     D
C380   N124    1.445   .     S
C381   C382    1.397   .     S
C381   H237    1.140   .     S
C382   H238    1.140   .     S
N28    C1712   1.445   .     S
N28    C36     1.453   1_455 S
C383   C1328   1.422   .     S
C383   C384    1.400   .     S
C383   C1411   1.419   .     D
C384   H239    1.140   .     S
C384   C1410   1.391   .     D
C385   C1409   1.417   .     D
C385   C1765   1.400   .     S
C385   C386    1.496   .     S
C386   C391    1.407   .     S
C386   C387    1.405   .     D
C387   H240    1.140   .     S
C387   C388    1.396   .     S
C388   C389    1.397   .     D
C388   H241    1.140   .     S
C389   N29     1.435   .     S
C389   C390    1.406   .     S
C390   H242    1.140   .     S
C390   C391    1.403   .     D
C391   H243    1.140   .     S
N29    C392    1.298   .     D
C392   H244    1.140   .     S
C392   C393    1.474   .     S
C393   C398    1.402   .     S
C393   C394    1.398   .     D
C394   C395    1.401   .     S
C394   H245    1.140   .     S
C395   H246    1.140   .     S
C395   C396    1.406   .     D
C396   N32     1.451   .     S
C396   C397    1.406   .     S
C397   H247    1.140   .     S
C397   C398    1.399   .     D
C398   H248    1.140   .     S
C399   C400    1.400   .     S
C399   C1395   1.490   .     S
C399   C886    1.403   .     D
C400   H249    1.140   .     S
C400   C1394   1.393   .     D
C401   C1393   1.415   .     D
C401   C1544   1.403   .     S
C401   C402    1.481   .     S
C402   C403    1.400   .     D
C402   C407    1.406   .     S
C403   H250    1.140   .     S
C403   C404    1.387   .     S
C404   H251    1.140   .     S
C404   C405    1.392   .     D
C405   C406    1.404   .     S
C405   N30     1.422   .     S
C406   H252    1.140   .     S
C406   C407    1.401   .     D
C407   H253    1.140   .     S
N30    C408    1.294   .     D
C408   C409    1.464   .     S
C408   H254    1.140   .     S
C409   C410    1.399   .     D
C409   C414    1.398   .     S
C410   H255    1.140   .     S
C410   C411    1.401   .     S
C411   C412    1.405   .     D
C411   H256    1.140   .     S
C412   C413    1.401   .     S
C413   C414    1.384   .     D
C413   H257    1.140   .     S
C414   H258    1.140   .     S
C415   H259    1.140   .     S
C415   C416    1.395   .     S
C416   C444    1.420   .     D
C417   C435    1.403   .     S
C417   C40     1.421   1_545 D
C417   C264    1.406   1_545 S
C418   C423    1.405   .     D
C418   C419    1.409   .     S
C419   H260    1.140   .     S
C419   C420    1.403   .     D
C420   H261    1.140   .     S
C420   C421    1.401   .     S
C421   N31     1.436   .     S
C421   C422    1.401   .     D
C422   H262    1.140   .     S
C422   C423    1.393   .     S
C423   H263    1.140   .     S
N31    C424    1.299   .     D
C424   C425    1.469   .     S
C424   H264    1.140   .     S
C425   C430    1.402   .     S
C425   C426    1.397   .     D
C426   C427    1.397   .     S
C426   H265    1.140   .     S
C427   H266    1.140   .     S
C427   C428    1.402   .     D
C428   C429    1.406   .     S
C428   N112    1.446   .     S
C429   H267    1.140   .     S
C429   C430    1.400   .     D
C430   H268    1.140   .     S
N32    C1538   1.446   .     S
C431   C1617   1.400   .     D
C431   H269    1.140   .     S
C432   C1411   1.400   .     S
C432   H270    1.140   .     S
C433   H271    1.140   .     S
C433   C1717   1.400   .     D
C434   C1511   1.403   .     D
C434   H272    1.140   .     S
C435   H273    1.140   .     S
C436   H274    1.140   .     S
C436   C1257   1.396   .     D
C436   C1204   1.403   .     S
C437   C981    1.411   .     D
C437   C1034   1.424   .     S
C438   H275    1.140   .     S
C438   C1256   1.396   .     S
C438   C439    1.388   .     D
C439   H276    1.140   .     S
C439   C981    1.401   .     S
C440   C441    1.425   .     S
C440   C1271   1.422   .     D
C440   C774    1.419   .     S
C441   C521    1.420   .     S
C441   C911    1.422   .     D
C442   C443    1.415   .     S
C442   C1234   1.413   .     S
C442   C843    1.403   .     D
C443   C949    1.416   .     D
C443   C445    1.410   .     S
C444   C222    1.430   1_565 S
C444   C262    1.411   1_565 S
H144   C232    1.140   1_565 S
H150   C241    1.140   1_655 S
H155   C250    1.140   1_556 S
H159   C256    1.140   1_554 S
H180   C290    1.140   1_554 S
H212   C341    1.140   1_455 S
H223   C358    1.140   1_565 S
C445   C446    1.402   .     S
C445   C1236   1.408   .     D
C446   H277    1.140   .     S
C446   C1235   1.389   .     D
C447   C1234   1.410   .     D
C447   C448    1.471   .     S
C447   C653    1.398   .     S
C448   C453    1.399   .     D
C448   C449    1.400   .     S
C449   H278    1.140   .     S
C449   C450    1.398   .     D
C450   C451    1.398   .     S
C450   H279    1.140   .     S
C451   N33     1.433   .     S
C451   C452    1.404   .     D
C452   H280    1.140   .     S
C452   C453    1.395   .     S
C453   H281    1.140   .     S
N33    C454    1.303   .     D
C454   C455    1.472   1_556 S
C454   H282    1.140   1_565 S
C455   C456    1.396   .     D
C455   C460    1.402   .     S
C455   C454    1.472   1_554 S
C456   C457    1.397   .     S
C456   H283    1.140   1_554 S
C457   H284    1.140   .     S
C457   C458    1.406   .     D
C458   C461    1.482   .     S
C458   C459    1.403   .     S
C459   H285    1.140   .     S
C459   C460    1.396   .     D
C460   H286    1.140   .     S
C461   C462    1.401   .     D
C461   C466    1.405   .     S
C462   H287    1.140   .     S
C462   C463    1.394   .     S
C463   H288    1.140   .     S
C463   C464    1.404   .     D
C464   N36     1.443   .     S
C464   C465    1.402   .     S
C465   H289    1.140   .     S
C465   C466    1.398   .     D
C466   H290    1.140   .     S
C467   C1220   1.419   .     S
C467   C468    1.399   .     S
C467   C1773   1.422   .     D
C468   C1219   1.392   .     D
C468   H291    1.140   .     S
C469   C470    1.495   .     S
C469   C876    1.400   .     D
C469   C1218   1.417   .     S
C470   C475    1.405   .     D
C470   C471    1.406   .     S
C471   C472    1.397   .     D
C471   H292    1.140   .     S
C472   C473    1.397   .     S
C472   H293    1.140   .     S
C473   C474    1.405   .     D
C473   N34     1.435   .     S
C474   C475    1.401   .     S
C474   H294    1.140   .     S
C475   H295    1.140   .     S
N34    C476    1.298   .     D
C476   H296    1.140   .     S
C476   C477    1.471   .     S
C477   C478    1.398   .     D
C477   C482    1.401   .     S
C478   C479    1.400   1_455 S
C478   H297    1.140   1_455 S
C479   H298    1.140   .     S
C479   C478    1.400   1_655 S
C479   C480    1.407   1_655 D
C480   C481    1.406   .     S
C480   C479    1.407   1_455 D
C480   N60     1.453   1_455 S
C481   C482    1.398   .     D
C481   H299    1.140   .     S
C482   H300    1.140   .     S
C483   H301    1.140   .     S
C483   C484    1.402   .     S
C483   C859    1.385   .     D
C484   C666    1.411   1_565 D
C484   C861    1.421   1_565 S
C485   C860    1.424   .     S
C485   C657    1.404   .     D
C485   C640    1.505   .     S
C486   C491    1.406   .     D
C486   C487    1.404   1_545 S
C486   C639    1.406   1_545 S
C487   H302    1.140   .     S
C487   C486    1.404   1_565 S
C487   C488    1.399   1_565 D
C488   C489    1.405   .     S
C488   H303    1.140   .     S
C488   C487    1.399   1_545 D
C489   N35     1.427   .     S
C489   C490    1.393   .     D
C490   H304    1.140   .     S
C490   C491    1.391   .     S
C491   H305    1.140   .     S
N35    C492    1.295   .     D
C492   H306    1.140   .     S
C492   C493    1.462   .     S
C493   C494    1.398   .     D
C493   C498    1.397   .     S
C494   H307    1.140   .     S
C494   C495    1.392   .     S
C495   C496    1.403   .     D
C495   H308    1.140   .     S
C496   C499    1.481   .     S
C496   C497    1.407   .     S
C497   C498    1.397   .     D
C497   H309    1.140   .     S
C498   H310    1.140   .     S
C499   C500    1.405   .     D
C499   C504    1.401   .     S
C500   C501    1.394   .     S
C500   H311    1.140   .     S
C501   C502    1.405   .     D
C501   H312    1.140   .     S
C502   N68     1.373   .     S
C502   C503    1.407   .     S
C503   C504    1.392   .     D
C503   H313    1.140   .     S
C504   H314    1.140   .     S
N36    C946    1.373   .     S
N36    C809    1.441   .     S
C505   C1289   1.415   .     D
C505   C506    1.400   .     S
C505   C1775   1.416   .     S
C506   H315    1.140   .     S
C506   C1288   1.393   .     D
C507   C508    1.483   .     S
C507   C1097   1.400   .     S
C507   C1287   1.490   .     D
C508   C513    1.400   .     D
C508   C509    1.405   .     S
C509   H316    1.140   .     S
C509   C510    1.400   .     D
C510   H317    1.140   .     S
C510   C511    1.400   .     S
C511   C512    1.400   .     D
C511   N37     1.429   .     S
C512   H318    1.140   .     S
C512   C513    1.387   .     S
C513   H319    1.140   .     S
N37    C514    1.296   .     D
C514   C515    1.456   .     S
C514   H320    1.140   .     S
C515   C516    1.394   .     D
C515   C520    1.399   .     S
C516   H321    1.140   .     S
C516   C517    1.393   .     S
C517   H322    1.140   .     S
C517   C518    1.404   .     D
C518   N40     1.448   .     S
C518   C519    1.407   .     S
C519   H323    1.140   .     S
C519   C520    1.395   .     D
C520   H324    1.140   .     S
C521   C1273   1.417   .     D
C521   C522    1.399   .     S
C522   C1272   1.391   .     D
C522   H325    1.140   .     S
C523   C1320   1.400   .     D
C523   C524    1.498   .     S
C523   C1271   1.419   .     S
C524   C529    1.406   .     S
C524   C525    1.407   .     D
C525   C526    1.399   .     S
C525   H326    1.140   .     S
C526   C527    1.397   .     D
C526   H327    1.140   1_556 S
C527   C528    1.405   .     S
C527   N38     1.435   1_556 S
C528   C529    1.400   .     D
C528   H328    1.140   .     S
C529   H329    1.140   .     S
N38    C530    1.298   .     D
N38    C527    1.435   1_554 S
C530   C531    1.472   .     S
C530   H330    1.140   1_554 S
C531   C532    1.398   .     D
C531   C536    1.403   .     S
C532   C533    1.399   .     S
C532   H331    1.140   1_554 S
C533   H332    1.140   .     S
C533   C534    1.406   .     D
C534   C535    1.405   .     S
C534   N48     1.449   .     S
C535   C536    1.401   .     D
C535   H333    1.140   .     S
C536   H334    1.140   .     S
C537   C1771   1.401   .     S
C537   C813    1.410   .     S
C537   C1769   1.411   .     D
C538   C592    1.507   .     S
C538   C812    1.424   .     D
C538   C1546   1.403   .     S
C539   C544    1.399   .     D
C539   C591    1.477   .     S
C539   C540    1.475   .     S
C540   H335    1.140   .     S
C540   C541    1.390   .     D
C541   H336    1.140   .     S
C541   C542    1.405   .     S
C542   C543    1.397   .     D
C542   N39     1.427   .     S
C543   H337    1.140   .     S
C543   C544    1.393   .     S
C544   H338    1.140   .     S
N39    C545    1.293   .     D
C545   C546    1.458   .     S
C545   H339    1.140   .     S
C546   C547    1.402   .     D
C546   C551    1.392   .     S
C547   H340    1.140   .     S
C547   C548    1.396   .     S
C548   H341    1.140   .     S
C548   C549    1.404   .     D
C549   C550    1.406   .     S
C549   N88     1.447   .     S
C550   C551    1.392   .     D
C550   H342    1.140   .     S
C551   H343    1.140   .     S
N40    C1215   1.447   .     S
N40    C634    1.444   .     S
C552   C553    1.400   .     S
C552   C1135   1.417   .     D
C553   C1134   1.392   .     D
C553   H344    1.140   .     S
C554   C555    1.500   .     S
C554   C655    1.400   .     S
C554   C1133   1.419   .     D
C555   C560    1.407   .     S
C555   C556    1.406   .     D
C556   H345    1.140   .     S
C556   C557    1.397   .     S
C557   C558    1.397   .     D
C557   H346    1.140   .     S
C558   N41     1.436   .     S
C558   C559    1.405   .     S
C559   H347    1.140   .     S
C559   C560    1.404   .     D
C560   H348    1.140   .     S
N41    C561    1.299   .     D
C561   H349    1.140   .     S
C561   C562    1.475   .     S
C562   C563    1.401   .     S
C562   C567    1.401   .     D
C563   C564    1.403   .     D
C563   H350    1.140   .     S
C564   H351    1.140   .     S
C564   C565    1.407   .     S
C565   C566    1.405   .     D
C565   N44     1.451   .     S
C566   C567    1.397   .     S
C566   H352    1.140   .     S
C567   H353    1.140   .     S
C568   C1113   1.410   .     S
C568   C569    1.400   .     S
C568   C1552   1.413   .     D
C569   H354    1.140   .     S
C569   C1112   1.389   .     D
C570   C878    1.393   .     D
C570   C571    1.471   .     S
C570   C1111   1.408   .     S
C571   C576    1.400   .     D
C571   C572    1.400   .     S
C572   H355    1.140   .     S
C572   C573    1.397   .     D
C573   C574    1.399   .     S
C573   H356    1.140   .     S
C574   N42     1.427   .     S
C574   C575    1.403   .     D
C575   C576    1.391   .     S
C575   H357    1.140   .     S
C576   H358    1.140   .     S
N42    C577    1.295   .     D
C577   C578    1.459   .     S
C577   H359    1.140   .     S
C578   C583    1.398   .     D
C578   C579    1.401   .     S
C579   H360    1.140   .     S
C579   C580    1.391   .     D
C580   C581    1.401   .     S
C580   H361    1.140   1_565 S
C581   C582    1.404   .     D
C581   C584    1.471   1_565 S
C582   H362    1.140   .     S
C582   C583    1.397   .     S
C583   H363    1.140   .     S
C584   C589    1.398   .     S
C584   C585    1.404   .     D
C584   C581    1.471   1_545 S
C585   C586    1.396   .     S
C585   H364    1.140   .     S
C586   H365    1.140   .     S
C586   C587    1.401   .     D
C587   C588    1.403   .     S
C587   N52     1.441   .     S
C588   C589    1.390   .     D
C588   H366    1.140   1_655 S
C589   H367    1.140   1_655 S
C590   C1769   1.424   .     S
C590   C760    1.424   .     D
C590   C1548   1.396   .     S
C591   C1546   1.396   .     D
C591   C759    1.410   .     S
C592   C593    1.407   .     D
C592   C597    1.407   .     S
C593   C594    1.398   .     S
C593   H368    1.140   .     S
C594   C595    1.404   .     D
C594   H369    1.140   .     S
C595   N43     1.439   .     S
C595   C596    1.398   .     S
C596   C597    1.402   .     D
C596   H370    1.140   .     S
C597   H371    1.140   .     S
N43    C598    1.298   .     D
C598   C599    1.472   .     S
C598   H372    1.140   .     S
C599   C600    1.404   .     D
C599   C604    1.398   .     S
C600   C601    1.404   .     S
C600   H373    1.140   .     S
C601   H374    1.140   .     S
C601   C602    1.405   .     D
C602   C603    1.403   .     S
C602   N76     1.445   .     S
C603   C604    1.397   .     D
C603   H375    1.140   .     S
C604   H376    1.140   .     S
N44    C702    1.453   .     S
N44    C1046   1.445   .     S
C605   C606    1.400   .     S
C605   C1550   1.422   .     D
C605   C1189   1.419   .     S
C606   H377    1.140   .     S
C606   C1188   1.391   .     D
C607   C1187   1.417   .     S
C607   C608    1.496   .     S
C607   C1099   1.400   .     D
C608   C613    1.407   .     D
C608   C609    1.405   .     S
C609   C610    1.396   .     D
C609   H378    1.140   .     S
C610   C611    1.397   .     S
C610   H379    1.140   .     S
C611   N45     1.435   .     S
C611   C612    1.406   .     D
C612   C613    1.403   .     S
C612   H380    1.140   .     S
C613   H381    1.140   .     S
N45    C614    1.298   .     D
C614   H382    1.140   .     S
C614   C615    1.474   .     S
C615   C620    1.402   .     D
C615   C616    1.398   .     S
C616   C617    1.401   .     D
C616   H383    1.140   .     S
C617   H384    1.140   .     S
C617   C618    1.406   .     S
C618   N48     1.451   .     S
C618   C619    1.406   .     D
C619   H385    1.140   .     S
C619   C620    1.399   .     S
C620   H386    1.140   .     S
C621   C622    1.400   .     S
C621   C1173   1.490   .     D
C622   H387    1.140   .     S
C622   C1172   1.393   .     D
C623   C624    1.481   .     S
C623   C1322   1.403   .     S
C623   C1171   1.415   .     D
C624   C629    1.406   .     D
C624   C625    1.400   .     S
C625   C626    1.387   .     D
C625   H388    1.140   .     S
C626   H389    1.140   .     S
C626   C627    1.392   .     S
C627   N46     1.422   .     S
C627   C628    1.404   .     D
C628   C629    1.401   .     S
C628   H390    1.140   .     S
C629   H391    1.140   .     S
N46    C630    1.294   .     D
C630   C631    1.464   .     S
C630   H392    1.140   .     S
C631   C632    1.399   .     D
C631   C636    1.398   .     S
C632   H393    1.140   .     S
C632   C633    1.401   .     S
C633   H394    1.140   .     S
C633   C634    1.405   .     D
C634   C635    1.401   .     S
C635   H395    1.140   .     S
C635   C636    1.384   .     D
C636   H396    1.140   .     S
C637   C638    1.395   .     S
C637   H397    1.140   .     S
C637   C705    1.385   .     D
C638   C707    1.424   .     D
C638   C666    1.420   .     S
C639   C657    1.403   .     S
C639   C486    1.406   1_565 S
C639   C706    1.421   1_565 D
C640   C645    1.405   .     D
C640   C641    1.409   .     S
C641   H398    1.140   .     S
C641   C642    1.403   .     D
C642   H399    1.140   .     S
C642   C643    1.401   .     S
C643   C644    1.401   .     D
C643   N47     1.436   .     S
C644   H400    1.140   .     S
C644   C645    1.393   .     S
C645   H401    1.140   .     S
N47    C646    1.299   .     D
C646   H402    1.140   .     S
C646   C647    1.469   .     S
C647   C652    1.402   .     S
C647   C648    1.397   .     D
C648   C649    1.397   .     S
C648   H403    1.140   .     S
C649   H404    1.140   .     S
C649   C650    1.402   .     D
C650   C651    1.406   .     S
C650   N96     1.446   .     S
C651   C652    1.400   .     D
C651   H405    1.140   .     S
C652   H406    1.140   .     S
N48    C1316   1.446   .     S
C653   H407    1.140   .     S
C653   C951    1.400   .     D
C654   C1189   1.400   .     D
C654   C691    1.400   .     S
C654   H408    1.140   .     S
C655   C1051   1.400   .     D
C655   H409    1.140   .     S
C656   C792    1.393   .     D
C656   C1289   1.403   .     S
C656   H410    1.140   .     S
C657   H411    1.140   .     S
C658   H412    1.140   .     S
C658   C1479   1.396   .     S
C658   C1426   1.403   .     D
C659   C1700   1.424   .     D
C659   C1647   1.411   .     S
C659   C881    1.424   .     S
C660   C1478   1.396   .     S
C660   H413    1.140   .     S
C660   C661    1.388   .     D
C661   C1647   1.401   .     S
C661   H414    1.140   .     S
C662   C1493   1.422   .     S
C662   C663    1.425   .     S
C663   C1577   1.422   .     S
C664   C665    1.415   .     S
C664   C1456   1.413   .     S
C665   C1615   1.416   .     S
C666   C484    1.411   1_545 D
C666   C888    1.430   1_545 S
H282   C454    1.140   1_545 S
H283   C456    1.140   1_556 S
H297   C478    1.140   1_655 S
H327   C526    1.140   1_554 S
H330   C530    1.140   1_556 S
H331   C532    1.140   1_556 S
H361   C580    1.140   1_545 S
H366   C588    1.140   1_455 S
H367   C589    1.140   1_455 S
C667   C668    1.402   .     D
C667   C1014   1.408   .     S
C668   H415    1.140   .     S
C668   C1013   1.389   .     S
C669   C1012   1.410   .     S
C669   C670    1.471   .     S
C669   C875    1.398   .     D
C670   C675    1.399   .     D
C670   C671    1.400   .     S
C671   H416    1.140   .     S
C671   C672    1.398   .     D
C672   C673    1.398   .     S
C672   H417    1.140   .     S
C673   C674    1.404   .     D
C673   N49     1.433   .     S
C674   H418    1.140   .     S
C674   C675    1.395   .     S
C675   H419    1.140   .     S
N49    C676    1.303   .     D
C676   C677    1.472   1_556 S
C676   H420    1.140   1_545 S
C677   C678    1.396   .     D
C677   C682    1.402   .     S
C677   C676    1.472   1_554 S
C678   C679    1.397   .     S
C678   H421    1.140   1_554 S
C679   H422    1.140   .     S
C679   C680    1.406   .     D
C680   C681    1.403   .     S
C680   C683    1.482   .     S
C681   H423    1.140   .     S
C681   C682    1.396   .     D
C682   H424    1.140   .     S
C683   C684    1.401   .     D
C683   C688    1.405   .     S
C684   H425    1.140   .     S
C684   C685    1.394   .     S
C685   C686    1.404   .     D
C685   H426    1.140   1_655 S
C686   N52     1.443   .     S
C686   C687    1.402   .     S
C687   H427    1.140   .     S
C687   C688    1.398   .     D
C688   H428    1.140   .     S
C689   C998    1.419   .     D
C689   C1551   1.422   .     S
C689   C690    1.399   .     S
C690   C997    1.392   .     D
C690   H429    1.140   .     S
C691   C692    1.495   .     S
C691   C996    1.417   .     D
C692   C697    1.405   .     D
C692   C693    1.406   .     S
C693   H430    1.140   .     S
C693   C694    1.397   .     D
C694   C695    1.397   .     S
C694   H431    1.140   .     S
C695   C696    1.405   .     D
C695   N50     1.435   .     S
C696   H432    1.140   .     S
C696   C697    1.401   .     S
C697   H433    1.140   .     S
N50    C698    1.298   .     D
C698   H434    1.140   .     S
C698   C699    1.471   .     S
C699   C700    1.398   .     D
C699   C704    1.401   .     S
C700   C701    1.400   .     S
C700   H435    1.140   .     S
C701   H436    1.140   .     S
C701   C702    1.407   .     D
C702   C703    1.406   .     S
C703   C704    1.398   .     D
C703   H437    1.140   .     S
C704   H438    1.140   .     S
C705   C706    1.402   .     S
C705   H439    1.140   .     S
C706   C639    1.421   1_545 D
C706   C888    1.411   1_545 S
C707   C879    1.404   .     S
C707   C862    1.505   .     S
C708   C713    1.406   .     D
C708   C709    1.404   1_565 S
C708   C861    1.406   1_565 S
C709   H440    1.140   .     S
C709   C708    1.404   1_545 S
C709   C710    1.399   1_545 D
C710   C711    1.405   .     S
C710   H441    1.140   .     S
C710   C709    1.399   1_565 D
C711   N51     1.427   .     S
C711   C712    1.393   .     D
C712   C713    1.391   .     S
C712   H442    1.140   .     S
C713   H443    1.140   .     S
N51    C714    1.295   .     D
C714   C715    1.462   .     S
C714   H444    1.140   .     S
C715   C716    1.398   .     D
C715   C720    1.397   .     S
C716   H445    1.140   .     S
C716   C717    1.392   .     S
C717   C718    1.403   .     D
C717   H446    1.140   .     S
C718   C721    1.481   .     S
C718   C719    1.407   .     S
C719   H447    1.140   .     S
C719   C720    1.397   .     D
C720   H448    1.140   .     S
C721   C722    1.405   .     D
C721   C726    1.401   .     S
C722   C723    1.394   .     S
C722   H449    1.140   .     S
C723   C724    1.405   .     D
C723   H450    1.140   .     S
C724   C725    1.407   .     S
C724   N84     1.373   1_455 S
C725   C726    1.392   .     D
C725   H451    1.140   .     S
C726   H452    1.140   .     S
N52    C1168   1.373   1_655 S
C727   C1067   1.415   .     D
C727   C1553   1.416   .     S
C727   C728    1.400   .     S
C728   H453    1.140   .     S
C728   C1066   1.393   .     D
C729   C730    1.483   .     S
C729   C1319   1.400   .     S
C729   C1065   1.490   .     D
C730   C735    1.400   .     D
C730   C731    1.405   .     S
C731   H454    1.140   .     S
C731   C732    1.400   .     D
C732   H455    1.140   .     S
C732   C733    1.400   .     S
C733   C734    1.400   .     D
C733   N53     1.429   .     S
C734   C735    1.387   .     S
C734   H456    1.140   .     S
C735   H457    1.140   .     S
N53    C736    1.296   .     D
C736   C737    1.456   .     S
C736   H458    1.140   .     S
C737   C738    1.394   .     D
C737   C742    1.399   .     S
C738   H459    1.140   .     S
C738   C739    1.393   .     S
C739   C740    1.404   .     D
C739   H460    1.140   .     S
C740   C741    1.407   .     S
C740   N56     1.448   .     S
C741   H461    1.140   .     S
C741   C742    1.395   .     D
C742   H462    1.140   .     S
C743   C1051   1.417   .     S
C743   C744    1.399   .     D
C744   C1050   1.391   .     S
C744   H463    1.140   .     S
C745   C1098   1.400   .     D
C745   C746    1.498   .     S
C745   C1049   1.419   .     S
C746   C751    1.406   .     D
C746   C747    1.407   .     S
C747   H464    1.140   .     S
C747   C748    1.399   .     D
C748   C749    1.397   .     S
C748   H465    1.140   1_556 S
C749   C750    1.405   .     D
C749   N54     1.435   1_556 S
C750   H466    1.140   .     S
C750   C751    1.400   .     S
C751   H467    1.140   .     S
N54    C752    1.298   .     D
N54    C749    1.435   1_554 S
C752   C753    1.472   .     S
C752   H468    1.140   1_554 S
C753   C754    1.398   .     D
C753   C758    1.403   .     S
C754   C755    1.399   .     S
C754   H469    1.140   1_554 S
C755   H470    1.140   .     S
C755   C756    1.406   .     D
C756   C757    1.405   .     S
C756   N64     1.449   .     S
C757   C758    1.401   .     D
C757   H471    1.140   .     S
C758   H472    1.140   .     S
C759   C1547   1.411   .     D
C759   C1549   1.401   .     S
C760   C814    1.507   .     S
C760   C1768   1.403   .     S
C761   C766    1.399   .     S
C761   C813    1.477   .     S
C761   C762    1.475   .     D
C762   H473    1.140   .     S
C762   C763    1.390   .     S
C763   H474    1.140   .     S
C763   C764    1.405   .     D
C764   C765    1.397   .     S
C764   N55     1.427   .     S
C765   H475    1.140   .     S
C765   C766    1.393   .     D
C766   H476    1.140   .     S
N55    C767    1.293   .     D
C767   C768    1.458   .     S
C767   H477    1.140   .     S
C768   C769    1.402   .     S
C768   C773    1.392   .     D
C769   C770    1.396   .     D
C769   H478    1.140   .     S
C770   H479    1.140   .     S
C770   C771    1.404   .     S
C771   N72     1.447   .     S
C771   C772    1.406   .     D
C772   H480    1.140   .     S
C772   C773    1.392   .     S
C773   H481    1.140   .     S
N56    C993    1.447   .     S
N56    C856    1.444   .     S
C774   C775    1.400   .     S
C774   C913    1.417   .     D
C775   C912    1.392   .     D
C775   H482    1.140   .     S
C776   C877    1.400   .     D
C776   C777    1.500   .     S
C776   C911    1.419   .     S
C777   C782    1.407   .     D
C777   C778    1.406   .     S
C778   C779    1.397   .     D
C778   H483    1.140   .     S
C779   C780    1.397   .     S
C779   H484    1.140   .     S
C780   N57     1.436   .     S
C780   C781    1.405   .     D
C781   H485    1.140   .     S
C781   C782    1.404   .     S
C782   H486    1.140   .     S
N57    C783    1.299   .     D
C783   H487    1.140   .     S
C783   C784    1.475   .     S
C784   C785    1.401   .     D
C784   C789    1.401   .     S
C785   C786    1.403   1_455 S
C785   H488    1.140   1_455 S
C786   H489    1.140   .     S
C786   C787    1.407   .     D
C786   C785    1.403   1_655 S
C787   N60     1.451   .     S
C787   C788    1.405   1_655 S
C788   C789    1.397   .     D
C788   H490    1.140   .     S
C788   C787    1.405   1_455 S
C789   H491    1.140   .     S
C790   C891    1.410   .     S
C790   C1774   1.413   .     D
C790   C791    1.400   .     S
C791   H492    1.140   .     S
C791   C890    1.389   .     D
C792   C793    1.471   .     S
C792   C889    1.408   .     S
C793   C798    1.400   .     D
C793   C794    1.400   .     S
C794   C795    1.397   .     D
C794   H493    1.140   .     S
C795   C796    1.399   .     S
C795   H494    1.140   .     S
C796   N58     1.427   .     S
C796   C797    1.403   .     D
C797   C798    1.391   .     S
C797   H495    1.140   .     S
C798   H496    1.140   .     S
N58    C799    1.295   .     D
C799   H497    1.140   .     S
C799   C800    1.459   .     S
C800   C805    1.398   .     D
C800   C801    1.401   .     S
C801   C802    1.391   .     D
C801   H498    1.140   .     S
C802   C803    1.401   .     S
C802   H499    1.140   1_545 S
C803   C804    1.404   .     D
C803   C806    1.471   1_545 S
C804   H500    1.140   .     S
C804   C805    1.397   .     S
C805   H501    1.140   .     S
C806   C811    1.398   .     S
C806   C807    1.404   .     D
C806   C803    1.471   1_565 S
C807   C808    1.396   .     S
C807   H502    1.140   .     S
C808   C809    1.401   .     D
C808   H503    1.140   .     S
C809   C810    1.403   .     S
C810   H504    1.140   .     S
C810   C811    1.390   .     D
C811   H505    1.140   .     S
C812   C1770   1.396   .     S
C812   C1547   1.424   .     S
C813   C1768   1.396   .     D
C814   C815    1.407   .     D
C814   C819    1.407   .     S
C815   H506    1.140   .     S
C815   C816    1.398   .     S
C816   C817    1.404   .     D
C816   H507    1.140   .     S
C817   N59     1.439   .     S
C817   C818    1.398   .     S
C818   H508    1.140   .     S
C818   C819    1.402   .     D
C819   H509    1.140   .     S
N59    C820    1.298   .     D
C820   C821    1.472   .     S
C820   H510    1.140   .     S
C821   C822    1.404   .     D
C821   C826    1.398   .     S
C822   H511    1.140   .     S
C822   C823    1.404   .     S
C823   H512    1.140   .     S
C823   C824    1.405   .     D
C824   C825    1.403   .     S
C824   N92     1.445   .     S
C825   C826    1.397   .     D
C825   H513    1.140   .     S
C826   H514    1.140   .     S
N60    C1268   1.445   .     S
N60    C480    1.453   1_655 S
C827   C828    1.400   .     S
C827   C1772   1.422   .     S
C827   C967    1.419   .     D
C828   H515    1.140   .     S
C828   C966    1.391   .     D
C829   C965    1.417   .     D
C829   C1321   1.400   .     S
C829   C830    1.496   .     S
C830   C835    1.407   .     S
C830   C831    1.405   .     D
C831   H516    1.140   .     S
C831   C832    1.396   .     S
C832   C833    1.397   .     D
C832   H517    1.140   .     S
C833   N61     1.435   .     S
C833   C834    1.406   .     S
C834   H518    1.140   .     S
C834   C835    1.403   .     D
C835   H519    1.140   .     S
N61    C836    1.298   .     D
C836   H520    1.140   .     S
C836   C837    1.474   .     S
C837   C842    1.402   .     S
C837   C838    1.398   .     D
C838   C839    1.401   .     S
C838   H521    1.140   .     S
C839   H522    1.140   .     S
C839   C840    1.406   .     D
C840   N64     1.451   .     S
C840   C841    1.406   .     S
C841   H523    1.140   .     S
C841   C842    1.399   .     D
C842   H524    1.140   .     S
C843   C844    1.400   .     S
C843   C951    1.490   .     S
C844   H525    1.140   .     S
C844   C950    1.393   .     D
C845   C1100   1.403   .     D
C845   C846    1.481   .     S
C845   C949    1.415   .     S
C846   C851    1.406   .     D
C846   C847    1.400   .     S
C847   C848    1.387   .     D
C847   H526    1.140   .     S
C848   H527    1.140   .     S
C848   C849    1.392   .     S
C849   N62     1.422   .     S
C849   C850    1.404   .     D
C850   C851    1.401   .     S
C850   H528    1.140   .     S
C851   H529    1.140   .     S
N62    C852    1.294   .     D
C852   C853    1.464   .     S
C852   H530    1.140   .     S
C853   C854    1.399   .     D
C853   C858    1.398   .     S
C854   H531    1.140   .     S
C854   C855    1.401   .     S
C855   C856    1.405   .     D
C855   H532    1.140   .     S
C856   C857    1.401   .     S
C857   H533    1.140   .     S
C857   C858    1.384   .     D
C858   H534    1.140   .     S
C859   H535    1.140   .     S
C859   C860    1.395   .     S
C860   C888    1.420   .     D
C861   C879    1.403   .     D
C861   C484    1.421   1_545 S
C861   C708    1.406   1_545 S
C862   C863    1.409   .     D
C862   C867    1.405   .     S
C863   C864    1.403   .     S
C863   H536    1.140   .     S
C864   H537    1.140   .     S
C864   C865    1.401   .     D
C865   C866    1.401   .     S
C865   N63     1.436   .     S
C866   H538    1.140   .     S
C866   C867    1.393   .     D
C867   H539    1.140   .     S
N63    C868    1.299   .     D
C868   H540    1.140   .     S
C868   C869    1.469   .     S
C869   C874    1.402   .     S
C869   C870    1.397   .     D
C870   C871    1.397   .     S
C870   H541    1.140   .     S
C871   H542    1.140   .     S
C871   C872    1.402   .     D
C872   C873    1.406   .     S
C872   N80     1.446   .     S
C873   H543    1.140   .     S
C873   C874    1.400   .     D
C874   H544    1.140   .     S
N64    C1094   1.446   .     S
C875   H545    1.140   .     S
C875   C1173   1.400   .     S
C876   C967    1.400   .     S
C876   H546    1.140   .     S
C877   C1273   1.400   .     S
C877   H547    1.140   .     S
C878   C1067   1.403   .     S
C878   H548    1.140   .     S
C879   H549    1.140   .     S
C880   H550    1.140   .     S
C880   C1701   1.396   .     D
C880   C1648   1.403   .     S
C881   C1425   1.411   .     D
C881   C1478   1.424   .     S
C882   H551    1.140   .     S
C882   C1700   1.396   .     S
C882   C883    1.388   .     D
C883   H552    1.140   .     S
C883   C1425   1.401   .     S
C884   C1715   1.422   .     S
C884   C885    1.425   .     D
C885   C1355   1.422   .     S
C886   C887    1.415   .     S
C886   C1678   1.413   .     S
C887   C1393   1.416   .     S
C888   C666    1.430   1_565 S
C888   C706    1.411   1_565 S
H420   C676    1.140   1_565 S
H421   C678    1.140   1_556 S
H426   C685    1.140   1_455 S
H465   C748    1.140   1_554 S
H468   C752    1.140   1_556 S
H469   C754    1.140   1_556 S
H488   C785    1.140   1_655 S
H499   C802    1.140   1_565 S
C889   C890    1.402   .     S
C889   C1775   1.410   .     D
C890   H553    1.140   .     S
C891   C1097   1.398   .     D
C891   C892    1.471   .     S
C892   C897    1.399   .     D
C892   C893    1.400   .     S
C893   H554    1.140   .     S
C893   C894    1.398   .     D
C894   C895    1.398   .     S
C894   H555    1.140   .     S
C895   C896    1.404   .     D
C895   N65     1.433   .     S
C896   H556    1.140   .     S
C896   C897    1.395   .     S
C897   H557    1.140   .     S
N65    C898    1.303   .     D
C898   C899    1.472   .     S
C898   H558    1.140   1_545 S
C899   C900    1.396   .     D
C899   C904    1.402   .     S
C900   C901    1.397   .     S
C900   H559    1.140   .     S
C901   H560    1.140   .     S
C901   C902    1.406   .     D
C902   C903    1.403   .     S
C902   C905    1.482   .     S
C903   H561    1.140   .     S
C903   C904    1.396   .     D
C904   H562    1.140   .     S
C905   C906    1.401   .     D
C905   C910    1.405   .     S
C906   H563    1.140   .     S
C906   C907    1.394   .     S
C907   H564    1.140   .     S
C907   C908    1.404   .     D
C908   N68     1.443   .     S
C908   C909    1.402   .     S
C909   C910    1.398   .     D
C909   H565    1.140   .     S
C910   H566    1.140   .     S
C911   C912    1.399   .     S
C912   H567    1.140   .     S
C913   C914    1.495   .     S
C913   C1320   1.400   .     S
C914   C919    1.405   .     S
C914   C915    1.406   .     D
C915   H568    1.140   .     S
C915   C916    1.397   .     S
C916   C917    1.397   .     D
C916   H569    1.140   1_556 S
C917   C918    1.405   .     S
C917   N66     1.435   1_556 S
C918   H570    1.140   .     S
C918   C919    1.401   .     D
C919   H571    1.140   .     S
N66    C917    1.435   1_554 S
N66    C920    1.298   1_554 D
C920   H572    1.140   .     S
C920   N66     1.298   1_556 D
C920   C921    1.471   1_556 S
C921   C922    1.398   .     S
C921   C926    1.401   .     D
C921   C920    1.471   1_554 S
C922   C923    1.400   1_455 D
C922   H573    1.140   1_454 S
C923   H574    1.140   .     S
C923   C922    1.400   1_655 D
C923   C924    1.407   1_655 S
C924   C925    1.406   .     D
C924   C923    1.407   1_455 S
C924   N92     1.453   1_455 S
C925   C926    1.398   .     S
C925   H575    1.140   .     S
C926   H576    1.140   .     S
C927   C928    1.402   .     S
C927   H577    1.140   .     S
C927   C1303   1.385   .     D
C928   C1110   1.411   1_545 S
C928   C1305   1.421   1_545 D
C929   C1304   1.424   .     D
C929   C1101   1.404   .     S
C929   C1084   1.505   .     S
C930   C935    1.406   .     D
C930   C931    1.404   1_565 S
C930   C1083   1.406   1_565 S
C931   H578    1.140   .     S
C931   C930    1.404   1_545 S
C931   C932    1.399   1_545 D
C932   C933    1.405   .     S
C932   H579    1.140   .     S
C932   C931    1.399   1_565 D
C933   N67     1.427   .     S
C933   C934    1.393   .     D
C934   C935    1.391   .     S
C934   H580    1.140   .     S
C935   H581    1.140   .     S
N67    C936    1.295   .     D
C936   C937    1.462   .     S
C936   H582    1.140   .     S
C937   C938    1.398   .     D
C937   C942    1.397   .     S
C938   H583    1.140   .     S
C938   C939    1.392   .     S
C939   C940    1.403   .     D
C939   H584    1.140   .     S
C940   C943    1.481   .     S
C940   C941    1.407   .     S
C941   H585    1.140   .     S
C941   C942    1.397   .     D
C942   H586    1.140   .     S
C943   C944    1.405   .     D
C943   C948    1.401   .     S
C944   C945    1.394   .     S
C944   H587    1.140   .     S
C945   C946    1.405   .     D
C945   H588    1.140   .     S
C946   C947    1.407   .     S
C947   C948    1.392   .     D
C947   H589    1.140   .     S
C948   H590    1.140   .     S
N68    C1253   1.441   .     S
C949   C950    1.400   .     S
C950   H591    1.140   .     S
C951   C952    1.483   .     S
C952   C957    1.400   .     S
C952   C953    1.405   1_556 D
C953   H592    1.140   .     S
C953   C954    1.400   .     S
C953   C952    1.405   1_554 D
C954   H593    1.140   .     S
C954   C955    1.400   .     D
C955   C956    1.400   .     S
C955   N69     1.429   .     S
C956   C957    1.387   1_554 D
C956   H594    1.140   1_554 S
C957   H595    1.140   .     S
C957   C956    1.387   1_556 D
N69    C958    1.296   .     D
C958   C959    1.456   .     S
C958   H596    1.140   .     S
C959   C960    1.394   .     D
C959   C964    1.399   .     S
C960   H597    1.140   .     S
C960   C961    1.393   .     S
C961   C962    1.404   .     D
C961   H598    1.140   .     S
C962   C963    1.407   .     S
C962   N72     1.448   .     S
C963   H599    1.140   .     S
C963   C964    1.395   .     D
C964   H600    1.140   .     S
C965   C1773   1.420   .     S
C965   C966    1.399   .     S
C966   H601    1.140   .     S
C967   C968    1.498   .     S
C968   C973    1.406   .     S
C968   C969    1.407   .     D
C969   H602    1.140   .     S
C969   C970    1.399   .     S
C970   C971    1.397   .     D
C970   H603    1.140   .     S
C971   C972    1.405   .     S
C971   N70     1.435   .     S
C972   H604    1.140   .     S
C972   C973    1.400   .     D
C973   H605    1.140   .     S
N70    C974    1.298   .     D
C974   C975    1.472   .     S
C974   H606    1.140   .     S
C975   C976    1.398   .     D
C975   C980    1.403   .     S
C976   C977    1.399   .     S
C976   H607    1.140   .     S
C977   H608    1.140   .     S
C977   C978    1.406   .     D
C978   C979    1.405   .     S
C978   N80     1.449   .     S
C979   C980    1.401   .     D
C979   H609    1.140   .     S
C980   H610    1.140   .     S
C981   C1257   1.410   .     S
C982   C1256   1.424   .     S
C982   C1036   1.507   .     S
C983   C988    1.399   .     D
C983   C1035   1.477   .     S
C983   C984    1.475   .     S
C984   H611    1.140   .     S
C984   C985    1.390   .     D
C985   H612    1.140   .     S
C985   C986    1.405   .     S
C986   C987    1.397   .     D
C986   N71     1.427   .     S
C987   H613    1.140   .     S
C987   C988    1.393   .     S
C988   H614    1.140   .     S
N71    C989    1.293   .     D
C989   C990    1.458   .     S
C989   H615    1.140   .     S
C990   C991    1.402   .     S
C990   C995    1.392   .     D
C991   C992    1.396   .     D
C991   H616    1.140   .     S
C992   H617    1.140   .     S
C992   C993    1.404   .     S
C993   C994    1.406   .     D
C994   H618    1.140   .     S
C994   C995    1.392   .     S
C995   H619    1.140   .     S
N72    C1078   1.444   .     S
C996   C1550   1.419   .     S
C996   C997    1.400   .     S
C997   H620    1.140   .     S
C998   C1099   1.400   .     S
C998   C999    1.500   .     S
C999   C1004   1.407   .     S
C999   C1000   1.406   .     D
C1000  C1001   1.397   .     S
C1000  H621    1.140   .     S
C1001  C1002   1.397   .     D
C1001  H622    1.140   .     S
C1002  N73     1.436   .     S
C1002  C1003   1.405   .     S
C1003  H623    1.140   .     S
C1003  C1004   1.404   .     D
C1004  H624    1.140   .     S
N73    C1005   1.299   .     D
C1005  H625    1.140   .     S
C1005  C1006   1.475   .     S
C1006  C1007   1.401   .     D
C1006  C1011   1.401   .     S
C1007  C1008   1.403   .     S
C1007  H626    1.140   .     S
C1008  H627    1.140   .     S
C1008  C1009   1.407   .     D
C1009  C1010   1.405   .     S
C1009  N76     1.451   .     S
C1010  C1011   1.397   .     D
C1010  H628    1.140   .     S
C1011  H629    1.140   .     S
C1012  C1013   1.400   .     D
C1013  H630    1.140   .     S
C1014  C1322   1.393   .     D
C1014  C1015   1.471   .     S
C1015  C1020   1.400   .     D
C1015  C1016   1.400   .     S
C1016  C1017   1.397   .     D
C1016  H631    1.140   .     S
C1017  C1018   1.399   .     S
C1017  H632    1.140   .     S
C1018  C1019   1.403   .     D
C1018  N74     1.427   .     S
C1019  C1020   1.391   .     S
C1019  H633    1.140   .     S
C1020  H634    1.140   .     S
N74    C1021   1.295   .     D
C1021  H635    1.140   .     S
C1021  C1022   1.459   .     S
C1022  C1027   1.398   .     D
C1022  C1023   1.401   .     S
C1023  C1024   1.391   .     D
C1023  H636    1.140   .     S
C1024  C1025   1.401   .     S
C1024  H637    1.140   1_545 S
C1025  C1026   1.404   .     D
C1025  C1028   1.471   1_545 S
C1026  H638    1.140   .     S
C1026  C1027   1.397   .     S
C1027  H639    1.140   .     S
C1028  C1033   1.398   .     S
C1028  C1029   1.404   .     D
C1028  C1025   1.471   1_565 S
C1029  C1030   1.396   .     S
C1029  H640    1.140   .     S
C1030  C1031   1.401   .     D
C1030  H641    1.140   .     S
C1031  C1032   1.403   .     S
C1031  N84     1.441   .     S
C1032  C1033   1.390   .     D
C1032  H642    1.140   1_655 S
C1033  H643    1.140   1_655 S
C1034  C1204   1.424   .     D
C1035  C1203   1.410   .     D
C1036  C1037   1.407   .     D
C1036  C1041   1.407   .     S
C1037  H644    1.140   .     S
C1037  C1038   1.398   .     S
C1038  C1039   1.404   .     D
C1038  H645    1.140   .     S
C1039  N75     1.439   .     S
C1039  C1040   1.398   .     S
C1040  H646    1.140   .     S
C1040  C1041   1.402   .     D
C1041  H647    1.140   .     S
N75    C1042   1.298   .     D
C1042  C1043   1.472   .     S
C1042  H648    1.140   .     S
C1043  C1044   1.404   .     D
C1043  C1048   1.398   .     S
C1044  H649    1.140   .     S
C1044  C1045   1.404   .     S
C1045  C1046   1.405   .     D
C1045  H650    1.140   .     S
C1046  C1047   1.403   .     S
C1047  C1048   1.397   .     D
C1047  H651    1.140   .     S
C1048  H652    1.140   .     S
N76    C1146   1.453   .     S
C1049  C1050   1.400   .     D
C1050  H653    1.140   .     S
C1051  C1052   1.496   .     S
C1052  C1057   1.407   .     D
C1052  C1053   1.405   .     S
C1053  H654    1.140   .     S
C1053  C1054   1.396   .     D
C1054  C1055   1.397   .     S
C1054  H655    1.140   .     S
C1055  N77     1.435   .     S
C1055  C1056   1.406   .     D
C1056  H656    1.140   .     S
C1056  C1057   1.403   .     S
C1057  H657    1.140   .     S
N77    C1058   1.298   .     D
C1058  H658    1.140   .     S
C1058  C1059   1.474   .     S
C1059  C1064   1.402   .     D
C1059  C1060   1.398   .     S
C1060  C1061   1.401   .     D
C1060  H659    1.140   .     S
C1061  H660    1.140   .     S
C1061  C1062   1.406   .     S
C1062  N80     1.451   .     S
C1062  C1063   1.406   .     D
C1063  H661    1.140   .     S
C1063  C1064   1.399   .     S
C1064  H662    1.140   .     S
C1065  C1066   1.400   .     S
C1065  C1552   1.403   .     S
C1066  H663    1.140   .     S
C1067  C1068   1.481   .     S
C1068  C1073   1.406   .     S
C1068  C1069   1.400   .     D
C1069  C1070   1.387   .     S
C1069  H664    1.140   .     S
C1070  H665    1.140   .     S
C1070  C1071   1.392   .     D
C1071  N78     1.422   .     S
C1071  C1072   1.404   .     S
C1072  C1073   1.401   .     D
C1072  H666    1.140   .     S
C1073  H667    1.140   .     S
N78    C1074   1.294   .     D
C1074  C1075   1.464   .     S
C1074  H668    1.140   .     S
C1075  C1076   1.399   .     D
C1075  C1080   1.398   .     S
C1076  H669    1.140   .     S
C1076  C1077   1.401   .     S
C1077  C1078   1.405   .     D
C1077  H670    1.140   .     S
C1078  C1079   1.401   .     S
C1079  H671    1.140   .     S
C1079  C1080   1.384   .     D
C1080  H672    1.140   .     S
C1081  H673    1.140   .     S
C1081  C1082   1.395   .     D
C1081  C1149   1.385   .     S
C1082  C1110   1.420   .     S
C1082  C1151   1.424   .     S
C1083  C1101   1.403   .     D
C1083  C930    1.406   1_545 S
C1083  C1150   1.421   1_545 S
C1084  C1089   1.405   .     S
C1084  C1085   1.409   .     D
C1085  H674    1.140   .     S
C1085  C1086   1.403   .     S
C1086  H675    1.140   .     S
C1086  C1087   1.401   .     D
C1087  C1088   1.401   .     S
C1087  N79     1.436   .     S
C1088  H676    1.140   .     S
C1088  C1089   1.393   .     D
C1089  H677    1.140   .     S
N79    C1090   1.299   .     D
C1090  C1091   1.469   .     S
C1090  H678    1.140   .     S
C1091  C1096   1.402   .     S
C1091  C1092   1.397   .     D
C1092  C1093   1.397   .     S
C1092  H679    1.140   .     S
C1093  H680    1.140   .     S
C1093  C1094   1.402   .     D
C1094  C1095   1.406   .     S
C1095  H681    1.140   .     S
C1095  C1096   1.400   .     D
C1096  H682    1.140   .     S
C1097  H683    1.140   .     S
C1098  C1135   1.400   .     S
C1098  H684    1.140   .     S
C1099  H685    1.140   .     S
C1100  C1236   1.393   .     S
C1100  H686    1.140   .     S
C1101  H687    1.140   .     S
C1102  H688    1.140   .     S
C1103  C1325   1.424   .     S
C1104  H689    1.140   .     S
C1104  C1105   1.388   .     D
C1105  H690    1.140   .     S
C1106  C1440   1.419   .     S
C1106  C1107   1.425   .     D
C1107  C1631   1.420   .     S
C1108  C1109   1.415   .     S
C1108  C1509   1.403   .     D
C1109  C1555   1.410   .     S
C1110  C928    1.411   1_565 S
C1110  C1332   1.430   1_565 D
H558   C898    1.140   1_565 S
H569   C916    1.140   1_554 S
H573   C922    1.140   1_656 S
H594   C956    1.140   1_556 S
H637   C1024   1.140   1_565 S
H642   C1032   1.140   1_455 S
H643   C1033   1.140   1_455 S
C1111  C1112   1.402   .     S
C1111  C1553   1.410   .     D
C1112  H691    1.140   .     S
C1113  C1114   1.471   .     S
C1113  C1319   1.398   .     D
C1114  C1119   1.399   .     S
C1114  C1115   1.400   .     D
C1115  C1116   1.398   .     S
C1115  H692    1.140   .     S
C1116  H693    1.140   .     S
C1116  C1117   1.398   .     D
C1117  N81     1.433   .     S
C1117  C1118   1.404   .     S
C1118  H694    1.140   .     S
C1118  C1119   1.395   .     D
C1119  H695    1.140   .     S
N81    C1120   1.303   .     D
C1120  C1121   1.472   .     S
C1120  H696    1.140   1_565 S
C1121  C1122   1.396   .     D
C1121  C1126   1.402   .     S
C1122  C1123   1.397   .     S
C1122  H697    1.140   .     S
C1123  H698    1.140   .     S
C1123  C1124   1.406   .     D
C1124  C1125   1.403   .     S
C1124  C1127   1.482   .     S
C1125  H699    1.140   .     S
C1125  C1126   1.396   .     D
C1126  H700    1.140   .     S
C1127  C1128   1.401   .     D
C1127  C1132   1.405   .     S
C1128  H701    1.140   .     S
C1128  C1129   1.394   .     S
C1129  C1130   1.404   .     D
C1129  H702    1.140   1_655 S
C1130  N84     1.443   .     S
C1130  C1131   1.402   .     S
C1131  C1132   1.398   .     D
C1131  H703    1.140   .     S
C1132  H704    1.140   .     S
C1133  C1134   1.399   .     S
C1134  H705    1.140   .     S
C1135  C1136   1.495   .     S
C1136  C1141   1.405   .     D
C1136  C1137   1.406   .     S
C1137  C1138   1.397   .     D
C1137  H706    1.140   .     S
C1138  C1139   1.397   .     S
C1138  H707    1.140   1_556 S
C1139  C1140   1.405   .     D
C1139  N82     1.435   1_556 S
C1140  C1141   1.401   .     S
C1140  H708    1.140   .     S
C1141  H709    1.140   .     S
N82    C1139   1.435   1_554 S
N82    C1142   1.298   1_554 D
C1142  H710    1.140   .     S
C1142  N82     1.298   1_556 D
C1142  C1143   1.471   1_556 S
C1143  C1144   1.398   .     S
C1143  C1148   1.401   .     D
C1143  C1142   1.471   1_554 S
C1144  C1145   1.400   .     D
C1144  H711    1.140   1_554 S
C1145  H712    1.140   .     S
C1145  C1146   1.407   .     S
C1146  C1147   1.406   .     D
C1147  C1148   1.398   .     S
C1147  H713    1.140   .     S
C1148  H714    1.140   .     S
C1149  H715    1.140   .     S
C1149  C1150   1.402   .     D
C1150  C1083   1.421   1_565 S
C1150  C1332   1.411   1_565 S
C1151  C1323   1.404   .     D
C1151  C1306   1.505   .     S
C1152  C1157   1.406   .     D
C1152  C1153   1.404   1_545 S
C1152  C1305   1.406   1_545 S
C1153  H716    1.140   .     S
C1153  C1152   1.404   1_565 S
C1153  C1154   1.399   1_565 D
C1154  C1155   1.405   .     S
C1154  H717    1.140   .     S
C1154  C1153   1.399   1_545 D
C1155  N83     1.427   .     S
C1155  C1156   1.393   .     D
C1156  H718    1.140   .     S
C1156  C1157   1.391   .     S
C1157  H719    1.140   .     S
N83    C1158   1.295   .     D
C1158  H720    1.140   .     S
C1158  C1159   1.462   .     S
C1159  C1160   1.398   .     D
C1159  C1164   1.397   .     S
C1160  H721    1.140   .     S
C1160  C1161   1.392   .     S
C1161  C1162   1.403   .     D
C1161  H722    1.140   .     S
C1162  C1165   1.481   .     S
C1162  C1163   1.407   .     S
C1163  C1164   1.397   .     D
C1163  H723    1.140   .     S
C1164  H724    1.140   .     S
C1165  C1166   1.405   .     D
C1165  C1170   1.401   .     S
C1166  C1167   1.394   .     S
C1166  H725    1.140   .     S
C1167  C1168   1.405   .     D
C1167  H726    1.140   .     S
C1168  C1169   1.407   .     S
C1168  N52     1.373   1_455 S
C1169  C1170   1.392   .     D
C1169  H727    1.140   .     S
C1170  H728    1.140   .     S
N84    C724    1.373   1_655 S
C1171  C1172   1.400   .     S
C1172  H729    1.140   .     S
C1173  C1174   1.483   .     S
C1174  C1179   1.400   .     S
C1174  C1175   1.405   1_556 D
C1175  H730    1.140   .     S
C1175  C1176   1.400   .     S
C1175  C1174   1.405   1_554 D
C1176  H731    1.140   .     S
C1176  C1177   1.400   .     D
C1177  C1178   1.400   .     S
C1177  N85     1.429   .     S
C1178  C1179   1.387   1_554 D
C1178  H732    1.140   1_554 S
C1179  H733    1.140   .     S
C1179  C1178   1.387   1_556 D
N85    C1180   1.296   .     D
C1180  C1181   1.456   .     S
C1180  H734    1.140   .     S
C1181  C1182   1.394   .     D
C1181  C1186   1.399   .     S
C1182  H735    1.140   .     S
C1182  C1183   1.393   .     S
C1183  H736    1.140   .     S
C1183  C1184   1.404   .     D
C1184  N88     1.448   .     S
C1184  C1185   1.407   .     S
C1185  H737    1.140   .     S
C1185  C1186   1.395   .     D
C1186  H738    1.140   .     S
C1187  C1188   1.399   .     S
C1187  C1551   1.420   .     D
C1188  H739    1.140   .     S
C1189  C1190   1.498   .     S
C1190  C1195   1.406   .     D
C1190  C1191   1.407   .     S
C1191  C1192   1.399   .     D
C1191  H740    1.140   .     S
C1192  C1193   1.397   .     S
C1192  H741    1.140   .     S
C1193  C1194   1.405   .     D
C1193  N86     1.435   .     S
C1194  C1195   1.400   .     S
C1194  H742    1.140   .     S
C1195  H743    1.140   .     S
N86    C1196   1.298   .     D
C1196  C1197   1.472   .     S
C1196  H744    1.140   .     S
C1197  C1198   1.398   .     D
C1197  C1202   1.403   .     S
C1198  C1199   1.399   .     S
C1198  H745    1.140   .     S
C1199  H746    1.140   .     S
C1199  C1200   1.406   .     D
C1200  C1201   1.405   .     S
C1200  N96     1.449   .     S
C1201  C1202   1.401   .     D
C1201  H747    1.140   .     S
C1202  H748    1.140   .     S
C1204  C1258   1.507   .     S
C1205  C1210   1.399   .     D
C1205  C1257   1.477   .     S
C1205  C1206   1.475   .     S
C1206  H749    1.140   .     S
C1206  C1207   1.390   .     D
C1207  H750    1.140   .     S
C1207  C1208   1.405   .     S
C1208  C1209   1.397   .     D
C1208  N87     1.427   .     S
C1209  H751    1.140   .     S
C1209  C1210   1.393   .     S
C1210  H752    1.140   .     S
N87    C1211   1.293   .     D
C1211  H753    1.140   .     S
C1211  C1212   1.458   .     S
C1212  C1213   1.402   .     D
C1212  C1217   1.392   .     S
C1213  H754    1.140   .     S
C1213  C1214   1.396   .     S
C1214  H755    1.140   .     S
C1214  C1215   1.404   .     D
C1215  C1216   1.406   .     S
C1216  C1217   1.392   .     D
C1216  H756    1.140   .     S
C1217  H757    1.140   .     S
N88    C1300   1.444   .     S
C1218  C1219   1.400   .     S
C1218  C1772   1.419   .     D
C1219  H758    1.140   .     S
C1220  C1221   1.500   .     S
C1220  C1321   1.400   .     D
C1221  C1226   1.407   .     D
C1221  C1222   1.406   .     S
C1222  H759    1.140   .     S
C1222  C1223   1.397   .     D
C1223  C1224   1.397   .     S
C1223  H760    1.140   .     S
C1224  N89     1.436   .     S
C1224  C1225   1.405   .     D
C1225  H761    1.140   .     S
C1225  C1226   1.404   .     S
C1226  H762    1.140   .     S
N89    C1227   1.299   .     D
C1227  H763    1.140   .     S
C1227  C1228   1.475   .     S
C1228  C1229   1.401   .     D
C1228  C1233   1.401   .     S
C1229  C1230   1.403   1_455 S
C1229  H764    1.140   1_455 S
C1230  H765    1.140   .     S
C1230  C1231   1.407   .     D
C1230  C1229   1.403   1_655 S
C1231  N92     1.451   .     S
C1231  C1232   1.405   1_655 S
C1232  C1233   1.397   .     D
C1232  H766    1.140   .     S
C1232  C1231   1.405   1_455 S
C1233  H767    1.140   .     S
C1234  C1235   1.400   .     S
C1235  H768    1.140   .     S
C1236  C1237   1.471   .     S
C1237  C1242   1.400   .     D
C1237  C1238   1.400   .     S
C1238  H769    1.140   .     S
C1238  C1239   1.397   .     D
C1239  C1240   1.399   .     S
C1239  H770    1.140   .     S
C1240  N90     1.427   .     S
C1240  C1241   1.403   .     D
C1241  C1242   1.391   .     S
C1241  H771    1.140   .     S
C1242  H772    1.140   .     S
N90    C1243   1.295   .     D
C1243  C1244   1.459   .     S
C1243  H773    1.140   .     S
C1244  C1249   1.398   .     D
C1244  C1245   1.401   .     S
C1245  H774    1.140   .     S
C1245  C1246   1.391   .     D
C1246  C1247   1.401   .     S
C1246  H775    1.140   1_565 S
C1247  C1248   1.404   .     D
C1247  C1250   1.471   1_565 S
C1248  H776    1.140   .     S
C1248  C1249   1.397   .     S
C1249  H777    1.140   .     S
C1250  C1255   1.398   .     S
C1250  C1251   1.404   .     D
C1250  C1247   1.471   1_545 S
C1251  C1252   1.396   .     S
C1251  H778    1.140   .     S
C1252  H779    1.140   .     S
C1252  C1253   1.401   .     D
C1253  C1254   1.403   .     S
C1254  H780    1.140   .     S
C1254  C1255   1.390   .     D
C1255  H781    1.140   .     S
C1258  C1259   1.407   .     S
C1258  C1263   1.407   .     D
C1259  C1260   1.398   .     D
C1259  H782    1.140   .     S
C1260  C1261   1.404   .     S
C1260  H783    1.140   .     S
C1261  C1262   1.398   .     D
C1261  N91     1.439   .     S
C1262  C1263   1.402   .     S
C1262  H784    1.140   .     S
C1263  H785    1.140   .     S
N91    C1264   1.298   .     D
C1264  H786    1.140   .     S
C1264  C1265   1.472   .     S
C1265  C1266   1.404   .     S
C1265  C1270   1.398   .     D
C1266  C1267   1.404   .     D
C1266  H787    1.140   .     S
C1267  C1268   1.405   .     S
C1267  H788    1.140   .     S
C1268  C1269   1.403   .     D
C1269  C1270   1.397   .     S
C1269  H789    1.140   .     S
C1270  H790    1.140   .     S
N92    C924    1.453   1_655 S
C1271  C1272   1.400   .     S
C1272  H791    1.140   .     S
C1273  C1274   1.496   .     S
C1274  C1279   1.407   .     S
C1274  C1275   1.405   .     D
C1275  C1276   1.396   .     S
C1275  H792    1.140   .     S
C1276  C1277   1.397   .     D
C1276  H793    1.140   .     S
C1277  N93     1.435   .     S
C1277  C1278   1.406   .     S
C1278  C1279   1.403   .     D
C1278  H794    1.140   .     S
C1279  H795    1.140   .     S
N93    C1280   1.298   .     D
C1280  H796    1.140   .     S
C1280  C1281   1.474   .     S
C1281  C1286   1.402   .     S
C1281  C1282   1.398   .     D
C1282  C1283   1.401   .     S
C1282  H797    1.140   .     S
C1283  H798    1.140   .     S
C1283  C1284   1.406   .     D
C1284  N96     1.451   .     S
C1284  C1285   1.406   .     S
C1285  H799    1.140   .     S
C1285  C1286   1.399   .     D
C1286  H800    1.140   .     S
C1287  C1288   1.400   .     S
C1287  C1774   1.403   .     S
C1288  H801    1.140   .     S
C1289  C1290   1.481   .     S
C1290  C1295   1.406   .     S
C1290  C1291   1.400   .     D
C1291  C1292   1.387   .     S
C1291  H802    1.140   .     S
C1292  H803    1.140   .     S
C1292  C1293   1.392   .     D
C1293  N94     1.422   .     S
C1293  C1294   1.404   .     S
C1294  C1295   1.401   .     D
C1294  H804    1.140   .     S
C1295  H805    1.140   .     S
N94    C1296   1.294   .     D
C1296  C1297   1.464   .     S
C1296  H806    1.140   .     S
C1297  C1298   1.399   .     D
C1297  C1302   1.398   .     S
C1298  H807    1.140   .     S
C1298  C1299   1.401   .     S
C1299  C1300   1.405   .     D
C1299  H808    1.140   .     S
C1300  C1301   1.401   .     S
C1301  H809    1.140   .     S
C1301  C1302   1.384   .     D
C1302  H810    1.140   .     S
C1303  C1304   1.395   .     S
C1303  H811    1.140   .     S
C1304  C1332   1.420   .     S
C1305  C1323   1.403   .     S
C1305  C928    1.421   1_565 D
C1305  C1152   1.406   1_565 S
C1306  C1311   1.405   .     D
C1306  C1307   1.409   .     S
C1307  H812    1.140   .     S
C1307  C1308   1.403   .     D
C1308  H813    1.140   .     S
C1308  C1309   1.401   .     S
C1309  C1310   1.401   .     D
C1309  N95     1.436   .     S
C1310  H814    1.140   .     S
C1310  C1311   1.393   .     S
C1311  H815    1.140   .     S
N95    C1312   1.299   .     D
C1312  C1313   1.469   .     S
C1312  H816    1.140   .     S
C1313  C1318   1.402   .     S
C1313  C1314   1.397   .     D
C1314  C1315   1.397   .     S
C1314  H817    1.140   .     S
C1315  H818    1.140   .     S
C1315  C1316   1.402   .     D
C1316  C1317   1.406   .     S
C1317  C1318   1.400   .     D
C1317  H819    1.140   .     S
C1318  H820    1.140   .     S
C1319  H821    1.140   .     S
C1320  H822    1.140   .     S
C1321  H823    1.140   .     S
C1322  H824    1.140   .     S
C1323  H825    1.140   .     S
C1324  H826    1.140   .     S
C1326  H827    1.140   .     S
C1326  C1327   1.388   .     D
C1327  H828    1.140   .     S
C1328  C1662   1.419   .     D
C1328  C1329   1.425   .     S
C1329  C1409   1.420   .     S
C1330  C1331   1.415   .     S
C1330  C1731   1.403   .     D
C1331  C1333   1.410   .     S
C1332  C1110   1.430   1_545 D
C1332  C1150   1.411   1_545 S
H696   C1120   1.140   1_545 S
H702   C1129   1.140   1_455 S
H707   C1138   1.140   1_554 S
H711   C1144   1.140   1_556 S
H732   C1178   1.140   1_556 S
H764   C1229   1.140   1_655 S
H775   C1246   1.140   1_545 S
C1333  C1334   1.402   .     S
C1334  H829    1.140   .     S
C1335  C1541   1.398   .     S
C1335  C1336   1.471   .     S
C1336  C1341   1.399   .     D
C1336  C1337   1.400   .     S
C1337  H830    1.140   .     S
C1337  C1338   1.398   .     D
C1338  C1339   1.398   .     S
C1338  H831    1.140   .     S
C1339  C1340   1.404   .     D
C1339  N97     1.433   .     S
C1340  H832    1.140   .     S
C1340  C1341   1.395   .     S
C1341  H833    1.140   .     S
N97    C1342   1.303   .     D
C1342  C1343   1.472   1_554 S
C1342  H834    1.140   1_545 S
C1343  C1344   1.396   .     D
C1343  C1348   1.402   .     S
C1343  C1342   1.472   1_556 S
C1344  C1345   1.397   .     S
C1344  H835    1.140   1_556 S
C1345  H836    1.140   .     S
C1345  C1346   1.406   .     D
C1346  C1347   1.403   .     S
C1346  C1349   1.482   .     S
C1347  H837    1.140   .     S
C1347  C1348   1.396   .     D
C1348  H838    1.140   .     S
C1349  C1350   1.401   .     D
C1349  C1354   1.405   .     S
C1350  H839    1.140   .     S
C1350  C1351   1.394   .     S
C1351  H840    1.140   .     S
C1351  C1352   1.404   .     D
C1352  N100    1.443   .     S
C1352  C1353   1.402   .     S
C1353  H841    1.140   .     S
C1353  C1354   1.398   .     D
C1354  H842    1.140   .     S
C1355  C1356   1.399   .     S
C1356  H843    1.140   .     S
C1357  C1358   1.495   .     S
C1357  C1764   1.400   .     S
C1358  C1363   1.405   .     S
C1358  C1359   1.406   .     D
C1359  H844    1.140   .     S
C1359  C1360   1.397   .     S
C1360  C1361   1.397   .     D
C1360  H845    1.140   .     S
C1361  N98     1.435   .     S
C1361  C1362   1.405   .     S
C1362  H846    1.140   .     S
C1362  C1363   1.401   .     D
C1363  H847    1.140   .     S
N98    C1364   1.298   .     D
C1364  H848    1.140   .     S
C1364  C1365   1.471   .     S
C1365  C1366   1.398   .     S
C1365  C1370   1.401   .     D
C1366  C1367   1.400   1_655 D
C1366  H849    1.140   1_655 S
C1367  H850    1.140   .     S
C1367  C1366   1.400   1_455 D
C1367  C1368   1.407   1_455 S
C1368  C1369   1.406   .     D
C1368  C1367   1.407   1_655 S
C1368  N124    1.453   1_655 S
C1369  C1370   1.398   .     S
C1369  H851    1.140   .     S
C1370  H852    1.140   .     S
C1371  C1372   1.402   .     S
C1371  C1747   1.385   .     D
C1371  H853    1.140   .     S
C1372  C1554   1.411   1_545 D
C1372  C1749   1.421   1_545 S
C1373  C1545   1.404   .     D
C1373  C1748   1.424   .     S
C1373  C1528   1.505   .     S
C1374  C1379   1.406   .     D
C1374  C1375   1.404   1_565 S
C1374  C1527   1.406   1_565 S
C1375  H854    1.140   .     S
C1375  C1374   1.404   1_545 S
C1375  C1376   1.399   1_545 D
C1376  C1377   1.405   .     S
C1376  H855    1.140   .     S
C1376  C1375   1.399   1_565 D
C1377  N99     1.427   .     S
C1377  C1378   1.393   .     D
C1378  C1379   1.391   .     S
C1378  H856    1.140   .     S
C1379  H857    1.140   .     S
N99    C1380   1.295   .     D
C1380  C1381   1.462   .     S
C1380  H858    1.140   .     S
C1381  C1386   1.397   .     D
C1381  C1382   1.398   .     S
C1382  H859    1.140   .     S
C1382  C1383   1.392   .     D
C1383  C1384   1.403   .     S
C1383  H860    1.140   .     S
C1384  C1387   1.481   .     S
C1384  C1385   1.407   .     D
C1385  H861    1.140   .     S
C1385  C1386   1.397   .     S
C1386  H862    1.140   .     S
C1387  C1388   1.405   .     D
C1387  C1392   1.401   .     S
C1388  C1389   1.394   .     S
C1388  H863    1.140   .     S
C1389  C1390   1.405   .     D
C1389  H864    1.140   .     S
C1390  C1391   1.407   .     S
C1391  C1392   1.392   .     D
C1391  H865    1.140   .     S
C1392  H866    1.140   .     S
N100   C1697   1.441   .     S
C1393  C1394   1.400   .     S
C1394  H867    1.140   .     S
C1395  C1396   1.483   .     S
C1396  C1401   1.400   .     D
C1396  C1397   1.405   .     S
C1397  H868    1.140   .     S
C1397  C1398   1.400   .     D
C1398  H869    1.140   .     S
C1398  C1399   1.400   .     S
C1399  C1400   1.400   .     D
C1399  N101    1.429   .     S
C1400  H870    1.140   .     S
C1400  C1401   1.387   .     S
C1401  H871    1.140   .     S
N101   C1402   1.296   .     D
C1402  C1403   1.456   .     S
C1402  H872    1.140   .     S
C1403  C1404   1.394   .     D
C1403  C1408   1.399   .     S
C1404  H873    1.140   .     S
C1404  C1405   1.393   .     S
C1405  H874    1.140   .     S
C1405  C1406   1.404   .     D
C1406  C1407   1.407   .     S
C1406  N104    1.448   .     S
C1407  H875    1.140   .     S
C1407  C1408   1.395   .     D
C1408  H876    1.140   .     S
C1409  C1410   1.399   .     S
C1410  H877    1.140   .     S
C1411  C1412   1.498   .     S
C1412  C1417   1.406   .     S
C1412  C1413   1.407   .     D
C1413  H878    1.140   .     S
C1413  C1414   1.399   .     S
C1414  C1415   1.397   .     D
C1414  H879    1.140   1_554 S
C1415  C1416   1.405   .     S
C1415  N102    1.435   1_554 S
C1416  C1417   1.400   .     D
C1416  H880    1.140   .     S
C1417  H881    1.140   .     S
N102   C1418   1.298   .     D
N102   C1415   1.435   1_556 S
C1418  C1419   1.472   .     S
C1418  H882    1.140   1_556 S
C1419  C1420   1.398   .     D
C1419  C1424   1.403   .     S
C1420  C1421   1.399   .     S
C1420  H883    1.140   1_556 S
C1421  C1422   1.406   .     D
C1421  H884    1.140   .     S
C1422  C1423   1.405   .     S
C1422  N112    1.449   .     S
C1423  C1424   1.401   .     D
C1423  H885    1.140   .     S
C1424  H886    1.140   .     S
C1425  C1701   1.410   .     S
C1426  C1700   1.424   .     S
C1426  C1480   1.507   .     S
C1427  C1432   1.399   .     D
C1427  C1479   1.477   .     S
C1427  C1428   1.475   .     S
C1428  H887    1.140   .     S
C1428  C1429   1.390   .     D
C1429  C1430   1.405   .     S
C1429  H888    1.140   .     S
C1430  N103    1.427   .     S
C1430  C1431   1.397   .     D
C1431  H889    1.140   .     S
C1431  C1432   1.393   .     S
C1432  H890    1.140   .     S
N103   C1433   1.293   .     D
C1433  C1434   1.458   .     S
C1433  H891    1.140   .     S
C1434  C1439   1.392   .     D
C1434  C1435   1.402   .     S
C1435  H892    1.140   .     S
C1435  C1436   1.396   .     D
C1436  C1437   1.404   .     S
C1436  H893    1.140   .     S
C1437  C1438   1.406   .     D
C1438  C1439   1.392   .     S
C1438  H894    1.140   .     S
C1439  H895    1.140   .     S
N104   C1522   1.444   .     S
C1440  C1441   1.400   .     S
C1441  H896    1.140   .     S
C1442  C1543   1.400   .     S
C1442  C1443   1.500   .     S
C1443  C1448   1.407   .     D
C1443  C1444   1.406   .     S
C1444  H897    1.140   .     S
C1444  C1445   1.397   .     D
C1445  C1446   1.397   .     S
C1445  H898    1.140   .     S
C1446  N105    1.436   .     S
C1446  C1447   1.405   .     D
C1447  H899    1.140   .     S
C1447  C1448   1.404   .     S
C1448  H900    1.140   .     S
N105   C1449   1.299   .     D
C1449  H901    1.140   .     S
C1449  C1450   1.475   .     S
C1450  C1451   1.401   .     D
C1450  C1455   1.401   .     S
C1451  C1452   1.403   .     S
C1451  H902    1.140   .     S
C1452  H903    1.140   .     S
C1452  C1453   1.407   .     D
C1453  N108    1.451   .     S
C1453  C1454   1.405   .     S
C1454  C1455   1.397   .     D
C1454  H904    1.140   .     S
C1455  H905    1.140   .     S
C1456  C1457   1.400   .     S
C1457  H906    1.140   .     S
C1458  C1766   1.393   .     D
C1458  C1459   1.471   .     S
C1459  C1464   1.400   .     D
C1459  C1460   1.400   .     S
C1460  C1461   1.397   .     D
C1460  H907    1.140   .     S
C1461  C1462   1.399   .     S
C1461  H908    1.140   .     S
C1462  N106    1.427   .     S
C1462  C1463   1.403   .     D
C1463  C1464   1.391   .     S
C1463  H909    1.140   .     S
C1464  H910    1.140   .     S
N106   C1465   1.295   .     D
C1465  H911    1.140   .     S
C1465  C1466   1.459   .     S
C1466  C1471   1.398   .     D
C1466  C1467   1.401   .     S
C1467  C1468   1.391   .     D
C1467  H912    1.140   .     S
C1468  C1469   1.401   .     S
C1468  H913    1.140   1_545 S
C1469  C1470   1.404   .     D
C1469  C1472   1.471   1_545 S
C1470  H914    1.140   .     S
C1470  C1471   1.397   .     S
C1471  H915    1.140   .     S
C1472  C1477   1.398   .     S
C1472  C1473   1.404   .     D
C1472  C1469   1.471   1_565 S
C1473  C1474   1.396   .     S
C1473  H916    1.140   .     S
C1474  C1475   1.401   .     D
C1474  H917    1.140   .     S
C1475  C1476   1.403   .     S
C1475  N116    1.441   .     S
C1476  C1477   1.390   .     D
C1476  H918    1.140   1_455 S
C1477  H919    1.140   1_455 S
C1478  C1648   1.424   .     D
C1479  C1647   1.410   .     D
C1480  C1481   1.407   .     D
C1480  C1485   1.407   .     S
C1481  H920    1.140   .     S
C1481  C1482   1.398   .     S
C1482  C1483   1.404   .     D
C1482  H921    1.140   .     S
C1483  N107    1.439   .     S
C1483  C1484   1.398   .     S
C1484  H922    1.140   .     S
C1484  C1485   1.402   .     D
C1485  H923    1.140   .     S
N107   C1486   1.298   .     D
C1486  C1487   1.472   .     S
C1486  H924    1.140   .     S
C1487  C1492   1.398   .     S
C1487  C1488   1.404   .     D
C1488  C1489   1.404   .     S
C1488  H925    1.140   .     S
C1489  C1490   1.405   .     D
C1489  H926    1.140   .     S
C1490  C1491   1.403   .     S
C1491  C1492   1.397   .     D
C1491  H927    1.140   .     S
C1492  H928    1.140   .     S
N108   C1590   1.453   .     S
C1493  C1494   1.400   .     S
C1494  H929    1.140   .     S
C1495  C1496   1.496   .     S
C1496  C1501   1.407   .     D
C1496  C1497   1.405   .     S
C1497  H930    1.140   .     S
C1497  C1498   1.396   .     D
C1498  C1499   1.397   .     S
C1498  H931    1.140   .     S
C1499  N109    1.435   .     S
C1499  C1500   1.406   .     D
C1500  H932    1.140   .     S
C1500  C1501   1.403   .     S
C1501  H933    1.140   .     S
N109   C1502   1.298   .     D
C1502  H934    1.140   .     S
C1502  C1503   1.474   .     S
C1503  C1508   1.402   .     D
C1503  C1504   1.398   .     S
C1504  H935    1.140   .     S
C1504  C1505   1.401   .     D
C1505  H936    1.140   .     S
C1505  C1506   1.406   .     S
C1506  N112    1.451   .     S
C1506  C1507   1.406   .     D
C1507  H937    1.140   .     S
C1507  C1508   1.399   .     S
C1508  H938    1.140   .     S
C1509  C1510   1.400   .     S
C1510  H939    1.140   .     S
C1511  C1512   1.481   .     S
C1512  C1517   1.406   .     D
C1512  C1513   1.400   .     S
C1513  C1514   1.387   .     D
C1513  H940    1.140   .     S
C1514  H941    1.140   .     S
C1514  C1515   1.392   .     S
C1515  N110    1.422   .     S
C1515  C1516   1.404   .     D
C1516  H942    1.140   .     S
C1516  C1517   1.401   .     S
C1517  H943    1.140   .     S
N110   C1518   1.294   .     D
C1518  C1519   1.464   .     S
C1518  H944    1.140   .     S
C1519  C1520   1.399   .     D
C1519  C1524   1.398   .     S
C1520  H945    1.140   .     S
C1520  C1521   1.401   .     S
C1521  C1522   1.405   .     D
C1521  H946    1.140   .     S
C1522  C1523   1.401   .     S
C1523  C1524   1.384   .     D
C1523  H947    1.140   .     S
C1524  H948    1.140   .     S
C1525  H949    1.140   .     S
C1525  C1593   1.385   .     D
C1525  C1526   1.395   .     S
C1526  C1554   1.420   .     S
C1526  C1595   1.424   .     D
C1527  C1545   1.403   .     S
C1527  C1374   1.406   1_545 S
C1527  C1594   1.421   1_545 D
C1528  C1533   1.405   .     D
C1528  C1529   1.409   .     S
C1529  H950    1.140   .     S
C1529  C1530   1.403   .     D
C1530  H951    1.140   .     S
C1530  C1531   1.401   .     S
C1531  C1532   1.401   .     D
C1531  N111    1.436   .     S
C1532  H952    1.140   .     S
C1532  C1533   1.393   .     S
C1533  H953    1.140   .     S
N111   C1534   1.299   .     D
C1534  C1535   1.469   .     S
C1534  H954    1.140   .     S
C1535  C1540   1.402   .     S
C1535  C1536   1.397   .     D
C1536  C1537   1.397   .     S
C1536  H955    1.140   .     S
C1537  H956    1.140   .     S
C1537  C1538   1.402   .     D
C1538  C1539   1.406   .     S
C1539  H957    1.140   .     S
C1539  C1540   1.400   .     D
C1540  H958    1.140   .     S
C1541  H959    1.140   .     S
C1542  C1579   1.400   .     D
C1542  H960    1.140   .     S
C1543  H961    1.140   .     S
C1544  C1680   1.393   .     D
C1544  H962    1.140   .     S
C1545  H963    1.140   .     S
C1546  H964    1.140   .     S
C1547  C1769   1.424   .     S
C1548  H965    1.140   .     S
C1548  C1549   1.388   .     D
C1549  H966    1.140   .     S
C1550  C1551   1.425   .     S
C1552  C1553   1.415   .     S
C1554  C1372   1.411   1_565 D
C1554  C1776   1.430   1_565 S
H834   C1342   1.140   1_565 S
H835   C1344   1.140   1_554 S
H849   C1366   1.140   1_455 S
H879   C1414   1.140   1_556 S
H882   C1418   1.140   1_554 S
H883   C1420   1.140   1_554 S
H913   C1468   1.140   1_565 S
H918   C1476   1.140   1_655 S
H919   C1477   1.140   1_655 S
C1555  C1556   1.402   .     S
C1556  H967    1.140   .     S
C1557  C1558   1.471   .     S
C1557  C1763   1.398   .     S
C1558  C1563   1.399   .     D
C1558  C1559   1.400   .     S
C1559  H968    1.140   .     S
C1559  C1560   1.398   .     D
C1560  C1561   1.398   .     S
C1560  H969    1.140   .     S
C1561  N113    1.433   .     S
C1561  C1562   1.404   .     D
C1562  H970    1.140   .     S
C1562  C1563   1.395   .     S
C1563  H971    1.140   .     S
N113   C1564   1.303   .     D
C1564  C1565   1.472   1_554 S
C1564  H972    1.140   1_565 S
C1565  C1566   1.396   .     D
C1565  C1570   1.402   .     S
C1565  C1564   1.472   1_556 S
C1566  C1567   1.397   .     S
C1566  H973    1.140   1_556 S
C1567  H974    1.140   .     S
C1567  C1568   1.406   .     D
C1568  C1571   1.482   .     S
C1568  C1569   1.403   .     S
C1569  H975    1.140   .     S
C1569  C1570   1.396   .     D
C1570  H976    1.140   .     S
C1571  C1572   1.401   .     D
C1571  C1576   1.405   .     S
C1572  H977    1.140   .     S
C1572  C1573   1.394   .     S
C1573  C1574   1.404   .     D
C1573  H978    1.140   1_455 S
C1574  N116    1.443   .     S
C1574  C1575   1.402   .     S
C1575  H979    1.140   .     S
C1575  C1576   1.398   .     D
C1576  H980    1.140   .     S
C1577  C1578   1.399   .     S
C1578  H981    1.140   .     S
C1579  C1580   1.495   .     S
C1580  C1585   1.405   .     D
C1580  C1581   1.406   .     S
C1581  C1582   1.397   .     D
C1581  H982    1.140   .     S
C1582  C1583   1.397   .     S
C1582  H983    1.140   .     S
C1583  N114    1.435   .     S
C1583  C1584   1.405   .     D
C1584  C1585   1.401   .     S
C1584  H984    1.140   .     S
C1585  H985    1.140   .     S
N114   C1586   1.298   .     D
C1586  H986    1.140   .     S
C1586  C1587   1.471   .     S
C1587  C1588   1.398   .     D
C1587  C1592   1.401   .     S
C1588  C1589   1.400   .     S
C1588  H987    1.140   .     S
C1589  H988    1.140   .     S
C1589  C1590   1.407   .     D
C1590  C1591   1.406   .     S
C1591  C1592   1.398   .     D
C1591  H989    1.140   .     S
C1592  H990    1.140   .     S
C1593  H991    1.140   .     S
C1593  C1594   1.402   .     S
C1594  C1527   1.421   1_565 D
C1594  C1776   1.411   1_565 S
C1595  C1767   1.404   .     S
C1595  C1750   1.505   .     S
C1596  C1601   1.406   .     D
C1596  C1597   1.404   1_545 S
C1596  C1749   1.406   1_545 S
C1597  H992    1.140   .     S
C1597  C1596   1.404   1_565 S
C1597  C1598   1.399   1_565 D
C1598  C1599   1.405   .     S
C1598  H993    1.140   .     S
C1598  C1597   1.399   1_545 D
C1599  N115    1.427   .     S
C1599  C1600   1.393   .     D
C1600  H994    1.140   .     S
C1600  C1601   1.391   .     S
C1601  H995    1.140   .     S
N115   C1602   1.295   .     D
C1602  H996    1.140   .     S
C1602  C1603   1.462   .     S
C1603  C1608   1.397   .     D
C1603  C1604   1.398   .     S
C1604  H997    1.140   .     S
C1604  C1605   1.392   .     D
C1605  C1606   1.403   .     S
C1605  H998    1.140   .     S
C1606  C1609   1.481   .     S
C1606  C1607   1.407   .     D
C1607  H999    1.140   .     S
C1607  C1608   1.397   .     S
C1608  H1000   1.140   .     S
C1609  C1610   1.405   .     D
C1609  C1614   1.401   .     S
C1610  C1611   1.394   .     S
C1610  H1001   1.140   .     S
C1611  C1612   1.405   .     D
C1611  H1002   1.140   .     S
C1612  C1613   1.407   .     S
C1612  N20     1.373   1_655 S
C1613  C1614   1.392   .     D
C1613  H1003   1.140   .     S
C1614  H1004   1.140   .     S
N116   C280    1.373   1_455 S
C1615  C1616   1.400   .     S
C1616  H1005   1.140   .     S
C1617  C1618   1.483   .     S
C1618  C1623   1.400   .     D
C1618  C1619   1.405   .     S
C1619  H1006   1.140   .     S
C1619  C1620   1.400   .     D
C1620  H1007   1.140   .     S
C1620  C1621   1.400   .     S
C1621  C1622   1.400   .     D
C1621  N117    1.429   .     S
C1622  H1008   1.140   .     S
C1622  C1623   1.387   .     S
C1623  H1009   1.140   .     S
N117   C1624   1.296   .     D
C1624  C1625   1.456   .     S
C1624  H1010   1.140   .     S
C1625  C1626   1.394   .     D
C1625  C1630   1.399   .     S
C1626  H1011   1.140   .     S
C1626  C1627   1.393   .     S
C1627  H1012   1.140   .     S
C1627  C1628   1.404   .     D
C1628  C1629   1.407   .     S
C1628  N120    1.448   .     S
C1629  H1013   1.140   .     S
C1629  C1630   1.395   .     D
C1630  H1014   1.140   .     S
C1631  C1632   1.399   .     D
C1632  H1015   1.140   .     S
C1633  C1634   1.498   .     S
C1634  C1639   1.406   .     D
C1634  C1635   1.407   .     S
C1635  C1636   1.399   .     D
C1635  H1016   1.140   .     S
C1636  C1637   1.397   .     S
C1636  H1017   1.140   1_554 S
C1637  C1638   1.405   .     D
C1637  N118    1.435   1_554 S
C1638  H1018   1.140   .     S
C1638  C1639   1.400   .     S
C1639  H1019   1.140   .     S
N118   C1640   1.298   .     D
N118   C1637   1.435   1_556 S
C1640  C1641   1.472   .     S
C1640  H1020   1.140   1_556 S
C1641  C1642   1.398   .     D
C1641  C1646   1.403   .     S
C1642  C1643   1.399   .     S
C1642  H1021   1.140   1_556 S
C1643  C1644   1.406   .     D
C1643  H1022   1.140   .     S
C1644  C1645   1.405   .     S
C1644  N128    1.449   .     S
C1645  C1646   1.401   .     D
C1645  H1023   1.140   .     S
C1646  H1024   1.140   .     S
C1648  C1702   1.507   .     S
C1649  C1654   1.399   .     D
C1649  C1701   1.477   .     S
C1649  C1650   1.475   .     S
C1650  H1025   1.140   .     S
C1650  C1651   1.390   .     D
C1651  C1652   1.405   .     S
C1651  H1026   1.140   .     S
C1652  N119    1.427   .     S
C1652  C1653   1.397   .     D
C1653  H1027   1.140   .     S
C1653  C1654   1.393   .     S
C1654  H1028   1.140   .     S
N119   C1655   1.293   .     D
C1655  H1029   1.140   .     S
C1655  C1656   1.458   .     S
C1656  C1661   1.392   .     D
C1656  C1657   1.402   .     S
C1657  H1030   1.140   .     S
C1657  C1658   1.396   .     D
C1658  C1659   1.404   .     S
C1658  H1031   1.140   .     S
C1659  C1660   1.406   .     D
C1660  C1661   1.392   .     S
C1660  H1032   1.140   .     S
C1661  H1033   1.140   .     S
N120   C1744   1.444   .     S
C1662  C1663   1.400   .     S
C1663  H1034   1.140   .     S
C1664  C1665   1.500   .     S
C1664  C1765   1.400   .     D
C1665  C1670   1.407   .     D
C1665  C1666   1.406   .     S
C1666  H1035   1.140   .     S
C1666  C1667   1.397   .     D
C1667  C1668   1.397   .     S
C1667  H1036   1.140   .     S
C1668  N121    1.436   .     S
C1668  C1669   1.405   .     D
C1669  H1037   1.140   .     S
C1669  C1670   1.404   .     S
C1670  H1038   1.140   .     S
N121   C1671   1.299   .     D
C1671  H1039   1.140   .     S
C1671  C1672   1.475   .     S
C1672  C1673   1.401   .     D
C1672  C1677   1.401   .     S
C1673  C1674   1.403   1_655 S
C1673  H1040   1.140   1_655 S
C1674  H1041   1.140   .     S
C1674  C1675   1.407   .     D
C1674  C1673   1.403   1_455 S
C1675  N124    1.451   .     S
C1675  C1676   1.405   1_455 S
C1676  C1677   1.397   .     D
C1676  H1042   1.140   .     S
C1676  C1675   1.405   1_655 S
C1677  H1043   1.140   .     S
C1678  C1679   1.400   .     S
C1679  H1044   1.140   .     S
C1680  C1681   1.471   .     S
C1681  C1686   1.400   .     D
C1681  C1682   1.400   .     S
C1682  H1045   1.140   .     S
C1682  C1683   1.397   .     D
C1683  C1684   1.399   .     S
C1683  H1046   1.140   .     S
C1684  N122    1.427   .     S
C1684  C1685   1.403   .     D
C1685  C1686   1.391   .     S
C1685  H1047   1.140   .     S
C1686  H1048   1.140   .     S
N122   C1687   1.295   .     D
C1687  C1688   1.459   .     S
C1687  H1049   1.140   .     S
C1688  C1693   1.398   .     D
C1688  C1689   1.401   .     S
C1689  C1690   1.391   .     D
C1689  H1050   1.140   .     S
C1690  C1691   1.401   .     S
C1690  H1051   1.140   1_565 S
C1691  C1692   1.404   .     D
C1691  C1694   1.471   1_565 S
C1692  H1052   1.140   .     S
C1692  C1693   1.397   .     S
C1693  H1053   1.140   .     S
C1694  C1699   1.398   .     S
C1694  C1695   1.404   .     D
C1694  C1691   1.471   1_545 S
C1695  C1696   1.396   .     S
C1695  H1054   1.140   .     S
C1696  H1055   1.140   .     S
C1696  C1697   1.401   .     D
C1697  C1698   1.403   .     S
C1698  H1056   1.140   .     S
C1698  C1699   1.390   .     D
C1699  H1057   1.140   .     S
C1702  C1703   1.407   .     S
C1702  C1707   1.407   .     D
C1703  C1704   1.398   .     D
C1703  H1058   1.140   .     S
C1704  C1705   1.404   .     S
C1704  H1059   1.140   .     S
C1705  N123    1.439   .     S
C1705  C1706   1.398   .     D
C1706  C1707   1.402   .     S
C1706  H1060   1.140   .     S
C1707  H1061   1.140   .     S
N123   C1708   1.298   .     D
C1708  H1062   1.140   .     S
C1708  C1709   1.472   .     S
C1709  C1714   1.398   .     S
C1709  C1710   1.404   .     D
C1710  C1711   1.404   .     S
C1710  H1063   1.140   .     S
C1711  C1712   1.405   .     D
C1711  H1064   1.140   .     S
C1712  C1713   1.403   .     S
C1713  C1714   1.397   .     D
C1713  H1065   1.140   .     S
C1714  H1066   1.140   .     S
N124   C1368   1.453   1_455 S
C1715  C1716   1.400   .     D
C1716  H1067   1.140   .     S
C1717  C1718   1.496   .     S
C1718  C1723   1.407   .     S
C1718  C1719   1.405   .     D
C1719  C1720   1.396   .     S
C1719  H1068   1.140   .     S
C1720  C1721   1.397   .     D
C1720  H1069   1.140   .     S
C1721  N125    1.435   .     S
C1721  C1722   1.406   .     S
C1722  C1723   1.403   .     D
C1722  H1070   1.140   .     S
C1723  H1071   1.140   .     S
N125   C1724   1.298   .     D
C1724  H1072   1.140   .     S
C1724  C1725   1.474   .     S
C1725  C1730   1.402   .     S
C1725  C1726   1.398   .     D
C1726  H1073   1.140   .     S
C1726  C1727   1.401   .     S
C1727  H1074   1.140   .     S
C1727  C1728   1.406   .     D
C1728  N128    1.451   .     S
C1728  C1729   1.406   .     S
C1729  H1075   1.140   .     S
C1729  C1730   1.399   .     D
C1730  H1076   1.140   .     S
C1731  C1732   1.400   .     S
C1732  H1077   1.140   .     S
C1733  C1734   1.481   .     S
C1734  C1739   1.406   .     D
C1734  C1735   1.400   .     S
C1735  C1736   1.387   .     D
C1735  H1078   1.140   .     S
C1736  H1079   1.140   .     S
C1736  C1737   1.392   .     S
C1737  N126    1.422   .     S
C1737  C1738   1.404   .     D
C1738  H1080   1.140   .     S
C1738  C1739   1.401   .     S
C1739  H1081   1.140   .     S
N126   C1740   1.294   .     D
C1740  C1741   1.464   .     S
C1740  H1082   1.140   .     S
C1741  C1742   1.399   .     D
C1741  C1746   1.398   .     S
C1742  H1083   1.140   .     S
C1742  C1743   1.401   .     S
C1743  C1744   1.405   .     D
C1743  H1084   1.140   .     S
C1744  C1745   1.401   .     S
C1745  C1746   1.384   .     D
C1745  H1085   1.140   .     S
C1746  H1086   1.140   .     S
C1747  C1748   1.395   .     S
C1747  H1087   1.140   .     S
C1748  C1776   1.420   .     D
C1749  C1767   1.403   .     D
C1749  C1372   1.421   1_565 S
C1749  C1596   1.406   1_565 S
C1750  C1755   1.405   .     S
C1750  C1751   1.409   .     D
C1751  H1088   1.140   .     S
C1751  C1752   1.403   .     S
C1752  H1089   1.140   .     S
C1752  C1753   1.401   .     D
C1753  C1754   1.401   .     S
C1753  N127    1.436   .     S
C1754  H1090   1.140   .     S
C1754  C1755   1.393   .     D
C1755  H1091   1.140   .     S
N127   C1756   1.299   .     D
C1756  C1757   1.469   .     S
C1756  H1092   1.140   .     S
C1757  C1762   1.402   .     S
C1757  C1758   1.397   .     D
C1758  C1759   1.397   .     S
C1758  H1093   1.140   .     S
C1759  H1094   1.140   .     S
C1759  C1760   1.402   .     D
C1760  C1761   1.406   .     S
C1761  C1762   1.400   .     D
C1761  H1095   1.140   .     S
C1762  H1096   1.140   .     S
C1763  H1097   1.140   .     S
C1764  H1098   1.140   .     S
C1765  H1099   1.140   .     S
C1766  H1100   1.140   .     S
C1767  H1101   1.140   .     S
C1768  H1102   1.140   .     S
C1770  H1103   1.140   .     S
C1770  C1771   1.388   .     D
C1771  H1104   1.140   .     S
C1772  C1773   1.425   .     S
C1774  C1775   1.415   .     S
C1776  C1554   1.430   1_545 S
C1776  C1594   1.411   1_545 S
H972   C1564   1.140   1_545 S
H973   C1566   1.140   1_554 S
H978   C1573   1.140   1_655 S
H1017  C1636   1.140   1_556 S
H1020  C1640   1.140   1_554 S
H1021  C1642   1.140   1_554 S
H1040  C1673   1.140   1_455 S
H1051  C1690   1.140   1_545 S
