data_1119
_audit_creation_date              2023-09-08
_audit_creation_method            'Materials Studio'
_symmetry_space_group_name_H-M    'P1'
_symmetry_Int_Tables_number       1
_symmetry_cell_setting            triclinic
loop_
_symmetry_equiv_pos_as_xyz
  x,y,z
_cell_length_a                    30.2960
_cell_length_b                    7.4310
_cell_length_c                    25.4640
_cell_angle_alpha                 90.0000
_cell_angle_beta                  96.9740
_cell_angle_gamma                 90.0000
loop_
_atom_site_label
_atom_site_type_symbol
_atom_site_fract_x
_atom_site_fract_y
_atom_site_fract_z
_atom_site_U_iso_or_equiv
_atom_site_adp_type
_atom_site_occupancy
C1     C     0.53261   0.51983   0.28335   0.00000  Uiso   1.00
C2     C     0.97555   0.76466   0.28513   0.00000  Uiso   1.00
C3     C     0.92874   0.75720   0.28234   0.00000  Uiso   1.00
C4     C     0.93274   0.50347   0.34209   0.00000  Uiso   1.00
C5     C     0.55761   0.64219   0.25658   0.00000  Uiso   1.00
C6     C     0.00033   0.63726   0.31777   0.00000  Uiso   1.00
C7     C     0.90797   0.63056   0.31104   0.00000  Uiso   1.00
N8     N     0.61571   0.91176   0.36869   0.00000  Uiso   1.00
C9     C     0.53610   0.53198   0.33914   0.00000  Uiso   1.00
C10    C     0.58927   0.77656   0.33939   0.00000  Uiso   1.00
C11    C     0.56458   0.65723   0.36661   0.00000  Uiso   1.00
N12    N     0.90854   0.36497   0.36499   0.00000  Uiso   1.00
C13    C     0.97929   0.50873   0.34617   0.00000  Uiso   1.00
C14    C     0.58648   0.76422   0.28409   0.00000  Uiso   1.00
C15    C     0.22490   0.88491   0.97101   0.00000  Uiso   1.00
C16    C     0.26106   0.80388   0.95035   0.00000  Uiso   1.00
C17    C     0.28621   0.66958   0.97903   0.00000  Uiso   1.00
C18    C     0.31947   0.50538   0.11159   0.00000  Uiso   1.00
C19    C     0.13325   0.91570   0.01812   0.00000  Uiso   1.00
C20    C     0.17672   0.91528   0.04466   0.00000  Uiso   1.00
C21    C     0.18550   0.00209   0.09358   0.00000  Uiso   1.00
C22    C     0.15201   0.09614   0.11438   0.00000  Uiso   1.00
C23    C     0.10937   0.10945   0.08592   0.00000  Uiso   1.00
C24    C     0.09969   0.01330   0.03855   0.00000  Uiso   1.00
C25    C     0.34243   0.37020   0.14123   0.00000  Uiso   1.00
C26    C     0.34688   0.19883   0.11945   0.00000  Uiso   1.00
C27    C     0.32740   0.16335   0.06762   0.00000  Uiso   1.00
C28    C     0.30401   0.29867   0.03813   0.00000  Uiso   1.00
C29    C     0.30009   0.47091   0.05982   0.00000  Uiso   1.00
C30    C     0.07673   0.23467   0.10385   0.00000  Uiso   1.00
C31    C     0.37230   0.06165   0.15167   0.00000  Uiso   1.00
O32    O     0.27161   0.14584   0.40026   0.00000  Uiso   1.00
H33    H     0.90720   0.84264   0.25659   0.00000  Uiso   1.00
H34    H     0.55534   0.63987   0.21383   0.00000  Uiso   1.00
H35    H     0.03620   0.63611   0.32046   0.00000  Uiso   1.00
H36    H     0.87197   0.62603   0.30709   0.00000  Uiso   1.00
H37    H     0.51608   0.45024   0.36210   0.00000  Uiso   1.00
H38    H     0.56597   0.66623   0.40919   0.00000  Uiso   1.00
H39    H     0.99943   0.41263   0.37003   0.00000  Uiso   1.00
H40    H     0.60662   0.84751   0.26174   0.00000  Uiso   1.00
H41    H     0.31686   0.63733   0.12900   0.00000  Uiso   1.00
H42    H     0.12589   0.84564   0.98084   0.00000  Uiso   1.00
H43    H     0.21875   0.00254   0.11477   0.00000  Uiso   1.00
H44    H     0.16004   0.16480   0.15183   0.00000  Uiso   1.00
H45    H     0.06688   0.01992   0.01638   0.00000  Uiso   1.00
H46    H     0.35710   0.40048   0.18109   0.00000  Uiso   1.00
H47    H     0.33009   0.03168   0.05001   0.00000  Uiso   1.00
H48    H     0.28907   0.26950   0.99838   0.00000  Uiso   1.00
H49    H     0.04185   0.22202   0.08914   0.00000  Uiso   1.00
H50    H     0.38333   0.09470   0.19241   0.00000  Uiso   1.00
C51    C     0.30332   0.00396   0.40183   0.00000  Uiso   1.00
H52    H     0.31087   0.97754   0.36101   0.00000  Uiso   1.00
H53    H     0.28948   0.87934   0.41729   0.00000  Uiso   1.00
H54    H     0.33476   0.04137   0.42659   0.00000  Uiso   1.00
C55    C     0.03261   0.01983   0.28335   0.00000  Uiso   1.00
C56    C     0.47555   0.26466   0.28513   0.00000  Uiso   1.00
C57    C     0.42874   0.25720   0.28234   0.00000  Uiso   1.00
C58    C     0.43274   0.00347   0.34209   0.00000  Uiso   1.00
C59    C     0.05761   0.14219   0.25658   0.00000  Uiso   1.00
C60    C     0.50033   0.13726   0.31777   0.00000  Uiso   1.00
C61    C     0.40797   0.13056   0.31104   0.00000  Uiso   1.00
N62    N     0.11571   0.41176   0.36869   0.00000  Uiso   1.00
C63    C     0.03610   0.03198   0.33914   0.00000  Uiso   1.00
C64    C     0.08927   0.27656   0.33939   0.00000  Uiso   1.00
C65    C     0.06458   0.15723   0.36661   0.00000  Uiso   1.00
N66    N     0.40854   0.86497   0.36499   0.00000  Uiso   1.00
C67    C     0.47929   0.00873   0.34617   0.00000  Uiso   1.00
C68    C     0.08648   0.26422   0.28409   0.00000  Uiso   1.00
C69    C     0.72490   0.38491   0.97101   0.00000  Uiso   1.00
C70    C     0.76106   0.30388   0.95035   0.00000  Uiso   1.00
C71    C     0.78621   0.16958   0.97903   0.00000  Uiso   1.00
C72    C     0.81947   0.00538   0.11159   0.00000  Uiso   1.00
C73    C     0.63325   0.41570   0.01812   0.00000  Uiso   1.00
C74    C     0.67672   0.41528   0.04466   0.00000  Uiso   1.00
C75    C     0.68550   0.50209   0.09358   0.00000  Uiso   1.00
C76    C     0.65201   0.59614   0.11438   0.00000  Uiso   1.00
C77    C     0.60937   0.60945   0.08592   0.00000  Uiso   1.00
C78    C     0.59969   0.51330   0.03855   0.00000  Uiso   1.00
C79    C     0.84243   0.87020   0.14123   0.00000  Uiso   1.00
C80    C     0.84688   0.69883   0.11945   0.00000  Uiso   1.00
C81    C     0.82740   0.66335   0.06762   0.00000  Uiso   1.00
C82    C     0.80401   0.79867   0.03813   0.00000  Uiso   1.00
C83    C     0.80009   0.97091   0.05982   0.00000  Uiso   1.00
C84    C     0.57673   0.73467   0.10385   0.00000  Uiso   1.00
C85    C     0.87230   0.56165   0.15167   0.00000  Uiso   1.00
O86    O     0.77161   0.64584   0.40026   0.00000  Uiso   1.00
H87    H     0.40720   0.34264   0.25659   0.00000  Uiso   1.00
H88    H     0.05534   0.13987   0.21383   0.00000  Uiso   1.00
H89    H     0.53620   0.13611   0.32046   0.00000  Uiso   1.00
H90    H     0.37197   0.12603   0.30709   0.00000  Uiso   1.00
H91    H     0.01608   0.95024   0.36210   0.00000  Uiso   1.00
H92    H     0.06597   0.16623   0.40919   0.00000  Uiso   1.00
H93    H     0.49943   0.91263   0.37003   0.00000  Uiso   1.00
H94    H     0.10662   0.34751   0.26174   0.00000  Uiso   1.00
H95    H     0.81686   0.13733   0.12900   0.00000  Uiso   1.00
H96    H     0.62589   0.34564   0.98084   0.00000  Uiso   1.00
H97    H     0.71875   0.50254   0.11477   0.00000  Uiso   1.00
H98    H     0.66004   0.66480   0.15183   0.00000  Uiso   1.00
H99    H     0.56688   0.51992   0.01638   0.00000  Uiso   1.00
H100   H     0.85710   0.90048   0.18109   0.00000  Uiso   1.00
H101   H     0.83009   0.53168   0.05001   0.00000  Uiso   1.00
H102   H     0.78907   0.76950   0.99838   0.00000  Uiso   1.00
H103   H     0.54185   0.72202   0.08914   0.00000  Uiso   1.00
H104   H     0.88333   0.59470   0.19241   0.00000  Uiso   1.00
C105   C     0.80332   0.50396   0.40183   0.00000  Uiso   1.00
H106   H     0.81087   0.47754   0.36101   0.00000  Uiso   1.00
H107   H     0.78948   0.37934   0.41729   0.00000  Uiso   1.00
H108   H     0.83476   0.54137   0.42659   0.00000  Uiso   1.00
C109   C     0.46739   0.51983   0.21665   0.00000  Uiso   1.00
C110   C     0.02445   0.76466   0.21487   0.00000  Uiso   1.00
C111   C     0.07126   0.75720   0.21766   0.00000  Uiso   1.00
C112   C     0.06726   0.50347   0.15791   0.00000  Uiso   1.00
C113   C     0.44239   0.64219   0.24342   0.00000  Uiso   1.00
C114   C     0.99967   0.63726   0.18223   0.00000  Uiso   1.00
C115   C     0.09203   0.63056   0.18896   0.00000  Uiso   1.00
N116   N     0.38429   0.91176   0.13131   0.00000  Uiso   1.00
C117   C     0.46390   0.53198   0.16086   0.00000  Uiso   1.00
C118   C     0.41073   0.77656   0.16061   0.00000  Uiso   1.00
C119   C     0.43542   0.65723   0.13339   0.00000  Uiso   1.00
N120   N     0.09146   0.36497   0.13501   0.00000  Uiso   1.00
C121   C     0.02071   0.50873   0.15383   0.00000  Uiso   1.00
C122   C     0.41352   0.76422   0.21591   0.00000  Uiso   1.00
C123   C     0.77510   0.88491   0.52899   0.00000  Uiso   1.00
C124   C     0.73894   0.80388   0.54965   0.00000  Uiso   1.00
C125   C     0.71379   0.66958   0.52097   0.00000  Uiso   1.00
C126   C     0.68053   0.50538   0.38841   0.00000  Uiso   1.00
C127   C     0.86675   0.91570   0.48188   0.00000  Uiso   1.00
C128   C     0.82328   0.91528   0.45534   0.00000  Uiso   1.00
C129   C     0.81450   0.00209   0.40642   0.00000  Uiso   1.00
C130   C     0.84799   0.09614   0.38562   0.00000  Uiso   1.00
C131   C     0.89063   0.10945   0.41408   0.00000  Uiso   1.00
C132   C     0.90031   0.01330   0.46145   0.00000  Uiso   1.00
C133   C     0.65757   0.37020   0.35877   0.00000  Uiso   1.00
C134   C     0.65312   0.19883   0.38055   0.00000  Uiso   1.00
C135   C     0.67260   0.16335   0.43238   0.00000  Uiso   1.00
C136   C     0.69599   0.29867   0.46187   0.00000  Uiso   1.00
C137   C     0.69991   0.47091   0.44018   0.00000  Uiso   1.00
C138   C     0.92327   0.23467   0.39615   0.00000  Uiso   1.00
C139   C     0.62770   0.06165   0.34833   0.00000  Uiso   1.00
O140   O     0.72839   0.14584   0.09974   0.00000  Uiso   1.00
H141   H     0.09280   0.84264   0.24341   0.00000  Uiso   1.00
H142   H     0.44466   0.63987   0.28617   0.00000  Uiso   1.00
H143   H     0.96380   0.63611   0.17954   0.00000  Uiso   1.00
H144   H     0.12803   0.62603   0.19291   0.00000  Uiso   1.00
H145   H     0.48392   0.45024   0.13790   0.00000  Uiso   1.00
H146   H     0.43403   0.66623   0.09081   0.00000  Uiso   1.00
H147   H     0.00057   0.41263   0.12997   0.00000  Uiso   1.00
H148   H     0.39338   0.84751   0.23826   0.00000  Uiso   1.00
H149   H     0.68314   0.63733   0.37100   0.00000  Uiso   1.00
H150   H     0.87411   0.84564   0.51916   0.00000  Uiso   1.00
H151   H     0.78125   0.00254   0.38523   0.00000  Uiso   1.00
H152   H     0.83996   0.16480   0.34817   0.00000  Uiso   1.00
H153   H     0.93312   0.01992   0.48362   0.00000  Uiso   1.00
H154   H     0.64290   0.40048   0.31891   0.00000  Uiso   1.00
H155   H     0.66991   0.03168   0.44999   0.00000  Uiso   1.00
H156   H     0.71093   0.26950   0.50162   0.00000  Uiso   1.00
H157   H     0.95815   0.22202   0.41086   0.00000  Uiso   1.00
H158   H     0.61667   0.09470   0.30759   0.00000  Uiso   1.00
C159   C     0.69668   0.00396   0.09817   0.00000  Uiso   1.00
H160   H     0.68913   0.97754   0.13899   0.00000  Uiso   1.00
H161   H     0.71052   0.87934   0.08271   0.00000  Uiso   1.00
H162   H     0.66524   0.04137   0.07341   0.00000  Uiso   1.00
C163   C     0.96739   0.01983   0.21665   0.00000  Uiso   1.00
C164   C     0.52445   0.26466   0.21487   0.00000  Uiso   1.00
C165   C     0.57126   0.25720   0.21766   0.00000  Uiso   1.00
C166   C     0.56726   0.00347   0.15791   0.00000  Uiso   1.00
C167   C     0.94239   0.14219   0.24342   0.00000  Uiso   1.00
C168   C     0.49967   0.13726   0.18223   0.00000  Uiso   1.00
C169   C     0.59203   0.13056   0.18896   0.00000  Uiso   1.00
N170   N     0.88429   0.41176   0.13131   0.00000  Uiso   1.00
C171   C     0.96390   0.03198   0.16086   0.00000  Uiso   1.00
C172   C     0.91073   0.27656   0.16061   0.00000  Uiso   1.00
C173   C     0.93542   0.15723   0.13339   0.00000  Uiso   1.00
N174   N     0.59146   0.86497   0.13501   0.00000  Uiso   1.00
C175   C     0.52071   0.00873   0.15383   0.00000  Uiso   1.00
C176   C     0.91352   0.26422   0.21591   0.00000  Uiso   1.00
C177   C     0.27510   0.38491   0.52899   0.00000  Uiso   1.00
C178   C     0.23894   0.30388   0.54965   0.00000  Uiso   1.00
C179   C     0.21379   0.16958   0.52097   0.00000  Uiso   1.00
C180   C     0.18053   0.00538   0.38841   0.00000  Uiso   1.00
C181   C     0.36675   0.41570   0.48188   0.00000  Uiso   1.00
C182   C     0.32328   0.41528   0.45534   0.00000  Uiso   1.00
C183   C     0.31450   0.50209   0.40642   0.00000  Uiso   1.00
C184   C     0.34799   0.59614   0.38562   0.00000  Uiso   1.00
C185   C     0.39063   0.60945   0.41408   0.00000  Uiso   1.00
C186   C     0.40031   0.51330   0.46145   0.00000  Uiso   1.00
C187   C     0.15757   0.87020   0.35877   0.00000  Uiso   1.00
C188   C     0.15312   0.69883   0.38055   0.00000  Uiso   1.00
C189   C     0.17260   0.66335   0.43238   0.00000  Uiso   1.00
C190   C     0.19599   0.79867   0.46187   0.00000  Uiso   1.00
C191   C     0.19991   0.97091   0.44018   0.00000  Uiso   1.00
C192   C     0.42327   0.73467   0.39615   0.00000  Uiso   1.00
C193   C     0.12770   0.56165   0.34833   0.00000  Uiso   1.00
O194   O     0.22839   0.64584   0.09974   0.00000  Uiso   1.00
H195   H     0.59280   0.34264   0.24341   0.00000  Uiso   1.00
H196   H     0.94466   0.13987   0.28617   0.00000  Uiso   1.00
H197   H     0.46380   0.13611   0.17954   0.00000  Uiso   1.00
H198   H     0.62803   0.12603   0.19291   0.00000  Uiso   1.00
H199   H     0.98392   0.95024   0.13790   0.00000  Uiso   1.00
H200   H     0.93403   0.16623   0.09081   0.00000  Uiso   1.00
H201   H     0.50057   0.91263   0.12997   0.00000  Uiso   1.00
H202   H     0.89338   0.34751   0.23826   0.00000  Uiso   1.00
H203   H     0.18314   0.13733   0.37100   0.00000  Uiso   1.00
H204   H     0.37411   0.34564   0.51916   0.00000  Uiso   1.00
H205   H     0.28125   0.50254   0.38523   0.00000  Uiso   1.00
H206   H     0.33996   0.66480   0.34817   0.00000  Uiso   1.00
H207   H     0.43312   0.51992   0.48362   0.00000  Uiso   1.00
H208   H     0.14290   0.90048   0.31891   0.00000  Uiso   1.00
H209   H     0.16991   0.53168   0.44999   0.00000  Uiso   1.00
H210   H     0.21093   0.76950   0.50162   0.00000  Uiso   1.00
H211   H     0.45815   0.72202   0.41086   0.00000  Uiso   1.00
H212   H     0.11667   0.59470   0.30759   0.00000  Uiso   1.00
C213   C     0.19668   0.50396   0.09817   0.00000  Uiso   1.00
H214   H     0.18913   0.47754   0.13899   0.00000  Uiso   1.00
H215   H     0.21052   0.37934   0.08271   0.00000  Uiso   1.00
H216   H     0.16524   0.54137   0.07341   0.00000  Uiso   1.00
C217   C     0.46739   0.48017   0.71665   0.00000  Uiso   1.00
C218   C     0.02445   0.23534   0.71487   0.00000  Uiso   1.00
C219   C     0.07126   0.24280   0.71766   0.00000  Uiso   1.00
C220   C     0.06726   0.49653   0.65791   0.00000  Uiso   1.00
C221   C     0.44239   0.35781   0.74342   0.00000  Uiso   1.00
C222   C     0.99967   0.36274   0.68223   0.00000  Uiso   1.00
C223   C     0.09203   0.36944   0.68896   0.00000  Uiso   1.00
N224   N     0.38429   0.08824   0.63131   0.00000  Uiso   1.00
C225   C     0.46390   0.46802   0.66086   0.00000  Uiso   1.00
C226   C     0.41073   0.22344   0.66061   0.00000  Uiso   1.00
C227   C     0.43542   0.34277   0.63339   0.00000  Uiso   1.00
N228   N     0.09146   0.63503   0.63501   0.00000  Uiso   1.00
C229   C     0.02071   0.49127   0.65383   0.00000  Uiso   1.00
C230   C     0.41352   0.23578   0.71591   0.00000  Uiso   1.00
C231   C     0.77510   0.11509   0.02899   0.00000  Uiso   1.00
C232   C     0.73894   0.19612   0.04965   0.00000  Uiso   1.00
C233   C     0.71379   0.33042   0.02097   0.00000  Uiso   1.00
C234   C     0.68053   0.49462   0.88841   0.00000  Uiso   1.00
C235   C     0.86675   0.08430   0.98188   0.00000  Uiso   1.00
C236   C     0.82328   0.08472   0.95534   0.00000  Uiso   1.00
C237   C     0.81450   0.99791   0.90642   0.00000  Uiso   1.00
C238   C     0.84799   0.90386   0.88562   0.00000  Uiso   1.00
C239   C     0.89063   0.89055   0.91408   0.00000  Uiso   1.00
C240   C     0.90031   0.98670   0.96145   0.00000  Uiso   1.00
C241   C     0.65757   0.62980   0.85877   0.00000  Uiso   1.00
C242   C     0.65312   0.80117   0.88055   0.00000  Uiso   1.00
C243   C     0.67260   0.83665   0.93238   0.00000  Uiso   1.00
C244   C     0.69599   0.70133   0.96187   0.00000  Uiso   1.00
C245   C     0.69991   0.52909   0.94018   0.00000  Uiso   1.00
C246   C     0.92327   0.76533   0.89615   0.00000  Uiso   1.00
C247   C     0.62770   0.93835   0.84833   0.00000  Uiso   1.00
O248   O     0.72839   0.85416   0.59974   0.00000  Uiso   1.00
H249   H     0.09280   0.15736   0.74341   0.00000  Uiso   1.00
H250   H     0.44466   0.36013   0.78617   0.00000  Uiso   1.00
H251   H     0.96380   0.36389   0.67954   0.00000  Uiso   1.00
H252   H     0.12803   0.37397   0.69291   0.00000  Uiso   1.00
H253   H     0.48392   0.54976   0.63790   0.00000  Uiso   1.00
H254   H     0.43403   0.33377   0.59081   0.00000  Uiso   1.00
H255   H     0.00057   0.58737   0.62997   0.00000  Uiso   1.00
H256   H     0.39338   0.15249   0.73826   0.00000  Uiso   1.00
H257   H     0.68314   0.36267   0.87100   0.00000  Uiso   1.00
H258   H     0.87411   0.15436   0.01916   0.00000  Uiso   1.00
H259   H     0.78125   0.99746   0.88523   0.00000  Uiso   1.00
H260   H     0.83996   0.83520   0.84817   0.00000  Uiso   1.00
H261   H     0.93312   0.98008   0.98362   0.00000  Uiso   1.00
H262   H     0.64290   0.59952   0.81891   0.00000  Uiso   1.00
H263   H     0.66991   0.96832   0.94999   0.00000  Uiso   1.00
H264   H     0.71093   0.73050   0.00162   0.00000  Uiso   1.00
H265   H     0.95815   0.77798   0.91086   0.00000  Uiso   1.00
H266   H     0.61667   0.90530   0.80759   0.00000  Uiso   1.00
C267   C     0.69668   0.99604   0.59817   0.00000  Uiso   1.00
H268   H     0.68913   0.02246   0.63899   0.00000  Uiso   1.00
H269   H     0.71052   0.12066   0.58271   0.00000  Uiso   1.00
H270   H     0.66524   0.95863   0.57341   0.00000  Uiso   1.00
C271   C     0.96739   0.98017   0.71665   0.00000  Uiso   1.00
C272   C     0.52445   0.73534   0.71487   0.00000  Uiso   1.00
C273   C     0.57126   0.74280   0.71766   0.00000  Uiso   1.00
C274   C     0.56726   0.99653   0.65791   0.00000  Uiso   1.00
C275   C     0.94239   0.85781   0.74342   0.00000  Uiso   1.00
C276   C     0.49967   0.86274   0.68223   0.00000  Uiso   1.00
C277   C     0.59203   0.86944   0.68896   0.00000  Uiso   1.00
N278   N     0.88429   0.58824   0.63131   0.00000  Uiso   1.00
C279   C     0.96390   0.96802   0.66086   0.00000  Uiso   1.00
C280   C     0.91073   0.72344   0.66061   0.00000  Uiso   1.00
C281   C     0.93542   0.84277   0.63339   0.00000  Uiso   1.00
N282   N     0.59146   0.13503   0.63501   0.00000  Uiso   1.00
C283   C     0.52071   0.99127   0.65383   0.00000  Uiso   1.00
C284   C     0.91352   0.73578   0.71591   0.00000  Uiso   1.00
C285   C     0.27510   0.61509   0.02899   0.00000  Uiso   1.00
C286   C     0.23894   0.69612   0.04965   0.00000  Uiso   1.00
C287   C     0.21379   0.83042   0.02097   0.00000  Uiso   1.00
C288   C     0.18053   0.99462   0.88841   0.00000  Uiso   1.00
C289   C     0.36675   0.58430   0.98188   0.00000  Uiso   1.00
C290   C     0.32328   0.58472   0.95534   0.00000  Uiso   1.00
C291   C     0.31450   0.49791   0.90642   0.00000  Uiso   1.00
C292   C     0.34799   0.40386   0.88562   0.00000  Uiso   1.00
C293   C     0.39063   0.39055   0.91408   0.00000  Uiso   1.00
C294   C     0.40031   0.48670   0.96145   0.00000  Uiso   1.00
C295   C     0.15757   0.12980   0.85877   0.00000  Uiso   1.00
C296   C     0.15312   0.30117   0.88055   0.00000  Uiso   1.00
C297   C     0.17260   0.33665   0.93238   0.00000  Uiso   1.00
C298   C     0.19599   0.20133   0.96187   0.00000  Uiso   1.00
C299   C     0.19991   0.02909   0.94018   0.00000  Uiso   1.00
C300   C     0.42327   0.26533   0.89615   0.00000  Uiso   1.00
C301   C     0.12770   0.43835   0.84833   0.00000  Uiso   1.00
O302   O     0.22839   0.35416   0.59974   0.00000  Uiso   1.00
H303   H     0.59280   0.65736   0.74341   0.00000  Uiso   1.00
H304   H     0.94466   0.86013   0.78617   0.00000  Uiso   1.00
H305   H     0.46380   0.86389   0.67954   0.00000  Uiso   1.00
H306   H     0.62803   0.87397   0.69291   0.00000  Uiso   1.00
H307   H     0.98392   0.04976   0.63790   0.00000  Uiso   1.00
H308   H     0.93403   0.83377   0.59081   0.00000  Uiso   1.00
H309   H     0.50057   0.08737   0.62997   0.00000  Uiso   1.00
H310   H     0.89338   0.65249   0.73826   0.00000  Uiso   1.00
H311   H     0.18314   0.86267   0.87100   0.00000  Uiso   1.00
H312   H     0.37411   0.65436   0.01916   0.00000  Uiso   1.00
H313   H     0.28125   0.49746   0.88523   0.00000  Uiso   1.00
H314   H     0.33996   0.33520   0.84817   0.00000  Uiso   1.00
H315   H     0.43312   0.48008   0.98362   0.00000  Uiso   1.00
H316   H     0.14290   0.09952   0.81891   0.00000  Uiso   1.00
H317   H     0.16991   0.46832   0.94999   0.00000  Uiso   1.00
H318   H     0.21093   0.23050   0.00162   0.00000  Uiso   1.00
H319   H     0.45815   0.27798   0.91086   0.00000  Uiso   1.00
H320   H     0.11667   0.40530   0.80759   0.00000  Uiso   1.00
C321   C     0.19668   0.49604   0.59817   0.00000  Uiso   1.00
H322   H     0.18913   0.52246   0.63899   0.00000  Uiso   1.00
H323   H     0.21052   0.62066   0.58271   0.00000  Uiso   1.00
H324   H     0.16524   0.45863   0.57341   0.00000  Uiso   1.00
C325   C     0.53261   0.48017   0.78335   0.00000  Uiso   1.00
C326   C     0.97555   0.23534   0.78513   0.00000  Uiso   1.00
C327   C     0.92874   0.24280   0.78234   0.00000  Uiso   1.00
C328   C     0.93274   0.49653   0.84209   0.00000  Uiso   1.00
C329   C     0.55761   0.35781   0.75658   0.00000  Uiso   1.00
C330   C     0.00033   0.36274   0.81777   0.00000  Uiso   1.00
C331   C     0.90797   0.36944   0.81104   0.00000  Uiso   1.00
N332   N     0.61571   0.08824   0.86869   0.00000  Uiso   1.00
C333   C     0.53610   0.46802   0.83914   0.00000  Uiso   1.00
C334   C     0.58927   0.22344   0.83939   0.00000  Uiso   1.00
C335   C     0.56458   0.34277   0.86661   0.00000  Uiso   1.00
N336   N     0.90854   0.63503   0.86499   0.00000  Uiso   1.00
C337   C     0.97929   0.49127   0.84617   0.00000  Uiso   1.00
C338   C     0.58648   0.23578   0.78409   0.00000  Uiso   1.00
C339   C     0.22490   0.11509   0.47101   0.00000  Uiso   1.00
C340   C     0.26106   0.19612   0.45035   0.00000  Uiso   1.00
C341   C     0.28621   0.33042   0.47903   0.00000  Uiso   1.00
C342   C     0.31947   0.49462   0.61159   0.00000  Uiso   1.00
C343   C     0.13325   0.08430   0.51812   0.00000  Uiso   1.00
C344   C     0.17672   0.08472   0.54466   0.00000  Uiso   1.00
C345   C     0.18550   0.99791   0.59358   0.00000  Uiso   1.00
C346   C     0.15201   0.90386   0.61438   0.00000  Uiso   1.00
C347   C     0.10937   0.89055   0.58592   0.00000  Uiso   1.00
C348   C     0.09969   0.98670   0.53855   0.00000  Uiso   1.00
C349   C     0.34243   0.62980   0.64123   0.00000  Uiso   1.00
C350   C     0.34688   0.80117   0.61945   0.00000  Uiso   1.00
C351   C     0.32740   0.83665   0.56762   0.00000  Uiso   1.00
C352   C     0.30401   0.70133   0.53813   0.00000  Uiso   1.00
C353   C     0.30009   0.52909   0.55982   0.00000  Uiso   1.00
C354   C     0.07673   0.76533   0.60385   0.00000  Uiso   1.00
C355   C     0.37230   0.93835   0.65167   0.00000  Uiso   1.00
O356   O     0.27161   0.85416   0.90026   0.00000  Uiso   1.00
H357   H     0.90720   0.15736   0.75659   0.00000  Uiso   1.00
H358   H     0.55534   0.36013   0.71383   0.00000  Uiso   1.00
H359   H     0.03620   0.36389   0.82046   0.00000  Uiso   1.00
H360   H     0.87197   0.37397   0.80709   0.00000  Uiso   1.00
H361   H     0.51608   0.54976   0.86210   0.00000  Uiso   1.00
H362   H     0.56597   0.33377   0.90919   0.00000  Uiso   1.00
H363   H     0.99943   0.58737   0.87003   0.00000  Uiso   1.00
H364   H     0.60662   0.15249   0.76174   0.00000  Uiso   1.00
H365   H     0.31686   0.36267   0.62900   0.00000  Uiso   1.00
H366   H     0.12589   0.15436   0.48084   0.00000  Uiso   1.00
H367   H     0.21875   0.99746   0.61477   0.00000  Uiso   1.00
H368   H     0.16004   0.83520   0.65183   0.00000  Uiso   1.00
H369   H     0.06688   0.98008   0.51638   0.00000  Uiso   1.00
H370   H     0.35710   0.59952   0.68109   0.00000  Uiso   1.00
H371   H     0.33009   0.96832   0.55001   0.00000  Uiso   1.00
H372   H     0.28907   0.73050   0.49838   0.00000  Uiso   1.00
H373   H     0.04185   0.77798   0.58914   0.00000  Uiso   1.00
H374   H     0.38333   0.90530   0.69241   0.00000  Uiso   1.00
C375   C     0.30332   0.99604   0.90183   0.00000  Uiso   1.00
H376   H     0.31087   0.02246   0.86101   0.00000  Uiso   1.00
H377   H     0.28948   0.12066   0.91729   0.00000  Uiso   1.00
H378   H     0.33476   0.95863   0.92659   0.00000  Uiso   1.00
C379   C     0.03261   0.98017   0.78335   0.00000  Uiso   1.00
C380   C     0.47555   0.73534   0.78513   0.00000  Uiso   1.00
C381   C     0.42874   0.74280   0.78234   0.00000  Uiso   1.00
C382   C     0.43274   0.99653   0.84209   0.00000  Uiso   1.00
C383   C     0.05761   0.85781   0.75658   0.00000  Uiso   1.00
C384   C     0.50033   0.86274   0.81777   0.00000  Uiso   1.00
C385   C     0.40797   0.86944   0.81104   0.00000  Uiso   1.00
N386   N     0.11571   0.58824   0.86869   0.00000  Uiso   1.00
C387   C     0.03610   0.96802   0.83914   0.00000  Uiso   1.00
C388   C     0.08927   0.72344   0.83939   0.00000  Uiso   1.00
C389   C     0.06458   0.84277   0.86661   0.00000  Uiso   1.00
N390   N     0.40854   0.13503   0.86499   0.00000  Uiso   1.00
C391   C     0.47929   0.99127   0.84617   0.00000  Uiso   1.00
C392   C     0.08648   0.73578   0.78409   0.00000  Uiso   1.00
C393   C     0.72490   0.61509   0.47101   0.00000  Uiso   1.00
C394   C     0.76106   0.69612   0.45035   0.00000  Uiso   1.00
C395   C     0.78621   0.83042   0.47903   0.00000  Uiso   1.00
C396   C     0.81947   0.99462   0.61159   0.00000  Uiso   1.00
C397   C     0.63325   0.58430   0.51812   0.00000  Uiso   1.00
C398   C     0.67672   0.58472   0.54466   0.00000  Uiso   1.00
C399   C     0.68550   0.49791   0.59358   0.00000  Uiso   1.00
C400   C     0.65201   0.40386   0.61438   0.00000  Uiso   1.00
C401   C     0.60937   0.39055   0.58592   0.00000  Uiso   1.00
C402   C     0.59969   0.48670   0.53855   0.00000  Uiso   1.00
C403   C     0.84243   0.12980   0.64123   0.00000  Uiso   1.00
C404   C     0.84688   0.30117   0.61945   0.00000  Uiso   1.00
C405   C     0.82740   0.33665   0.56762   0.00000  Uiso   1.00
C406   C     0.80401   0.20133   0.53813   0.00000  Uiso   1.00
C407   C     0.80009   0.02909   0.55982   0.00000  Uiso   1.00
C408   C     0.57673   0.26533   0.60385   0.00000  Uiso   1.00
C409   C     0.87230   0.43835   0.65167   0.00000  Uiso   1.00
O410   O     0.77161   0.35416   0.90026   0.00000  Uiso   1.00
H411   H     0.40720   0.65736   0.75659   0.00000  Uiso   1.00
H412   H     0.05534   0.86013   0.71383   0.00000  Uiso   1.00
H413   H     0.53620   0.86389   0.82046   0.00000  Uiso   1.00
H414   H     0.37197   0.87397   0.80709   0.00000  Uiso   1.00
H415   H     0.01608   0.04976   0.86210   0.00000  Uiso   1.00
H416   H     0.06597   0.83377   0.90919   0.00000  Uiso   1.00
H417   H     0.49943   0.08737   0.87003   0.00000  Uiso   1.00
H418   H     0.10662   0.65249   0.76174   0.00000  Uiso   1.00
H419   H     0.81686   0.86267   0.62900   0.00000  Uiso   1.00
H420   H     0.62589   0.65436   0.48084   0.00000  Uiso   1.00
H421   H     0.71875   0.49746   0.61477   0.00000  Uiso   1.00
H422   H     0.66004   0.33520   0.65183   0.00000  Uiso   1.00
H423   H     0.56688   0.48008   0.51638   0.00000  Uiso   1.00
H424   H     0.85710   0.09952   0.68109   0.00000  Uiso   1.00
H425   H     0.83009   0.46832   0.55001   0.00000  Uiso   1.00
H426   H     0.78907   0.23050   0.49838   0.00000  Uiso   1.00
H427   H     0.54185   0.27798   0.58914   0.00000  Uiso   1.00
H428   H     0.88333   0.40530   0.69241   0.00000  Uiso   1.00
C429   C     0.80332   0.49604   0.90183   0.00000  Uiso   1.00
H430   H     0.81087   0.52246   0.86101   0.00000  Uiso   1.00
H431   H     0.78948   0.62066   0.91729   0.00000  Uiso   1.00
H432   H     0.83476   0.45863   0.92659   0.00000  Uiso   1.00
C433   C     0.50000   0.39190   0.25000   0.00000  Uiso   1.00
C434   C     0.00000   0.89190   0.25000   0.00000  Uiso   1.00
C435   C     0.50000   0.60810   0.75000   0.00000  Uiso   1.00
C436   C     0.00000   0.10810   0.75000   0.00000  Uiso   1.00
loop_
_geom_bond_atom_site_label_1
_geom_bond_atom_site_label_2
_geom_bond_distance
_geom_bond_site_symmetry_2
_ccdc_geom_bond_type
C1     C5      1.411   .     S
C1     C9      1.415   .     D
C1     C433    1.548   .     S
C2     C3      1.412   .     S
C2     C6      1.414   1_655 D
C2     C434    1.550   1_655 S
C3     C7      1.388   .     D
C3     H33     1.075   .     S
C4     C7      1.391   .     S
C4     N12     1.429   .     S
C4     C13     1.402   .     D
C5     C14     1.389   .     D
C5     H34     1.083   .     S
C6     H35     1.081   .     S
C6     C2      1.414   1_455 D
C6     C13     1.398   1_455 S
C7     H36     1.084   .     S
N8     C10     1.436   .     S
N8     C139    1.299   1_565 D
C9     C11     1.398   .     S
C9     H37     1.079   .     S
C10    C11     1.397   .     D
C10    C14     1.403   .     S
C11    H38     1.082   .     S
N12    C138    1.296   .     D
C13    H39     1.078   .     S
C13    C6      1.398   1_655 S
C14    H40     1.079   .     S
C15    C16     1.407   .     S
C15    C287    1.414   1_556 D
C15    C299    1.481   1_565 S
C16    C17     1.405   .     D
C16    O356    1.403   .     S
C17    C290    1.479   .     S
C17    C285    1.414   1_556 S
C18    C25     1.391   .     S
C18    C29     1.400   .     D
C18    H41     1.083   .     S
C19    C20     1.405   .     S
C19    C24     1.400   1_565 D
C19    H42     1.082   1_554 S
C20    C287    1.479   .     S
C20    C21     1.399   1_565 D
C21    C22     1.389   .     S
C21    H43     1.083   .     S
C21    C20     1.399   1_545 D
C22    C23     1.406   .     D
C22    H44     1.083   .     S
C23    C24     1.402   .     S
C23    C30     1.470   .     S
C24    H45     1.083   .     S
C24    C19     1.400   1_545 D
C25    C26     1.402   .     D
C25    H46     1.081   .     S
C26    C27     1.404   .     S
C26    C31     1.467   .     S
C27    C28     1.396   .     D
C27    H47     1.083   .     S
C28    C29     1.405   .     S
C28    H48     1.079   1_554 S
C29    C285    1.481   .     S
C30    H49     1.082   .     S
C30    N120    1.296   .     D
C31    H50     1.079   .     S
C31    N116    1.299   1_545 D
O32    C51     1.424   .     S
O32    C340    1.403   .     S
H42    C19     1.082   1_556 S
H48    C28     1.079   1_556 S
C51    H54     1.112   .     S
C51    H52     1.109   1_545 S
C51    H53     1.108   1_545 S
H52    C51     1.109   1_565 S
H53    C51     1.108   1_565 S
C55    C59     1.411   .     S
C55    C63     1.415   .     D
C55    C434    1.548   1_545 S
C56    C57     1.412   .     S
C56    C60     1.414   .     D
C56    C433    1.550   .     S
C57    C61     1.388   .     D
C57    H87     1.075   .     S
C58    C61     1.391   .     S
C58    C67     1.402   .     D
C58    N66     1.429   1_545 S
C59    C68     1.389   .     D
C59    H88     1.083   .     S
C60    C67     1.398   .     S
C60    H89     1.081   .     S
C61    H90     1.084   .     S
N62    C64     1.436   .     S
N62    C193    1.299   .     D
C63    C65     1.398   .     S
C63    H91     1.079   1_545 S
C64    C65     1.397   .     D
C64    C68     1.403   .     S
C65    H92     1.082   .     S
N66    C192    1.296   .     D
N66    C58     1.429   1_565 S
C67    H93     1.078   1_545 S
C68    H94     1.079   .     S
C69    C70     1.407   .     S
C69    C245    1.481   .     S
C69    C233    1.414   1_556 D
C70    C71     1.405   .     D
C70    O410    1.403   .     S
C71    C236    1.479   .     S
C71    C231    1.414   1_556 S
C72    H95     1.083   .     S
C72    C79     1.391   1_545 D
C72    C83     1.400   1_545 S
C73    C74     1.405   .     S
C73    C78     1.400   .     D
C73    H96     1.082   1_554 S
C74    C75     1.399   .     D
C74    C233    1.479   .     S
C75    C76     1.389   .     S
C75    H97     1.083   .     S
C76    C77     1.406   .     D
C76    H98     1.083   .     S
C77    C78     1.402   .     S
C77    C84     1.470   .     S
C78    H99     1.083   .     S
C79    C80     1.402   .     S
C79    H100    1.081   .     S
C79    C72     1.391   1_565 D
C80    C81     1.404   .     D
C80    C85     1.467   .     S
C81    C82     1.396   .     S
C81    H101    1.083   .     S
C82    C83     1.405   .     D
C82    H102    1.079   1_554 S
C83    C72     1.400   1_565 S
C83    C231    1.481   1_565 S
C84    H103    1.082   .     S
C84    N174    1.296   .     D
C85    H104    1.079   .     S
C85    N170    1.299   .     D
O86    C105    1.424   .     S
O86    C394    1.403   .     S
H91    C63     1.079   1_565 S
H93    C67     1.078   1_565 S
H96    C73     1.082   1_556 S
H102   C82     1.079   1_556 S
C105   H106    1.109   .     S
C105   H107    1.108   .     S
C105   H108    1.112   .     S
C109   C113    1.411   .     S
C109   C117    1.415   .     D
C109   C433    1.548   .     S
C110   C111    1.412   .     S
C110   C434    1.550   .     S
C110   C114    1.414   1_455 D
C111   C115    1.388   .     D
C111   H141    1.075   .     S
C112   C115    1.391   .     S
C112   N120    1.429   .     S
C112   C121    1.402   .     D
C113   C122    1.389   .     D
C113   H142    1.083   .     S
C114   H143    1.081   .     S
C114   C110    1.414   1_655 D
C114   C121    1.398   1_655 S
C115   H144    1.084   .     S
N116   C118    1.436   .     S
N116   C31     1.299   1_565 D
C117   C119    1.398   .     S
C117   H145    1.079   .     S
C118   C119    1.397   .     D
C118   C122    1.403   .     S
C119   H146    1.082   .     S
C121   H147    1.078   .     S
C121   C114    1.398   1_455 S
C122   H148    1.079   .     S
C123   C124    1.407   .     D
C123   C395    1.414   .     S
C123   C407    1.481   1_565 S
C124   C125    1.405   .     S
C124   O248    1.403   .     S
C125   C393    1.414   .     D
C125   C398    1.479   .     S
C126   C133    1.391   .     S
C126   C137    1.400   .     D
C126   H149    1.083   .     S
C127   C128    1.405   .     S
C127   H150    1.082   .     S
C127   C132    1.400   1_565 D
C128   C395    1.479   .     S
C128   C129    1.399   1_565 D
C129   C130    1.389   .     S
C129   H151    1.083   .     S
C129   C128    1.399   1_545 D
C130   C131    1.406   .     D
C130   H152    1.083   .     S
C131   C132    1.402   .     S
C131   C138    1.470   .     S
C132   H153    1.083   .     S
C132   C127    1.400   1_545 D
C133   C134    1.402   .     D
C133   H154    1.081   .     S
C134   C135    1.404   .     S
C134   C139    1.467   .     S
C135   C136    1.396   .     D
C135   H155    1.083   .     S
C136   C137    1.405   .     S
C136   H156    1.079   .     S
C137   C393    1.481   .     S
C138   H157    1.082   .     S
C139   H158    1.079   .     S
C139   N8      1.299   1_545 D
O140   C159    1.424   .     S
O140   C232    1.403   .     S
C159   H162    1.112   .     S
C159   H160    1.109   1_545 S
C159   H161    1.108   1_545 S
H160   C159    1.109   1_565 S
H161   C159    1.108   1_565 S
C163   C167    1.411   .     S
C163   C171    1.415   .     D
C163   C434    1.548   1_645 S
C164   C165    1.412   .     S
C164   C168    1.414   .     D
C164   C433    1.550   .     S
C165   C169    1.388   .     D
C165   H195    1.075   .     S
C166   C169    1.391   .     S
C166   C175    1.402   .     D
C166   N174    1.429   1_545 S
C167   C176    1.389   .     D
C167   H196    1.083   .     S
C168   C175    1.398   .     S
C168   H197    1.081   .     S
C169   H198    1.084   .     S
N170   C172    1.436   .     S
C171   C173    1.398   .     S
C171   H199    1.079   1_545 S
C172   C173    1.397   .     D
C172   C176    1.403   .     S
C173   H200    1.082   .     S
N174   C166    1.429   1_565 S
C175   H201    1.078   1_545 S
C176   H202    1.079   .     S
C177   C178    1.407   .     S
C177   C341    1.414   .     D
C177   C353    1.481   .     S
C178   C179    1.405   .     D
C178   O302    1.403   .     S
C179   C339    1.414   .     S
C179   C344    1.479   .     S
C180   H203    1.083   .     S
C180   C187    1.391   1_545 D
C180   C191    1.400   1_545 S
C181   C182    1.405   .     S
C181   C186    1.400   .     D
C181   H204    1.082   .     S
C182   C183    1.399   .     D
C182   C341    1.479   .     S
C183   C184    1.389   .     S
C183   H205    1.083   .     S
C184   C185    1.406   .     D
C184   H206    1.083   .     S
C185   C186    1.402   .     S
C185   C192    1.470   .     S
C186   H207    1.083   .     S
C187   C188    1.402   .     S
C187   H208    1.081   .     S
C187   C180    1.391   1_565 D
C188   C189    1.404   .     D
C188   C193    1.467   .     S
C189   C190    1.396   .     S
C189   H209    1.083   .     S
C190   C191    1.405   .     D
C190   H210    1.079   .     S
C191   C180    1.400   1_565 S
C191   C339    1.481   1_565 S
C192   H211    1.082   .     S
C193   H212    1.079   .     S
O194   C213    1.424   .     S
O194   C286    1.403   .     S
H199   C171    1.079   1_565 S
H201   C175    1.078   1_565 S
C213   H214    1.109   .     S
C213   H215    1.108   .     S
C213   H216    1.112   .     S
C217   C221    1.411   .     S
C217   C225    1.415   .     D
C217   C435    1.548   .     S
C218   C219    1.412   .     D
C218   C436    1.550   .     S
C218   C222    1.414   1_455 S
C219   C223    1.388   .     S
C219   H249    1.075   .     S
C220   C223    1.391   .     D
C220   N228    1.429   .     S
C220   C229    1.402   .     S
C221   C230    1.389   .     D
C221   H250    1.083   .     S
C222   H251    1.081   .     S
C222   C218    1.414   1_655 S
C222   C229    1.398   1_655 D
C223   H252    1.084   .     S
N224   C226    1.436   .     S
N224   C355    1.299   1_545 D
C225   C227    1.398   .     S
C225   H253    1.079   .     S
C226   C227    1.397   .     D
C226   C230    1.403   .     S
C227   H254    1.082   .     S
N228   C354    1.296   .     D
C229   H255    1.078   .     S
C229   C222    1.398   1_455 D
C230   H256    1.079   .     S
C231   C232    1.407   .     D
C231   C71     1.414   1_554 S
C231   C83     1.481   1_545 S
C232   C233    1.405   .     S
C233   C69     1.414   1_554 D
C234   C241    1.391   .     D
C234   C245    1.400   .     S
C234   H257    1.083   .     S
C235   C236    1.405   .     D
C235   C240    1.400   1_545 S
C235   H258    1.082   1_556 S
C236   C237    1.399   1_545 S
C237   C238    1.389   .     D
C237   H259    1.083   .     S
C237   C236    1.399   1_565 S
C238   C239    1.406   .     S
C238   H260    1.083   .     S
C239   C240    1.402   .     D
C239   C246    1.470   .     S
C240   H261    1.083   .     S
C240   C235    1.400   1_565 S
C241   C242    1.402   .     S
C241   H262    1.081   .     S
C242   C243    1.404   .     D
C242   C247    1.467   .     S
C243   C244    1.396   .     S
C243   H263    1.083   .     S
C244   C245    1.405   .     D
C244   H264    1.079   1_556 S
C246   H265    1.082   .     S
C246   N336    1.296   .     D
C247   H266    1.079   .     S
C247   N332    1.299   1_565 D
O248   C267    1.424   .     S
H258   C235    1.082   1_554 S
H264   C244    1.079   1_554 S
C267   H270    1.112   .     S
C267   H268    1.109   1_565 S
C267   H269    1.108   1_565 S
H268   C267    1.109   1_545 S
H269   C267    1.108   1_545 S
C271   C275    1.411   .     S
C271   C279    1.415   .     D
C271   C436    1.548   1_665 S
C272   C273    1.412   .     D
C272   C276    1.414   .     S
C272   C435    1.550   .     S
C273   C277    1.388   .     S
C273   H303    1.075   .     S
C274   C277    1.391   .     D
C274   C283    1.402   .     S
C274   N282    1.429   1_565 S
C275   C284    1.389   .     D
C275   H304    1.083   .     S
C276   C283    1.398   .     D
C276   H305    1.081   .     S
C277   H306    1.084   .     S
N278   C280    1.436   .     S
N278   C409    1.299   .     D
C279   C281    1.398   .     S
C279   H307    1.079   1_565 S
C280   C281    1.397   .     D
C280   C284    1.403   .     S
C281   H308    1.082   .     S
N282   C408    1.296   .     D
N282   C274    1.429   1_545 S
C283   H309    1.078   1_565 S
C284   H310    1.079   .     S
C285   C286    1.407   .     D
C285   C17     1.414   1_554 S
C286   C287    1.405   .     S
C287   C15     1.414   1_554 D
C288   H311    1.083   .     S
C288   C295    1.391   1_565 D
C288   C299    1.400   1_565 S
C289   C290    1.405   .     D
C289   C294    1.400   .     S
C289   H312    1.082   1_556 S
C290   C291    1.399   .     S
C291   C292    1.389   .     D
C291   H313    1.083   .     S
C292   C293    1.406   .     S
C292   H314    1.083   .     S
C293   C294    1.402   .     D
C293   C300    1.470   .     S
C294   H315    1.083   .     S
C295   C296    1.402   .     S
C295   H316    1.081   .     S
C295   C288    1.391   1_545 D
C296   C297    1.404   .     D
C296   C301    1.467   .     S
C297   C298    1.396   .     S
C297   H317    1.083   .     S
C298   C299    1.405   .     D
C298   H318    1.079   1_556 S
C299   C15     1.481   1_545 S
C299   C288    1.400   1_545 S
C300   H319    1.082   .     S
C300   N390    1.296   .     D
C301   H320    1.079   .     S
C301   N386    1.299   .     D
O302   C321    1.424   .     S
H307   C279    1.079   1_545 S
H309   C283    1.078   1_545 S
H312   C289    1.082   1_554 S
H318   C298    1.079   1_554 S
C321   H322    1.109   .     S
C321   H323    1.108   .     S
C321   H324    1.112   .     S
C325   C329    1.411   .     D
C325   C333    1.415   .     S
C325   C435    1.548   .     S
C326   C327    1.412   .     D
C326   C330    1.414   1_655 S
C326   C436    1.550   1_655 S
C327   C331    1.388   .     S
C327   H357    1.075   .     S
C328   C331    1.391   .     D
C328   N336    1.429   .     S
C328   C337    1.402   .     S
C329   C338    1.389   .     S
C329   H358    1.083   .     S
C330   H359    1.081   .     S
C330   C326    1.414   1_455 S
C330   C337    1.398   1_455 D
C331   H360    1.084   .     S
N332   C334    1.436   .     S
N332   C247    1.299   1_545 D
C333   C335    1.398   .     D
C333   H361    1.079   .     S
C334   C335    1.397   .     S
C334   C338    1.403   .     D
C335   H362    1.082   .     S
C337   H363    1.078   .     S
C337   C330    1.398   1_655 D
C338   H364    1.079   .     S
C339   C340    1.407   .     D
C339   C191    1.481   1_545 S
C340   C341    1.405   .     S
C342   C349    1.391   .     S
C342   C353    1.400   .     D
C342   H365    1.083   .     S
C343   C344    1.405   .     D
C343   H366    1.082   .     S
C343   C348    1.400   1_545 S
C344   C345    1.399   1_545 S
C345   C346    1.389   .     D
C345   H367    1.083   .     S
C345   C344    1.399   1_565 S
C346   C347    1.406   .     S
C346   H368    1.083   .     S
C347   C348    1.402   .     D
C347   C354    1.470   .     S
C348   H369    1.083   .     S
C348   C343    1.400   1_565 S
C349   C350    1.402   .     D
C349   H370    1.081   .     S
C350   C351    1.404   .     S
C350   C355    1.467   .     S
C351   C352    1.396   .     D
C351   H371    1.083   .     S
C352   C353    1.405   .     S
C352   H372    1.079   .     S
C354   H373    1.082   .     S
C355   H374    1.079   .     S
C355   N224    1.299   1_565 D
O356   C375    1.424   .     S
C375   H378    1.112   .     S
C375   H376    1.109   1_565 S
C375   H377    1.108   1_565 S
H376   C375    1.109   1_545 S
H377   C375    1.108   1_545 S
C379   C383    1.411   .     D
C379   C387    1.415   .     S
C379   C436    1.548   1_565 S
C380   C381    1.412   .     D
C380   C384    1.414   .     S
C380   C435    1.550   .     S
C381   C385    1.388   .     S
C381   H411    1.075   .     S
C382   C385    1.391   .     D
C382   C391    1.402   .     S
C382   N390    1.429   1_565 S
C383   C392    1.389   .     S
C383   H412    1.083   .     S
C384   C391    1.398   .     D
C384   H413    1.081   .     S
C385   H414    1.084   .     S
N386   C388    1.436   .     S
C387   C389    1.398   .     D
C387   H415    1.079   1_565 S
C388   C389    1.397   .     S
C388   C392    1.403   .     D
C389   H416    1.082   .     S
N390   C382    1.429   1_545 S
C391   H417    1.078   1_565 S
C392   H418    1.079   .     S
C393   C394    1.407   .     S
C394   C395    1.405   .     D
C396   H419    1.083   .     S
C396   C403    1.391   1_565 D
C396   C407    1.400   1_565 S
C397   C398    1.405   .     D
C397   C402    1.400   .     S
C397   H420    1.082   .     S
C398   C399    1.399   .     S
C399   C400    1.389   .     D
C399   H421    1.083   .     S
C400   C401    1.406   .     S
C400   H422    1.083   .     S
C401   C402    1.402   .     D
C401   C408    1.470   .     S
C402   H423    1.083   .     S
C403   C404    1.402   .     S
C403   H424    1.081   .     S
C403   C396    1.391   1_545 D
C404   C405    1.404   .     D
C404   C409    1.467   .     S
C405   C406    1.396   .     S
C405   H425    1.083   .     S
C406   C407    1.405   .     D
C406   H426    1.079   .     S
C407   C123    1.481   1_545 S
C407   C396    1.400   1_545 S
C408   H427    1.082   .     S
C409   H428    1.079   .     S
O410   C429    1.424   .     S
H415   C387    1.079   1_545 S
H417   C391    1.078   1_545 S
C429   H430    1.109   .     S
C429   H431    1.108   .     S
C429   H432    1.112   .     S
C434   C2      1.550   1_455 S
C434   C55     1.548   1_565 S
C434   C163    1.548   1_465 S
C436   C271    1.548   1_445 S
C436   C326    1.550   1_455 S
C436   C379    1.548   1_545 S
