data_1120
_audit_creation_date              2023-09-08
_audit_creation_method            'Materials Studio'
_symmetry_space_group_name_H-M    'P1'
_symmetry_Int_Tables_number       1
_symmetry_cell_setting            triclinic
loop_
_symmetry_equiv_pos_as_xyz
  x,y,z
_cell_length_a                    23.5190
_cell_length_b                    44.4660
_cell_length_c                    18.5200
_cell_angle_alpha                 90.0000
_cell_angle_beta                  114.5640
_cell_angle_gamma                 90.0000
loop_
_atom_site_label
_atom_site_type_symbol
_atom_site_fract_x
_atom_site_fract_y
_atom_site_fract_z
_atom_site_U_iso_or_equiv
_atom_site_adp_type
_atom_site_occupancy
C1     C     0.88568   0.54974   0.84941   0.00000  Uiso   1.00
C2     C     0.78926   0.57343   0.84333   0.00000  Uiso   1.00
C3     C     0.42426   0.56742   0.74778   0.00000  Uiso   1.00
C4     C     0.49039   0.56592   0.77696   0.00000  Uiso   1.00
C5     C     0.51899   0.56780   0.72328   0.00000  Uiso   1.00
C6     C     0.48139   0.56769   0.64010   0.00000  Uiso   1.00
C7     C     0.41532   0.56585   0.61094   0.00000  Uiso   1.00
C8     C     0.38663   0.56731   0.66458   0.00000  Uiso   1.00
C9     C     0.97240   0.51840   0.85663   0.00000  Uiso   1.00
C10    C     0.21653   0.59140   0.55364   0.00000  Uiso   1.00
C11    C     0.18517   0.56848   0.57458   0.00000  Uiso   1.00
C12    C     0.22043   0.54539   0.62570   0.00000  Uiso   1.00
C13    C     0.28556   0.54484   0.65396   0.00000  Uiso   1.00
C14    C     0.31697   0.56781   0.63344   0.00000  Uiso   1.00
C15    C     0.28198   0.59115   0.58311   0.00000  Uiso   1.00
C16    C     0.01419   0.54296   0.88215   0.00000  Uiso   1.00
C17    C     0.11600   0.56849   0.54169   0.00000  Uiso   1.00
C18    C     0.82371   0.53587   0.49638   0.00000  Uiso   1.00
C19    C     0.74480   0.56991   0.38259   0.00000  Uiso   1.00
C20    C     0.78227   0.54373   0.40786   0.00000  Uiso   1.00
C21    C     0.72455   0.59904   0.04824   0.00000  Uiso   1.00
N22    N     0.12780   0.42110   0.80536   0.00000  Uiso   1.00
C23    C     0.08284   0.54134   0.89099   0.00000  Uiso   1.00
C24    C     0.90885   0.52231   0.83646   0.00000  Uiso   1.00
C25    C     0.93446   0.51310   0.53114   0.00000  Uiso   1.00
C26    C     0.53956   0.59669   0.57647   0.00000  Uiso   1.00
C27    C     0.51099   0.56973   0.58322   0.00000  Uiso   1.00
C28    C     0.50841   0.54535   0.53353   0.00000  Uiso   1.00
C29    C     0.53278   0.54822   0.47670   0.00000  Uiso   1.00
C30    C     0.56104   0.57512   0.47021   0.00000  Uiso   1.00
C31    C     0.56444   0.59933   0.52008   0.00000  Uiso   1.00
C32    C     0.91483   0.56477   0.48740   0.00000  Uiso   1.00
C33    C     0.75990   0.75753   0.77185   0.00000  Uiso   1.00
C34    C     0.62205   0.59308   0.80400   0.00000  Uiso   1.00
C35    C     0.58857   0.56925   0.75443   0.00000  Uiso   1.00
C36    C     0.62136   0.54683   0.73435   0.00000  Uiso   1.00
C37    C     0.68633   0.54851   0.76185   0.00000  Uiso   1.00
C38    C     0.72016   0.57212   0.81204   0.00000  Uiso   1.00
C39    C     0.68743   0.59441   0.83294   0.00000  Uiso   1.00
C40    C     0.73643   0.85769   0.87655   0.00000  Uiso   1.00
C41    C     0.67945   0.87265   0.83432   0.00000  Uiso   1.00
C42    C     0.62358   0.85598   0.79979   0.00000  Uiso   1.00
C43    C     0.62448   0.82498   0.81270   0.00000  Uiso   1.00
C44    C     0.68112   0.81062   0.85989   0.00000  Uiso   1.00
C45    C     0.73726   0.82685   0.88927   0.00000  Uiso   1.00
C46    C     0.02064   0.54468   0.53776   0.00000  Uiso   1.00
C47    C     0.26475   0.54032   0.27854   0.00000  Uiso   1.00
N48    N     0.24602   0.56160   0.22534   0.00000  Uiso   1.00
C49    C     0.66107   0.66525   0.73432   0.00000  Uiso   1.00
C50    C     0.65633   0.68869   0.78126   0.00000  Uiso   1.00
C51    C     0.67937   0.83700   0.10095   0.00000  Uiso   1.00
C52    C     0.33929   0.59945   0.86494   0.00000  Uiso   1.00
C53    C     0.34309   0.57556   0.91592   0.00000  Uiso   1.00
C54    C     0.37236   0.54874   0.91122   0.00000  Uiso   1.00
C55    C     0.39743   0.54563   0.85514   0.00000  Uiso   1.00
C56    C     0.39452   0.56971   0.80443   0.00000  Uiso   1.00
C57    C     0.36484   0.59657   0.80932   0.00000  Uiso   1.00
C58    C     0.78235   0.44659   0.56185   0.00000  Uiso   1.00
C59    C     0.74195   0.45978   0.48948   0.00000  Uiso   1.00
C60    C     0.75353   0.48840   0.46897   0.00000  Uiso   1.00
C61    C     0.80703   0.50464   0.51956   0.00000  Uiso   1.00
C62    C     0.84241   0.49276   0.59674   0.00000  Uiso   1.00
C63    C     0.83180   0.46354   0.61626   0.00000  Uiso   1.00
C64    C     0.92764   0.57371   0.88251   0.00000  Uiso   1.00
C65    C     0.31096   0.52574   0.42094   0.00000  Uiso   1.00
C66    C     0.30629   0.54686   0.36244   0.00000  Uiso   1.00
C67    C     0.33812   0.57445   0.38571   0.00000  Uiso   1.00
C68    C     0.37249   0.58105   0.46650   0.00000  Uiso   1.00
C69    C     0.37651   0.55995   0.52492   0.00000  Uiso   1.00
C70    C     0.34574   0.53221   0.50148   0.00000  Uiso   1.00
C71    C     0.67912   0.74217   0.07286   0.00000  Uiso   1.00
N72    N     0.08702   0.54766   0.56242   0.00000  Uiso   1.00
C73    C     0.71998   0.65343   0.74806   0.00000  Uiso   1.00
N74    N     0.81932   0.55221   0.82575   0.00000  Uiso   1.00
C75    C     0.76936   0.68843   0.85723   0.00000  Uiso   1.00
C76    C     0.71050   0.70053   0.84202   0.00000  Uiso   1.00
C77    C     0.61559   0.84500   0.07059   0.00000  Uiso   1.00
C78    C     0.07478   0.46975   0.76845   0.00000  Uiso   1.00
C79    C     0.06415   0.49876   0.78926   0.00000  Uiso   1.00
C80    C     0.09923   0.51017   0.86703   0.00000  Uiso   1.00
C81    C     0.15187   0.49343   0.91769   0.00000  Uiso   1.00
C82    C     0.16289   0.46481   0.89648   0.00000  Uiso   1.00
C83    C     0.12331   0.45225   0.82267   0.00000  Uiso   1.00
C84    C     0.04468   0.57862   0.77256   0.00000  Uiso   1.00
C85    C     0.09405   0.56320   0.83381   0.00000  Uiso   1.00
C86    C     0.15468   0.56526   0.83576   0.00000  Uiso   1.00
C87    C     0.16603   0.58356   0.78226   0.00000  Uiso   1.00
C88    C     0.11743   0.59995   0.72501   0.00000  Uiso   1.00
C89    C     0.05634   0.59719   0.71996   0.00000  Uiso   1.00
C90    C     0.78404   0.52449   0.34845   0.00000  Uiso   1.00
C91    C     0.89224   0.53749   0.50493   0.00000  Uiso   1.00
C92    C     0.77415   0.66483   0.81067   0.00000  Uiso   1.00
C93    C     0.69892   0.81473   0.06365   0.00000  Uiso   1.00
C94    C     0.61977   0.74316   0.07403   0.00000  Uiso   1.00
C95    C     0.81292   0.55759   0.55418   0.00000  Uiso   1.00
C96    C     0.86226   0.57322   0.61509   0.00000  Uiso   1.00
C97    C     0.84995   0.59265   0.66573   0.00000  Uiso   1.00
C98    C     0.78889   0.59640   0.65843   0.00000  Uiso   1.00
C99    C     0.74041   0.57869   0.60382   0.00000  Uiso   1.00
C100   C     0.75236   0.55959   0.55234   0.00000  Uiso   1.00
C101   C     0.59325   0.86667   0.11214   0.00000  Uiso   1.00
C102   C     0.16225   0.57468   0.00603   0.00000  Uiso   1.00
C103   C     0.12403   0.54879   0.97970   0.00000  Uiso   1.00
C104   C     0.12161   0.52929   0.03822   0.00000  Uiso   1.00
C105   C     0.15946   0.53370   0.11891   0.00000  Uiso   1.00
C106   C     0.20230   0.55767   0.14358   0.00000  Uiso   1.00
C107   C     0.20154   0.57871   0.08691   0.00000  Uiso   1.00
C108   C     0.59656   0.52479   0.96421   0.00000  Uiso   1.00
C109   C     0.56115   0.53186   0.88420   0.00000  Uiso   1.00
C110   C     0.52945   0.55946   0.86266   0.00000  Uiso   1.00
C111   C     0.53317   0.57980   0.92258   0.00000  Uiso   1.00
C112   C     0.56797   0.57252   0.00290   0.00000  Uiso   1.00
C113   C     0.60087   0.54512   0.02421   0.00000  Uiso   1.00
C114   C     0.67442   0.77522   0.96016   0.00000  Uiso   1.00
C115   C     0.68552   0.74679   0.99706   0.00000  Uiso   1.00
C116   C     0.70177   0.72259   0.96073   0.00000  Uiso   1.00
C117   C     0.70501   0.72670   0.88696   0.00000  Uiso   1.00
C118   C     0.69636   0.75541   0.85176   0.00000  Uiso   1.00
C119   C     0.68172   0.77974   0.88910   0.00000  Uiso   1.00
C120   C     0.57216   0.83112   0.00148   0.00000  Uiso   1.00
C121   C     0.59177   0.80878   0.96443   0.00000  Uiso   1.00
C122   C     0.77502   0.64936   0.05810   0.00000  Uiso   1.00
C123   C     0.76890   0.67948   0.03475   0.00000  Uiso   1.00
C124   C     0.70915   0.69223   0.99544   0.00000  Uiso   1.00
C125   C     0.65576   0.67541   0.98408   0.00000  Uiso   1.00
C126   C     0.66179   0.64540   0.00736   0.00000  Uiso   1.00
C127   C     0.72120   0.63190   0.04213   0.00000  Uiso   1.00
C128   C     0.70465   0.55391   0.24415   0.00000  Uiso   1.00
C129   C     0.64264   0.53787   0.10764   0.00000  Uiso   1.00
C130   C     0.70583   0.57457   0.30185   0.00000  Uiso   1.00
C131   C     0.67914   0.90557   0.83814   0.00000  Uiso   1.00
C132   C     0.65500   0.80034   0.99606   0.00000  Uiso   1.00
C133   C     0.64769   0.76602   0.70534   0.00000  Uiso   1.00
C134   C     0.74667   0.52959   0.26786   0.00000  Uiso   1.00
C135   C     0.72618   0.73158   0.21483   0.00000  Uiso   1.00
C136   C     0.73235   0.73631   0.14369   0.00000  Uiso   1.00
C137   C     0.71067   0.76755   0.63000   0.00000  Uiso   1.00
C138   C     0.70147   0.75984   0.77519   0.00000  Uiso   1.00
C139   C     0.65237   0.76992   0.63303   0.00000  Uiso   1.00
C140   C     0.76438   0.76137   0.69938   0.00000  Uiso   1.00
N141   N     0.66127   0.55857   0.16246   0.00000  Uiso   1.00
N142   N     0.77764   0.41519   0.57610   0.00000  Uiso   1.00
N143   N     0.13278   0.62017   0.67591   0.00000  Uiso   1.00
C144   C     0.99112   0.57028   0.89883   0.00000  Uiso   1.00
C145   C     0.72414   0.62981   0.69550   0.00000  Uiso   1.00
N146   N     0.77819   0.61871   0.70689   0.00000  Uiso   1.00
C147   C     0.61386   0.73856   0.14536   0.00000  Uiso   1.00
C148   C     0.66700   0.73274   0.21571   0.00000  Uiso   1.00
C149   C     0.99802   0.51728   0.55176   0.00000  Uiso   1.00
C150   C     0.97811   0.56831   0.50313   0.00000  Uiso   1.00
H151   H     0.81394   0.59202   0.88130   0.00000  Uiso   1.00
H152   H     0.98731   0.49605   0.84992   0.00000  Uiso   1.00
H153   H     0.19035   0.60930   0.51381   0.00000  Uiso   1.00
H154   H     0.19773   0.52761   0.64349   0.00000  Uiso   1.00
H155   H     0.31154   0.52646   0.69190   0.00000  Uiso   1.00
H156   H     0.30539   0.60908   0.56654   0.00000  Uiso   1.00
H157   H     0.09023   0.58583   0.49965   0.00000  Uiso   1.00
H158   H     0.74481   0.58690   0.42433   0.00000  Uiso   1.00
H159   H     0.68135   0.58685   0.01870   0.00000  Uiso   1.00
H160   H     0.87757   0.50367   0.80962   0.00000  Uiso   1.00
H161   H     0.91997   0.49071   0.53817   0.00000  Uiso   1.00
H162   H     0.54165   0.61571   0.61406   0.00000  Uiso   1.00
H163   H     0.48657   0.52438   0.53790   0.00000  Uiso   1.00
H164   H     0.52905   0.52973   0.43699   0.00000  Uiso   1.00
H165   H     0.58006   0.57725   0.42632   0.00000  Uiso   1.00
H166   H     0.58601   0.62022   0.51466   0.00000  Uiso   1.00
H167   H     0.88370   0.58385   0.46473   0.00000  Uiso   1.00
H168   H     0.80180   0.75276   0.82526   0.00000  Uiso   1.00
H169   H     0.59752   0.61062   0.82016   0.00000  Uiso   1.00
H170   H     0.59656   0.52807   0.69706   0.00000  Uiso   1.00
H171   H     0.71002   0.53128   0.74379   0.00000  Uiso   1.00
H172   H     0.71243   0.61278   0.87178   0.00000  Uiso   1.00
H173   H     0.77992   0.87010   0.90408   0.00000  Uiso   1.00
H174   H     0.57901   0.86708   0.76719   0.00000  Uiso   1.00
H175   H     0.58081   0.81254   0.78999   0.00000  Uiso   1.00
H176   H     0.78115   0.81591   0.92616   0.00000  Uiso   1.00
H177   H     0.24856   0.51742   0.26290   0.00000  Uiso   1.00
H178   H     0.61889   0.65660   0.68668   0.00000  Uiso   1.00
H179   H     0.61068   0.69804   0.76947   0.00000  Uiso   1.00
H180   H     0.71387   0.84753   0.15411   0.00000  Uiso   1.00
H181   H     0.31658   0.62021   0.86858   0.00000  Uiso   1.00
H182   H     0.32344   0.57786   0.95912   0.00000  Uiso   1.00
H183   H     0.37619   0.53047   0.95159   0.00000  Uiso   1.00
H184   H     0.41994   0.52470   0.85205   0.00000  Uiso   1.00
H185   H     0.36217   0.61533   0.77066   0.00000  Uiso   1.00
H186   H     0.70240   0.44762   0.44672   0.00000  Uiso   1.00
H187   H     0.72003   0.49735   0.41293   0.00000  Uiso   1.00
H188   H     0.88097   0.50549   0.64017   0.00000  Uiso   1.00
H189   H     0.86274   0.45396   0.67311   0.00000  Uiso   1.00
H190   H     0.91163   0.59542   0.89276   0.00000  Uiso   1.00
H191   H     0.28615   0.50451   0.40435   0.00000  Uiso   1.00
H192   H     0.33520   0.59116   0.34167   0.00000  Uiso   1.00
H193   H     0.39604   0.60255   0.48357   0.00000  Uiso   1.00
H194   H     0.34875   0.51557   0.54574   0.00000  Uiso   1.00
H195   H     0.81140   0.69765   0.90398   0.00000  Uiso   1.00
H196   H     0.04439   0.46069   0.71066   0.00000  Uiso   1.00
H197   H     0.02596   0.51175   0.74610   0.00000  Uiso   1.00
H198   H     0.18506   0.50191   0.97449   0.00000  Uiso   1.00
H199   H     0.20147   0.45235   0.93988   0.00000  Uiso   1.00
H200   H     0.99644   0.57634   0.76347   0.00000  Uiso   1.00
H201   H     0.19340   0.55266   0.87927   0.00000  Uiso   1.00
H202   H     0.21291   0.58503   0.78523   0.00000  Uiso   1.00
H203   H     0.01718   0.60937   0.67642   0.00000  Uiso   1.00
H204   H     0.81304   0.50468   0.36590   0.00000  Uiso   1.00
H205   H     0.82018   0.65593   0.82273   0.00000  Uiso   1.00
H206   H     0.74788   0.80823   0.08818   0.00000  Uiso   1.00
H207   H     0.57820   0.74736   0.01972   0.00000  Uiso   1.00
H208   H     0.91063   0.57062   0.62487   0.00000  Uiso   1.00
H209   H     0.88811   0.60522   0.71025   0.00000  Uiso   1.00
H210   H     0.69342   0.57934   0.60044   0.00000  Uiso   1.00
H211   H     0.71392   0.54650   0.50993   0.00000  Uiso   1.00
H212   H     0.54353   0.87112   0.08874   0.00000  Uiso   1.00
H213   H     0.16272   0.59187   0.96502   0.00000  Uiso   1.00
H214   H     0.09201   0.50970   0.01991   0.00000  Uiso   1.00
H215   H     0.15508   0.51824   0.16139   0.00000  Uiso   1.00
H216   H     0.23219   0.59811   0.10539   0.00000  Uiso   1.00
H217   H     0.62200   0.50370   0.97923   0.00000  Uiso   1.00
H218   H     0.55842   0.51578   0.83883   0.00000  Uiso   1.00
H219   H     0.50896   0.60119   0.90707   0.00000  Uiso   1.00
H220   H     0.57048   0.58859   0.04814   0.00000  Uiso   1.00
H221   H     0.52291   0.83709   0.97730   0.00000  Uiso   1.00
H222   H     0.55761   0.79754   0.91228   0.00000  Uiso   1.00
H223   H     0.82134   0.63938   0.08432   0.00000  Uiso   1.00
H224   H     0.81042   0.69250   0.04419   0.00000  Uiso   1.00
H225   H     0.60944   0.68519   0.95406   0.00000  Uiso   1.00
H226   H     0.61975   0.63230   0.99423   0.00000  Uiso   1.00
H227   H     0.65876   0.51489   0.12158   0.00000  Uiso   1.00
H228   H     0.67586   0.59423   0.28424   0.00000  Uiso   1.00
H229   H     0.72229   0.91629   0.87676   0.00000  Uiso   1.00
H230   H     0.60223   0.76761   0.70692   0.00000  Uiso   1.00
H231   H     0.75087   0.51441   0.22470   0.00000  Uiso   1.00
H232   H     0.76727   0.72700   0.26927   0.00000  Uiso   1.00
H233   H     0.77844   0.73539   0.14371   0.00000  Uiso   1.00
H234   H     0.71421   0.77051   0.57393   0.00000  Uiso   1.00
H235   H     0.61079   0.77468   0.57932   0.00000  Uiso   1.00
H236   H     0.80948   0.75957   0.69699   0.00000  Uiso   1.00
H237   H     0.02198   0.58950   0.92086   0.00000  Uiso   1.00
H238   H     0.68168   0.62284   0.64577   0.00000  Uiso   1.00
H239   H     0.56805   0.73940   0.14603   0.00000  Uiso   1.00
H240   H     0.66231   0.72906   0.27085   0.00000  Uiso   1.00
H241   H     0.02971   0.49889   0.57966   0.00000  Uiso   1.00
H242   H     0.99347   0.58987   0.49113   0.00000  Uiso   1.00
C243   C     0.38568   0.04974   0.84941   0.00000  Uiso   1.00
C244   C     0.28926   0.07343   0.84333   0.00000  Uiso   1.00
C245   C     0.92426   0.06742   0.74778   0.00000  Uiso   1.00
C246   C     0.99039   0.06592   0.77696   0.00000  Uiso   1.00
C247   C     0.01899   0.06780   0.72328   0.00000  Uiso   1.00
C248   C     0.98139   0.06769   0.64010   0.00000  Uiso   1.00
C249   C     0.91532   0.06585   0.61094   0.00000  Uiso   1.00
C250   C     0.88663   0.06731   0.66458   0.00000  Uiso   1.00
C251   C     0.47240   0.01840   0.85663   0.00000  Uiso   1.00
C252   C     0.71653   0.09140   0.55364   0.00000  Uiso   1.00
C253   C     0.68517   0.06848   0.57458   0.00000  Uiso   1.00
C254   C     0.72043   0.04539   0.62570   0.00000  Uiso   1.00
C255   C     0.78556   0.04484   0.65396   0.00000  Uiso   1.00
C256   C     0.81697   0.06781   0.63344   0.00000  Uiso   1.00
C257   C     0.78198   0.09115   0.58311   0.00000  Uiso   1.00
C258   C     0.51419   0.04296   0.88215   0.00000  Uiso   1.00
C259   C     0.61600   0.06849   0.54169   0.00000  Uiso   1.00
C260   C     0.32371   0.03587   0.49638   0.00000  Uiso   1.00
C261   C     0.24480   0.06991   0.38259   0.00000  Uiso   1.00
C262   C     0.28227   0.04373   0.40786   0.00000  Uiso   1.00
C263   C     0.22455   0.09904   0.04824   0.00000  Uiso   1.00
N264   N     0.62780   0.92110   0.80536   0.00000  Uiso   1.00
C265   C     0.58284   0.04134   0.89099   0.00000  Uiso   1.00
C266   C     0.40885   0.02231   0.83646   0.00000  Uiso   1.00
C267   C     0.43446   0.01310   0.53114   0.00000  Uiso   1.00
C268   C     0.03956   0.09669   0.57647   0.00000  Uiso   1.00
C269   C     0.01099   0.06973   0.58322   0.00000  Uiso   1.00
C270   C     0.00841   0.04535   0.53353   0.00000  Uiso   1.00
C271   C     0.03278   0.04822   0.47670   0.00000  Uiso   1.00
C272   C     0.06104   0.07512   0.47021   0.00000  Uiso   1.00
C273   C     0.06444   0.09933   0.52008   0.00000  Uiso   1.00
C274   C     0.41483   0.06477   0.48740   0.00000  Uiso   1.00
C275   C     0.25990   0.25753   0.77185   0.00000  Uiso   1.00
C276   C     0.12205   0.09308   0.80400   0.00000  Uiso   1.00
C277   C     0.08857   0.06925   0.75443   0.00000  Uiso   1.00
C278   C     0.12136   0.04683   0.73435   0.00000  Uiso   1.00
C279   C     0.18633   0.04851   0.76185   0.00000  Uiso   1.00
C280   C     0.22016   0.07212   0.81204   0.00000  Uiso   1.00
C281   C     0.18743   0.09441   0.83294   0.00000  Uiso   1.00
C282   C     0.23643   0.35769   0.87655   0.00000  Uiso   1.00
C283   C     0.17945   0.37265   0.83432   0.00000  Uiso   1.00
C284   C     0.12358   0.35598   0.79979   0.00000  Uiso   1.00
C285   C     0.12448   0.32498   0.81270   0.00000  Uiso   1.00
C286   C     0.18112   0.31062   0.85989   0.00000  Uiso   1.00
C287   C     0.23726   0.32685   0.88927   0.00000  Uiso   1.00
C288   C     0.52064   0.04468   0.53776   0.00000  Uiso   1.00
C289   C     0.76475   0.04032   0.27854   0.00000  Uiso   1.00
N290   N     0.74602   0.06160   0.22534   0.00000  Uiso   1.00
C291   C     0.16107   0.16525   0.73432   0.00000  Uiso   1.00
C292   C     0.15633   0.18869   0.78126   0.00000  Uiso   1.00
C293   C     0.17937   0.33700   0.10095   0.00000  Uiso   1.00
C294   C     0.83929   0.09945   0.86494   0.00000  Uiso   1.00
C295   C     0.84309   0.07556   0.91592   0.00000  Uiso   1.00
C296   C     0.87236   0.04874   0.91122   0.00000  Uiso   1.00
C297   C     0.89743   0.04563   0.85514   0.00000  Uiso   1.00
C298   C     0.89452   0.06971   0.80443   0.00000  Uiso   1.00
C299   C     0.86484   0.09657   0.80932   0.00000  Uiso   1.00
C300   C     0.28235   0.94659   0.56185   0.00000  Uiso   1.00
C301   C     0.24195   0.95978   0.48948   0.00000  Uiso   1.00
C302   C     0.25353   0.98840   0.46897   0.00000  Uiso   1.00
C303   C     0.30703   0.00464   0.51956   0.00000  Uiso   1.00
C304   C     0.34241   0.99276   0.59674   0.00000  Uiso   1.00
C305   C     0.33180   0.96354   0.61626   0.00000  Uiso   1.00
C306   C     0.42764   0.07371   0.88251   0.00000  Uiso   1.00
C307   C     0.81096   0.02574   0.42094   0.00000  Uiso   1.00
C308   C     0.80629   0.04686   0.36244   0.00000  Uiso   1.00
C309   C     0.83812   0.07445   0.38571   0.00000  Uiso   1.00
C310   C     0.87249   0.08105   0.46650   0.00000  Uiso   1.00
C311   C     0.87651   0.05995   0.52492   0.00000  Uiso   1.00
C312   C     0.84574   0.03221   0.50148   0.00000  Uiso   1.00
C313   C     0.17912   0.24217   0.07286   0.00000  Uiso   1.00
N314   N     0.58702   0.04766   0.56242   0.00000  Uiso   1.00
C315   C     0.21998   0.15343   0.74806   0.00000  Uiso   1.00
N316   N     0.31932   0.05221   0.82575   0.00000  Uiso   1.00
C317   C     0.26936   0.18843   0.85723   0.00000  Uiso   1.00
C318   C     0.21050   0.20053   0.84202   0.00000  Uiso   1.00
C319   C     0.11559   0.34500   0.07059   0.00000  Uiso   1.00
C320   C     0.57478   0.96975   0.76845   0.00000  Uiso   1.00
C321   C     0.56415   0.99876   0.78926   0.00000  Uiso   1.00
C322   C     0.59923   0.01017   0.86703   0.00000  Uiso   1.00
C323   C     0.65187   0.99343   0.91769   0.00000  Uiso   1.00
C324   C     0.66289   0.96481   0.89648   0.00000  Uiso   1.00
C325   C     0.62331   0.95225   0.82267   0.00000  Uiso   1.00
C326   C     0.54468   0.07862   0.77256   0.00000  Uiso   1.00
C327   C     0.59405   0.06320   0.83381   0.00000  Uiso   1.00
C328   C     0.65468   0.06526   0.83576   0.00000  Uiso   1.00
C329   C     0.66603   0.08356   0.78226   0.00000  Uiso   1.00
C330   C     0.61743   0.09995   0.72501   0.00000  Uiso   1.00
C331   C     0.55634   0.09719   0.71996   0.00000  Uiso   1.00
C332   C     0.28404   0.02449   0.34845   0.00000  Uiso   1.00
C333   C     0.39224   0.03749   0.50493   0.00000  Uiso   1.00
C334   C     0.27415   0.16483   0.81067   0.00000  Uiso   1.00
C335   C     0.19892   0.31473   0.06365   0.00000  Uiso   1.00
C336   C     0.11977   0.24316   0.07403   0.00000  Uiso   1.00
C337   C     0.31292   0.05759   0.55418   0.00000  Uiso   1.00
C338   C     0.36226   0.07322   0.61509   0.00000  Uiso   1.00
C339   C     0.34995   0.09265   0.66573   0.00000  Uiso   1.00
C340   C     0.28889   0.09640   0.65843   0.00000  Uiso   1.00
C341   C     0.24041   0.07869   0.60382   0.00000  Uiso   1.00
C342   C     0.25236   0.05959   0.55234   0.00000  Uiso   1.00
C343   C     0.09325   0.36667   0.11214   0.00000  Uiso   1.00
C344   C     0.66225   0.07468   0.00603   0.00000  Uiso   1.00
C345   C     0.62403   0.04879   0.97970   0.00000  Uiso   1.00
C346   C     0.62161   0.02929   0.03822   0.00000  Uiso   1.00
C347   C     0.65946   0.03370   0.11891   0.00000  Uiso   1.00
C348   C     0.70230   0.05767   0.14358   0.00000  Uiso   1.00
C349   C     0.70154   0.07871   0.08691   0.00000  Uiso   1.00
C350   C     0.09656   0.02479   0.96421   0.00000  Uiso   1.00
C351   C     0.06115   0.03186   0.88420   0.00000  Uiso   1.00
C352   C     0.02945   0.05946   0.86266   0.00000  Uiso   1.00
C353   C     0.03317   0.07980   0.92258   0.00000  Uiso   1.00
C354   C     0.06797   0.07252   0.00290   0.00000  Uiso   1.00
C355   C     0.10087   0.04512   0.02421   0.00000  Uiso   1.00
C356   C     0.17442   0.27522   0.96016   0.00000  Uiso   1.00
C357   C     0.18552   0.24679   0.99706   0.00000  Uiso   1.00
C358   C     0.20177   0.22259   0.96073   0.00000  Uiso   1.00
C359   C     0.20501   0.22670   0.88696   0.00000  Uiso   1.00
C360   C     0.19636   0.25541   0.85176   0.00000  Uiso   1.00
C361   C     0.18172   0.27974   0.88910   0.00000  Uiso   1.00
C362   C     0.07216   0.33112   0.00148   0.00000  Uiso   1.00
C363   C     0.09177   0.30878   0.96443   0.00000  Uiso   1.00
C364   C     0.27502   0.14936   0.05810   0.00000  Uiso   1.00
C365   C     0.26890   0.17948   0.03475   0.00000  Uiso   1.00
C366   C     0.20915   0.19223   0.99544   0.00000  Uiso   1.00
C367   C     0.15576   0.17541   0.98408   0.00000  Uiso   1.00
C368   C     0.16179   0.14540   0.00736   0.00000  Uiso   1.00
C369   C     0.22120   0.13190   0.04213   0.00000  Uiso   1.00
C370   C     0.20465   0.05391   0.24415   0.00000  Uiso   1.00
C371   C     0.14264   0.03787   0.10764   0.00000  Uiso   1.00
C372   C     0.20583   0.07457   0.30185   0.00000  Uiso   1.00
C373   C     0.17914   0.40557   0.83814   0.00000  Uiso   1.00
C374   C     0.15500   0.30034   0.99606   0.00000  Uiso   1.00
C375   C     0.14769   0.26602   0.70534   0.00000  Uiso   1.00
C376   C     0.24667   0.02959   0.26786   0.00000  Uiso   1.00
C377   C     0.22618   0.23158   0.21483   0.00000  Uiso   1.00
C378   C     0.23235   0.23631   0.14369   0.00000  Uiso   1.00
C379   C     0.21067   0.26755   0.63000   0.00000  Uiso   1.00
C380   C     0.20147   0.25984   0.77519   0.00000  Uiso   1.00
C381   C     0.15237   0.26992   0.63303   0.00000  Uiso   1.00
C382   C     0.26438   0.26137   0.69938   0.00000  Uiso   1.00
N383   N     0.16127   0.05857   0.16246   0.00000  Uiso   1.00
N384   N     0.27764   0.91519   0.57610   0.00000  Uiso   1.00
N385   N     0.63278   0.12017   0.67591   0.00000  Uiso   1.00
C386   C     0.49112   0.07028   0.89883   0.00000  Uiso   1.00
C387   C     0.22414   0.12981   0.69550   0.00000  Uiso   1.00
N388   N     0.27819   0.11871   0.70689   0.00000  Uiso   1.00
C389   C     0.11386   0.23856   0.14536   0.00000  Uiso   1.00
C390   C     0.16700   0.23274   0.21571   0.00000  Uiso   1.00
C391   C     0.49802   0.01728   0.55176   0.00000  Uiso   1.00
C392   C     0.47811   0.06831   0.50313   0.00000  Uiso   1.00
H393   H     0.31394   0.09202   0.88130   0.00000  Uiso   1.00
H394   H     0.48731   0.99605   0.84992   0.00000  Uiso   1.00
H395   H     0.69035   0.10930   0.51381   0.00000  Uiso   1.00
H396   H     0.69773   0.02761   0.64349   0.00000  Uiso   1.00
H397   H     0.81154   0.02646   0.69190   0.00000  Uiso   1.00
H398   H     0.80539   0.10908   0.56654   0.00000  Uiso   1.00
H399   H     0.59023   0.08583   0.49965   0.00000  Uiso   1.00
H400   H     0.24481   0.08690   0.42433   0.00000  Uiso   1.00
H401   H     0.18135   0.08685   0.01870   0.00000  Uiso   1.00
H402   H     0.37757   0.00367   0.80962   0.00000  Uiso   1.00
H403   H     0.41997   0.99071   0.53817   0.00000  Uiso   1.00
H404   H     0.04165   0.11571   0.61406   0.00000  Uiso   1.00
H405   H     0.98657   0.02438   0.53790   0.00000  Uiso   1.00
H406   H     0.02905   0.02973   0.43699   0.00000  Uiso   1.00
H407   H     0.08006   0.07725   0.42632   0.00000  Uiso   1.00
H408   H     0.08601   0.12022   0.51466   0.00000  Uiso   1.00
H409   H     0.38370   0.08385   0.46473   0.00000  Uiso   1.00
H410   H     0.30180   0.25276   0.82526   0.00000  Uiso   1.00
H411   H     0.09752   0.11062   0.82016   0.00000  Uiso   1.00
H412   H     0.09656   0.02807   0.69706   0.00000  Uiso   1.00
H413   H     0.21002   0.03128   0.74379   0.00000  Uiso   1.00
H414   H     0.21243   0.11278   0.87178   0.00000  Uiso   1.00
H415   H     0.27992   0.37010   0.90408   0.00000  Uiso   1.00
H416   H     0.07901   0.36708   0.76719   0.00000  Uiso   1.00
H417   H     0.08081   0.31254   0.78999   0.00000  Uiso   1.00
H418   H     0.28115   0.31591   0.92616   0.00000  Uiso   1.00
H419   H     0.74856   0.01742   0.26290   0.00000  Uiso   1.00
H420   H     0.11889   0.15660   0.68668   0.00000  Uiso   1.00
H421   H     0.11068   0.19804   0.76947   0.00000  Uiso   1.00
H422   H     0.21387   0.34753   0.15411   0.00000  Uiso   1.00
H423   H     0.81658   0.12021   0.86858   0.00000  Uiso   1.00
H424   H     0.82344   0.07786   0.95912   0.00000  Uiso   1.00
H425   H     0.87619   0.03047   0.95159   0.00000  Uiso   1.00
H426   H     0.91994   0.02470   0.85205   0.00000  Uiso   1.00
H427   H     0.86217   0.11533   0.77066   0.00000  Uiso   1.00
H428   H     0.20240   0.94762   0.44672   0.00000  Uiso   1.00
H429   H     0.22003   0.99735   0.41293   0.00000  Uiso   1.00
H430   H     0.38097   0.00549   0.64017   0.00000  Uiso   1.00
H431   H     0.36274   0.95396   0.67311   0.00000  Uiso   1.00
H432   H     0.41163   0.09542   0.89276   0.00000  Uiso   1.00
H433   H     0.78615   0.00451   0.40435   0.00000  Uiso   1.00
H434   H     0.83520   0.09116   0.34167   0.00000  Uiso   1.00
H435   H     0.89604   0.10255   0.48357   0.00000  Uiso   1.00
H436   H     0.84875   0.01557   0.54574   0.00000  Uiso   1.00
H437   H     0.31140   0.19765   0.90398   0.00000  Uiso   1.00
H438   H     0.54439   0.96069   0.71066   0.00000  Uiso   1.00
H439   H     0.52596   0.01175   0.74610   0.00000  Uiso   1.00
H440   H     0.68506   0.00191   0.97449   0.00000  Uiso   1.00
H441   H     0.70147   0.95235   0.93988   0.00000  Uiso   1.00
H442   H     0.49644   0.07634   0.76347   0.00000  Uiso   1.00
H443   H     0.69340   0.05266   0.87927   0.00000  Uiso   1.00
H444   H     0.71291   0.08503   0.78523   0.00000  Uiso   1.00
H445   H     0.51718   0.10937   0.67642   0.00000  Uiso   1.00
H446   H     0.31304   0.00468   0.36590   0.00000  Uiso   1.00
H447   H     0.32018   0.15593   0.82273   0.00000  Uiso   1.00
H448   H     0.24788   0.30823   0.08818   0.00000  Uiso   1.00
H449   H     0.07820   0.24736   0.01972   0.00000  Uiso   1.00
H450   H     0.41063   0.07062   0.62487   0.00000  Uiso   1.00
H451   H     0.38811   0.10522   0.71025   0.00000  Uiso   1.00
H452   H     0.19342   0.07934   0.60044   0.00000  Uiso   1.00
H453   H     0.21392   0.04650   0.50993   0.00000  Uiso   1.00
H454   H     0.04353   0.37112   0.08874   0.00000  Uiso   1.00
H455   H     0.66272   0.09187   0.96502   0.00000  Uiso   1.00
H456   H     0.59201   0.00970   0.01991   0.00000  Uiso   1.00
H457   H     0.65508   0.01824   0.16139   0.00000  Uiso   1.00
H458   H     0.73219   0.09811   0.10539   0.00000  Uiso   1.00
H459   H     0.12200   0.00370   0.97923   0.00000  Uiso   1.00
H460   H     0.05842   0.01578   0.83883   0.00000  Uiso   1.00
H461   H     0.00896   0.10119   0.90707   0.00000  Uiso   1.00
H462   H     0.07048   0.08859   0.04814   0.00000  Uiso   1.00
H463   H     0.02291   0.33709   0.97730   0.00000  Uiso   1.00
H464   H     0.05761   0.29754   0.91228   0.00000  Uiso   1.00
H465   H     0.32134   0.13938   0.08432   0.00000  Uiso   1.00
H466   H     0.31042   0.19250   0.04419   0.00000  Uiso   1.00
H467   H     0.10944   0.18519   0.95406   0.00000  Uiso   1.00
H468   H     0.11975   0.13230   0.99423   0.00000  Uiso   1.00
H469   H     0.15876   0.01489   0.12158   0.00000  Uiso   1.00
H470   H     0.17586   0.09423   0.28424   0.00000  Uiso   1.00
H471   H     0.22229   0.41629   0.87676   0.00000  Uiso   1.00
H472   H     0.10223   0.26761   0.70692   0.00000  Uiso   1.00
H473   H     0.25087   0.01441   0.22470   0.00000  Uiso   1.00
H474   H     0.26727   0.22700   0.26927   0.00000  Uiso   1.00
H475   H     0.27844   0.23539   0.14371   0.00000  Uiso   1.00
H476   H     0.21421   0.27051   0.57393   0.00000  Uiso   1.00
H477   H     0.11079   0.27468   0.57932   0.00000  Uiso   1.00
H478   H     0.30948   0.25957   0.69699   0.00000  Uiso   1.00
H479   H     0.52198   0.08950   0.92086   0.00000  Uiso   1.00
H480   H     0.18168   0.12284   0.64577   0.00000  Uiso   1.00
H481   H     0.06805   0.23940   0.14603   0.00000  Uiso   1.00
H482   H     0.16231   0.22906   0.27085   0.00000  Uiso   1.00
H483   H     0.52971   0.99889   0.57966   0.00000  Uiso   1.00
H484   H     0.49347   0.08987   0.49113   0.00000  Uiso   1.00
C485   C     0.88568   0.45026   0.34941   0.00000  Uiso   1.00
C486   C     0.78926   0.42657   0.34333   0.00000  Uiso   1.00
C487   C     0.42426   0.43258   0.24778   0.00000  Uiso   1.00
C488   C     0.49039   0.43408   0.27696   0.00000  Uiso   1.00
C489   C     0.51899   0.43220   0.22328   0.00000  Uiso   1.00
C490   C     0.48139   0.43231   0.14010   0.00000  Uiso   1.00
C491   C     0.41532   0.43415   0.11094   0.00000  Uiso   1.00
C492   C     0.38663   0.43269   0.16458   0.00000  Uiso   1.00
C493   C     0.97240   0.48160   0.35663   0.00000  Uiso   1.00
C494   C     0.21653   0.40860   0.05364   0.00000  Uiso   1.00
C495   C     0.18517   0.43152   0.07458   0.00000  Uiso   1.00
C496   C     0.22043   0.45461   0.12570   0.00000  Uiso   1.00
C497   C     0.28556   0.45516   0.15396   0.00000  Uiso   1.00
C498   C     0.31697   0.43219   0.13344   0.00000  Uiso   1.00
C499   C     0.28198   0.40885   0.08311   0.00000  Uiso   1.00
C500   C     0.01419   0.45704   0.38215   0.00000  Uiso   1.00
C501   C     0.11600   0.43151   0.04169   0.00000  Uiso   1.00
C502   C     0.82371   0.46413   0.99638   0.00000  Uiso   1.00
C503   C     0.74480   0.43009   0.88259   0.00000  Uiso   1.00
C504   C     0.78227   0.45627   0.90786   0.00000  Uiso   1.00
C505   C     0.72455   0.40096   0.54824   0.00000  Uiso   1.00
N506   N     0.12780   0.57890   0.30536   0.00000  Uiso   1.00
C507   C     0.08284   0.45866   0.39099   0.00000  Uiso   1.00
C508   C     0.90885   0.47769   0.33646   0.00000  Uiso   1.00
C509   C     0.93446   0.48690   0.03114   0.00000  Uiso   1.00
C510   C     0.53956   0.40331   0.07647   0.00000  Uiso   1.00
C511   C     0.51099   0.43027   0.08322   0.00000  Uiso   1.00
C512   C     0.50841   0.45465   0.03353   0.00000  Uiso   1.00
C513   C     0.53278   0.45178   0.97670   0.00000  Uiso   1.00
C514   C     0.56104   0.42488   0.97021   0.00000  Uiso   1.00
C515   C     0.56444   0.40067   0.02008   0.00000  Uiso   1.00
C516   C     0.91483   0.43523   0.98740   0.00000  Uiso   1.00
C517   C     0.75990   0.24247   0.27185   0.00000  Uiso   1.00
C518   C     0.62205   0.40692   0.30400   0.00000  Uiso   1.00
C519   C     0.58857   0.43075   0.25443   0.00000  Uiso   1.00
C520   C     0.62136   0.45317   0.23435   0.00000  Uiso   1.00
C521   C     0.68633   0.45149   0.26185   0.00000  Uiso   1.00
C522   C     0.72016   0.42788   0.31204   0.00000  Uiso   1.00
C523   C     0.68743   0.40559   0.33294   0.00000  Uiso   1.00
C524   C     0.73643   0.14231   0.37655   0.00000  Uiso   1.00
C525   C     0.67945   0.12735   0.33432   0.00000  Uiso   1.00
C526   C     0.62358   0.14402   0.29979   0.00000  Uiso   1.00
C527   C     0.62448   0.17502   0.31270   0.00000  Uiso   1.00
C528   C     0.68112   0.18938   0.35989   0.00000  Uiso   1.00
C529   C     0.73726   0.17315   0.38927   0.00000  Uiso   1.00
C530   C     0.02064   0.45532   0.03776   0.00000  Uiso   1.00
C531   C     0.26475   0.45968   0.77854   0.00000  Uiso   1.00
N532   N     0.24602   0.43840   0.72534   0.00000  Uiso   1.00
C533   C     0.66107   0.33475   0.23432   0.00000  Uiso   1.00
C534   C     0.65633   0.31131   0.28126   0.00000  Uiso   1.00
C535   C     0.67937   0.16300   0.60095   0.00000  Uiso   1.00
C536   C     0.33929   0.40055   0.36494   0.00000  Uiso   1.00
C537   C     0.34309   0.42444   0.41592   0.00000  Uiso   1.00
C538   C     0.37236   0.45126   0.41122   0.00000  Uiso   1.00
C539   C     0.39743   0.45437   0.35514   0.00000  Uiso   1.00
C540   C     0.39452   0.43029   0.30443   0.00000  Uiso   1.00
C541   C     0.36484   0.40343   0.30932   0.00000  Uiso   1.00
C542   C     0.78235   0.55341   0.06185   0.00000  Uiso   1.00
C543   C     0.74195   0.54022   0.98948   0.00000  Uiso   1.00
C544   C     0.75353   0.51160   0.96897   0.00000  Uiso   1.00
C545   C     0.80703   0.49536   0.01956   0.00000  Uiso   1.00
C546   C     0.84241   0.50724   0.09674   0.00000  Uiso   1.00
C547   C     0.83180   0.53646   0.11626   0.00000  Uiso   1.00
C548   C     0.92764   0.42629   0.38251   0.00000  Uiso   1.00
C549   C     0.31096   0.47426   0.92094   0.00000  Uiso   1.00
C550   C     0.30629   0.45314   0.86244   0.00000  Uiso   1.00
C551   C     0.33812   0.42555   0.88571   0.00000  Uiso   1.00
C552   C     0.37249   0.41895   0.96650   0.00000  Uiso   1.00
C553   C     0.37651   0.44005   0.02492   0.00000  Uiso   1.00
C554   C     0.34574   0.46779   0.00148   0.00000  Uiso   1.00
C555   C     0.67912   0.25783   0.57286   0.00000  Uiso   1.00
N556   N     0.08702   0.45234   0.06242   0.00000  Uiso   1.00
C557   C     0.71998   0.34657   0.24806   0.00000  Uiso   1.00
N558   N     0.81932   0.44779   0.32575   0.00000  Uiso   1.00
C559   C     0.76936   0.31157   0.35723   0.00000  Uiso   1.00
C560   C     0.71050   0.29947   0.34202   0.00000  Uiso   1.00
C561   C     0.61559   0.15500   0.57059   0.00000  Uiso   1.00
C562   C     0.07478   0.53025   0.26845   0.00000  Uiso   1.00
C563   C     0.06415   0.50124   0.28926   0.00000  Uiso   1.00
C564   C     0.09923   0.48983   0.36703   0.00000  Uiso   1.00
C565   C     0.15187   0.50657   0.41769   0.00000  Uiso   1.00
C566   C     0.16289   0.53519   0.39648   0.00000  Uiso   1.00
C567   C     0.12331   0.54775   0.32267   0.00000  Uiso   1.00
C568   C     0.04468   0.42138   0.27256   0.00000  Uiso   1.00
C569   C     0.09405   0.43680   0.33381   0.00000  Uiso   1.00
C570   C     0.15468   0.43474   0.33576   0.00000  Uiso   1.00
C571   C     0.16603   0.41644   0.28226   0.00000  Uiso   1.00
C572   C     0.11743   0.40005   0.22501   0.00000  Uiso   1.00
C573   C     0.05634   0.40281   0.21996   0.00000  Uiso   1.00
C574   C     0.78404   0.47551   0.84845   0.00000  Uiso   1.00
C575   C     0.89224   0.46251   0.00493   0.00000  Uiso   1.00
C576   C     0.77415   0.33517   0.31067   0.00000  Uiso   1.00
C577   C     0.69892   0.18527   0.56365   0.00000  Uiso   1.00
C578   C     0.61977   0.25684   0.57403   0.00000  Uiso   1.00
C579   C     0.81292   0.44241   0.05418   0.00000  Uiso   1.00
C580   C     0.86226   0.42678   0.11509   0.00000  Uiso   1.00
C581   C     0.84995   0.40735   0.16573   0.00000  Uiso   1.00
C582   C     0.78889   0.40360   0.15843   0.00000  Uiso   1.00
C583   C     0.74041   0.42131   0.10382   0.00000  Uiso   1.00
C584   C     0.75236   0.44041   0.05234   0.00000  Uiso   1.00
C585   C     0.59325   0.13333   0.61214   0.00000  Uiso   1.00
C586   C     0.16225   0.42532   0.50603   0.00000  Uiso   1.00
C587   C     0.12403   0.45121   0.47970   0.00000  Uiso   1.00
C588   C     0.12161   0.47071   0.53822   0.00000  Uiso   1.00
C589   C     0.15946   0.46630   0.61891   0.00000  Uiso   1.00
C590   C     0.20230   0.44233   0.64358   0.00000  Uiso   1.00
C591   C     0.20154   0.42129   0.58691   0.00000  Uiso   1.00
C592   C     0.59656   0.47521   0.46421   0.00000  Uiso   1.00
C593   C     0.56115   0.46814   0.38420   0.00000  Uiso   1.00
C594   C     0.52945   0.44054   0.36266   0.00000  Uiso   1.00
C595   C     0.53317   0.42020   0.42258   0.00000  Uiso   1.00
C596   C     0.56797   0.42748   0.50290   0.00000  Uiso   1.00
C597   C     0.60087   0.45488   0.52421   0.00000  Uiso   1.00
C598   C     0.67442   0.22478   0.46016   0.00000  Uiso   1.00
C599   C     0.68552   0.25321   0.49706   0.00000  Uiso   1.00
C600   C     0.70177   0.27741   0.46073   0.00000  Uiso   1.00
C601   C     0.70501   0.27330   0.38696   0.00000  Uiso   1.00
C602   C     0.69636   0.24459   0.35176   0.00000  Uiso   1.00
C603   C     0.68172   0.22026   0.38910   0.00000  Uiso   1.00
C604   C     0.57216   0.16888   0.50148   0.00000  Uiso   1.00
C605   C     0.59177   0.19122   0.46443   0.00000  Uiso   1.00
C606   C     0.77502   0.35064   0.55810   0.00000  Uiso   1.00
C607   C     0.76890   0.32052   0.53475   0.00000  Uiso   1.00
C608   C     0.70915   0.30777   0.49544   0.00000  Uiso   1.00
C609   C     0.65576   0.32459   0.48408   0.00000  Uiso   1.00
C610   C     0.66179   0.35460   0.50736   0.00000  Uiso   1.00
C611   C     0.72120   0.36810   0.54213   0.00000  Uiso   1.00
C612   C     0.70465   0.44609   0.74415   0.00000  Uiso   1.00
C613   C     0.64264   0.46213   0.60764   0.00000  Uiso   1.00
C614   C     0.70583   0.42543   0.80185   0.00000  Uiso   1.00
C615   C     0.67914   0.09443   0.33814   0.00000  Uiso   1.00
C616   C     0.65500   0.19966   0.49606   0.00000  Uiso   1.00
C617   C     0.64769   0.23398   0.20534   0.00000  Uiso   1.00
C618   C     0.74667   0.47041   0.76786   0.00000  Uiso   1.00
C619   C     0.72618   0.26842   0.71483   0.00000  Uiso   1.00
C620   C     0.73235   0.26369   0.64369   0.00000  Uiso   1.00
C621   C     0.71067   0.23245   0.13000   0.00000  Uiso   1.00
C622   C     0.70147   0.24016   0.27519   0.00000  Uiso   1.00
C623   C     0.65237   0.23008   0.13303   0.00000  Uiso   1.00
C624   C     0.76438   0.23863   0.19938   0.00000  Uiso   1.00
N625   N     0.66127   0.44143   0.66246   0.00000  Uiso   1.00
N626   N     0.77764   0.58481   0.07610   0.00000  Uiso   1.00
N627   N     0.13278   0.37983   0.17591   0.00000  Uiso   1.00
C628   C     0.99112   0.42972   0.39883   0.00000  Uiso   1.00
C629   C     0.72414   0.37019   0.19550   0.00000  Uiso   1.00
N630   N     0.77819   0.38129   0.20689   0.00000  Uiso   1.00
C631   C     0.61386   0.26144   0.64536   0.00000  Uiso   1.00
C632   C     0.66700   0.26726   0.71571   0.00000  Uiso   1.00
C633   C     0.99802   0.48272   0.05176   0.00000  Uiso   1.00
C634   C     0.97811   0.43169   0.00313   0.00000  Uiso   1.00
H635   H     0.81394   0.40798   0.38130   0.00000  Uiso   1.00
H636   H     0.98731   0.50395   0.34992   0.00000  Uiso   1.00
H637   H     0.19035   0.39070   0.01381   0.00000  Uiso   1.00
H638   H     0.19773   0.47239   0.14349   0.00000  Uiso   1.00
H639   H     0.31154   0.47354   0.19190   0.00000  Uiso   1.00
H640   H     0.30539   0.39092   0.06654   0.00000  Uiso   1.00
H641   H     0.09023   0.41417   0.99965   0.00000  Uiso   1.00
H642   H     0.74481   0.41310   0.92433   0.00000  Uiso   1.00
H643   H     0.68135   0.41315   0.51870   0.00000  Uiso   1.00
H644   H     0.87757   0.49633   0.30962   0.00000  Uiso   1.00
H645   H     0.91997   0.50929   0.03817   0.00000  Uiso   1.00
H646   H     0.54165   0.38429   0.11406   0.00000  Uiso   1.00
H647   H     0.48657   0.47562   0.03790   0.00000  Uiso   1.00
H648   H     0.52905   0.47027   0.93699   0.00000  Uiso   1.00
H649   H     0.58006   0.42275   0.92632   0.00000  Uiso   1.00
H650   H     0.58601   0.37978   0.01466   0.00000  Uiso   1.00
H651   H     0.88370   0.41615   0.96473   0.00000  Uiso   1.00
H652   H     0.80180   0.24724   0.32526   0.00000  Uiso   1.00
H653   H     0.59752   0.38938   0.32016   0.00000  Uiso   1.00
H654   H     0.59656   0.47193   0.19706   0.00000  Uiso   1.00
H655   H     0.71002   0.46872   0.24379   0.00000  Uiso   1.00
H656   H     0.71243   0.38722   0.37178   0.00000  Uiso   1.00
H657   H     0.77992   0.12990   0.40408   0.00000  Uiso   1.00
H658   H     0.57901   0.13292   0.26719   0.00000  Uiso   1.00
H659   H     0.58081   0.18746   0.28999   0.00000  Uiso   1.00
H660   H     0.78115   0.18409   0.42616   0.00000  Uiso   1.00
H661   H     0.24856   0.48258   0.76290   0.00000  Uiso   1.00
H662   H     0.61889   0.34340   0.18668   0.00000  Uiso   1.00
H663   H     0.61068   0.30196   0.26947   0.00000  Uiso   1.00
H664   H     0.71387   0.15247   0.65411   0.00000  Uiso   1.00
H665   H     0.31658   0.37979   0.36858   0.00000  Uiso   1.00
H666   H     0.32344   0.42214   0.45912   0.00000  Uiso   1.00
H667   H     0.37619   0.46953   0.45159   0.00000  Uiso   1.00
H668   H     0.41994   0.47530   0.35205   0.00000  Uiso   1.00
H669   H     0.36217   0.38467   0.27066   0.00000  Uiso   1.00
H670   H     0.70240   0.55238   0.94672   0.00000  Uiso   1.00
H671   H     0.72003   0.50265   0.91293   0.00000  Uiso   1.00
H672   H     0.88097   0.49451   0.14017   0.00000  Uiso   1.00
H673   H     0.86274   0.54604   0.17311   0.00000  Uiso   1.00
H674   H     0.91163   0.40458   0.39276   0.00000  Uiso   1.00
H675   H     0.28615   0.49549   0.90435   0.00000  Uiso   1.00
H676   H     0.33520   0.40884   0.84167   0.00000  Uiso   1.00
H677   H     0.39604   0.39745   0.98357   0.00000  Uiso   1.00
H678   H     0.34875   0.48443   0.04574   0.00000  Uiso   1.00
H679   H     0.81140   0.30235   0.40398   0.00000  Uiso   1.00
H680   H     0.04439   0.53931   0.21066   0.00000  Uiso   1.00
H681   H     0.02596   0.48825   0.24610   0.00000  Uiso   1.00
H682   H     0.18506   0.49809   0.47449   0.00000  Uiso   1.00
H683   H     0.20147   0.54765   0.43988   0.00000  Uiso   1.00
H684   H     0.99644   0.42366   0.26347   0.00000  Uiso   1.00
H685   H     0.19340   0.44734   0.37927   0.00000  Uiso   1.00
H686   H     0.21291   0.41497   0.28523   0.00000  Uiso   1.00
H687   H     0.01718   0.39063   0.17642   0.00000  Uiso   1.00
H688   H     0.81304   0.49532   0.86590   0.00000  Uiso   1.00
H689   H     0.82018   0.34407   0.32273   0.00000  Uiso   1.00
H690   H     0.74788   0.19177   0.58818   0.00000  Uiso   1.00
H691   H     0.57820   0.25264   0.51972   0.00000  Uiso   1.00
H692   H     0.91063   0.42938   0.12487   0.00000  Uiso   1.00
H693   H     0.88811   0.39478   0.21025   0.00000  Uiso   1.00
H694   H     0.69342   0.42066   0.10044   0.00000  Uiso   1.00
H695   H     0.71392   0.45350   0.00993   0.00000  Uiso   1.00
H696   H     0.54353   0.12888   0.58874   0.00000  Uiso   1.00
H697   H     0.16272   0.40813   0.46502   0.00000  Uiso   1.00
H698   H     0.09201   0.49030   0.51991   0.00000  Uiso   1.00
H699   H     0.15508   0.48176   0.66139   0.00000  Uiso   1.00
H700   H     0.23219   0.40189   0.60539   0.00000  Uiso   1.00
H701   H     0.62200   0.49630   0.47923   0.00000  Uiso   1.00
H702   H     0.55842   0.48422   0.33883   0.00000  Uiso   1.00
H703   H     0.50896   0.39881   0.40707   0.00000  Uiso   1.00
H704   H     0.57048   0.41141   0.54814   0.00000  Uiso   1.00
H705   H     0.52291   0.16291   0.47730   0.00000  Uiso   1.00
H706   H     0.55761   0.20246   0.41228   0.00000  Uiso   1.00
H707   H     0.82134   0.36062   0.58432   0.00000  Uiso   1.00
H708   H     0.81042   0.30750   0.54419   0.00000  Uiso   1.00
H709   H     0.60944   0.31481   0.45406   0.00000  Uiso   1.00
H710   H     0.61975   0.36770   0.49423   0.00000  Uiso   1.00
H711   H     0.65876   0.48511   0.62158   0.00000  Uiso   1.00
H712   H     0.67586   0.40577   0.78424   0.00000  Uiso   1.00
H713   H     0.72229   0.08371   0.37676   0.00000  Uiso   1.00
H714   H     0.60223   0.23239   0.20692   0.00000  Uiso   1.00
H715   H     0.75087   0.48559   0.72470   0.00000  Uiso   1.00
H716   H     0.76727   0.27300   0.76927   0.00000  Uiso   1.00
H717   H     0.77844   0.26461   0.64371   0.00000  Uiso   1.00
H718   H     0.71421   0.22949   0.07393   0.00000  Uiso   1.00
H719   H     0.61079   0.22532   0.07932   0.00000  Uiso   1.00
H720   H     0.80948   0.24043   0.19699   0.00000  Uiso   1.00
H721   H     0.02198   0.41050   0.42086   0.00000  Uiso   1.00
H722   H     0.68168   0.37716   0.14577   0.00000  Uiso   1.00
H723   H     0.56805   0.26060   0.64603   0.00000  Uiso   1.00
H724   H     0.66231   0.27094   0.77085   0.00000  Uiso   1.00
H725   H     0.02971   0.50111   0.07966   0.00000  Uiso   1.00
H726   H     0.99347   0.41013   0.99113   0.00000  Uiso   1.00
C727   C     0.38568   0.95026   0.34941   0.00000  Uiso   1.00
C728   C     0.28926   0.92657   0.34333   0.00000  Uiso   1.00
C729   C     0.92426   0.93258   0.24778   0.00000  Uiso   1.00
C730   C     0.99039   0.93408   0.27696   0.00000  Uiso   1.00
C731   C     0.01899   0.93220   0.22328   0.00000  Uiso   1.00
C732   C     0.98139   0.93231   0.14010   0.00000  Uiso   1.00
C733   C     0.91532   0.93415   0.11094   0.00000  Uiso   1.00
C734   C     0.88663   0.93269   0.16458   0.00000  Uiso   1.00
C735   C     0.47240   0.98160   0.35663   0.00000  Uiso   1.00
C736   C     0.71653   0.90860   0.05364   0.00000  Uiso   1.00
C737   C     0.68517   0.93152   0.07458   0.00000  Uiso   1.00
C738   C     0.72043   0.95461   0.12570   0.00000  Uiso   1.00
C739   C     0.78556   0.95516   0.15396   0.00000  Uiso   1.00
C740   C     0.81697   0.93219   0.13344   0.00000  Uiso   1.00
C741   C     0.78198   0.90885   0.08311   0.00000  Uiso   1.00
C742   C     0.51419   0.95704   0.38215   0.00000  Uiso   1.00
C743   C     0.61600   0.93151   0.04169   0.00000  Uiso   1.00
C744   C     0.32371   0.96413   0.99638   0.00000  Uiso   1.00
C745   C     0.24480   0.93009   0.88259   0.00000  Uiso   1.00
C746   C     0.28227   0.95627   0.90786   0.00000  Uiso   1.00
C747   C     0.22455   0.90096   0.54824   0.00000  Uiso   1.00
N748   N     0.62780   0.07890   0.30536   0.00000  Uiso   1.00
C749   C     0.58284   0.95866   0.39099   0.00000  Uiso   1.00
C750   C     0.40885   0.97769   0.33646   0.00000  Uiso   1.00
C751   C     0.43446   0.98690   0.03114   0.00000  Uiso   1.00
C752   C     0.03956   0.90331   0.07647   0.00000  Uiso   1.00
C753   C     0.01099   0.93027   0.08322   0.00000  Uiso   1.00
C754   C     0.00841   0.95465   0.03353   0.00000  Uiso   1.00
C755   C     0.03278   0.95178   0.97670   0.00000  Uiso   1.00
C756   C     0.06104   0.92488   0.97021   0.00000  Uiso   1.00
C757   C     0.06444   0.90067   0.02008   0.00000  Uiso   1.00
C758   C     0.41483   0.93523   0.98740   0.00000  Uiso   1.00
C759   C     0.25990   0.74247   0.27185   0.00000  Uiso   1.00
C760   C     0.12205   0.90692   0.30400   0.00000  Uiso   1.00
C761   C     0.08857   0.93075   0.25443   0.00000  Uiso   1.00
C762   C     0.12136   0.95317   0.23435   0.00000  Uiso   1.00
C763   C     0.18633   0.95149   0.26185   0.00000  Uiso   1.00
C764   C     0.22016   0.92788   0.31204   0.00000  Uiso   1.00
C765   C     0.18743   0.90559   0.33294   0.00000  Uiso   1.00
C766   C     0.23643   0.64231   0.37655   0.00000  Uiso   1.00
C767   C     0.17945   0.62735   0.33432   0.00000  Uiso   1.00
C768   C     0.12358   0.64402   0.29979   0.00000  Uiso   1.00
C769   C     0.12448   0.67502   0.31270   0.00000  Uiso   1.00
C770   C     0.18112   0.68938   0.35989   0.00000  Uiso   1.00
C771   C     0.23726   0.67315   0.38927   0.00000  Uiso   1.00
C772   C     0.52064   0.95532   0.03776   0.00000  Uiso   1.00
C773   C     0.76475   0.95968   0.77854   0.00000  Uiso   1.00
N774   N     0.74602   0.93840   0.72534   0.00000  Uiso   1.00
C775   C     0.16107   0.83475   0.23432   0.00000  Uiso   1.00
C776   C     0.15633   0.81131   0.28126   0.00000  Uiso   1.00
C777   C     0.17937   0.66300   0.60095   0.00000  Uiso   1.00
C778   C     0.83929   0.90055   0.36494   0.00000  Uiso   1.00
C779   C     0.84309   0.92444   0.41592   0.00000  Uiso   1.00
C780   C     0.87236   0.95126   0.41122   0.00000  Uiso   1.00
C781   C     0.89743   0.95437   0.35514   0.00000  Uiso   1.00
C782   C     0.89452   0.93029   0.30443   0.00000  Uiso   1.00
C783   C     0.86484   0.90343   0.30932   0.00000  Uiso   1.00
C784   C     0.28235   0.05341   0.06185   0.00000  Uiso   1.00
C785   C     0.24195   0.04022   0.98948   0.00000  Uiso   1.00
C786   C     0.25353   0.01160   0.96897   0.00000  Uiso   1.00
C787   C     0.30703   0.99536   0.01956   0.00000  Uiso   1.00
C788   C     0.34241   0.00724   0.09674   0.00000  Uiso   1.00
C789   C     0.33180   0.03646   0.11626   0.00000  Uiso   1.00
C790   C     0.42764   0.92629   0.38251   0.00000  Uiso   1.00
C791   C     0.81096   0.97426   0.92094   0.00000  Uiso   1.00
C792   C     0.80629   0.95314   0.86244   0.00000  Uiso   1.00
C793   C     0.83812   0.92555   0.88571   0.00000  Uiso   1.00
C794   C     0.87249   0.91895   0.96650   0.00000  Uiso   1.00
C795   C     0.87651   0.94005   0.02492   0.00000  Uiso   1.00
C796   C     0.84574   0.96779   0.00148   0.00000  Uiso   1.00
C797   C     0.17912   0.75783   0.57286   0.00000  Uiso   1.00
N798   N     0.58702   0.95234   0.06242   0.00000  Uiso   1.00
C799   C     0.21998   0.84657   0.24806   0.00000  Uiso   1.00
N800   N     0.31932   0.94779   0.32575   0.00000  Uiso   1.00
C801   C     0.26936   0.81157   0.35723   0.00000  Uiso   1.00
C802   C     0.21050   0.79947   0.34202   0.00000  Uiso   1.00
C803   C     0.11559   0.65500   0.57059   0.00000  Uiso   1.00
C804   C     0.57478   0.03025   0.26845   0.00000  Uiso   1.00
C805   C     0.56415   0.00124   0.28926   0.00000  Uiso   1.00
C806   C     0.59923   0.98983   0.36703   0.00000  Uiso   1.00
C807   C     0.65187   0.00657   0.41769   0.00000  Uiso   1.00
C808   C     0.66289   0.03519   0.39648   0.00000  Uiso   1.00
C809   C     0.62331   0.04775   0.32267   0.00000  Uiso   1.00
C810   C     0.54468   0.92138   0.27256   0.00000  Uiso   1.00
C811   C     0.59405   0.93680   0.33381   0.00000  Uiso   1.00
C812   C     0.65468   0.93474   0.33576   0.00000  Uiso   1.00
C813   C     0.66603   0.91644   0.28226   0.00000  Uiso   1.00
C814   C     0.61743   0.90005   0.22501   0.00000  Uiso   1.00
C815   C     0.55634   0.90281   0.21996   0.00000  Uiso   1.00
C816   C     0.28404   0.97551   0.84845   0.00000  Uiso   1.00
C817   C     0.39224   0.96251   0.00493   0.00000  Uiso   1.00
C818   C     0.27415   0.83517   0.31067   0.00000  Uiso   1.00
C819   C     0.19892   0.68527   0.56365   0.00000  Uiso   1.00
C820   C     0.11977   0.75684   0.57403   0.00000  Uiso   1.00
C821   C     0.31292   0.94241   0.05418   0.00000  Uiso   1.00
C822   C     0.36226   0.92678   0.11509   0.00000  Uiso   1.00
C823   C     0.34995   0.90735   0.16573   0.00000  Uiso   1.00
C824   C     0.28889   0.90360   0.15843   0.00000  Uiso   1.00
C825   C     0.24041   0.92131   0.10382   0.00000  Uiso   1.00
C826   C     0.25236   0.94041   0.05234   0.00000  Uiso   1.00
C827   C     0.09325   0.63333   0.61214   0.00000  Uiso   1.00
C828   C     0.66225   0.92532   0.50603   0.00000  Uiso   1.00
C829   C     0.62403   0.95121   0.47970   0.00000  Uiso   1.00
C830   C     0.62161   0.97071   0.53822   0.00000  Uiso   1.00
C831   C     0.65946   0.96630   0.61891   0.00000  Uiso   1.00
C832   C     0.70230   0.94233   0.64358   0.00000  Uiso   1.00
C833   C     0.70154   0.92129   0.58691   0.00000  Uiso   1.00
C834   C     0.09656   0.97521   0.46421   0.00000  Uiso   1.00
C835   C     0.06115   0.96814   0.38420   0.00000  Uiso   1.00
C836   C     0.02945   0.94054   0.36266   0.00000  Uiso   1.00
C837   C     0.03317   0.92020   0.42258   0.00000  Uiso   1.00
C838   C     0.06797   0.92748   0.50290   0.00000  Uiso   1.00
C839   C     0.10087   0.95488   0.52421   0.00000  Uiso   1.00
C840   C     0.17442   0.72478   0.46016   0.00000  Uiso   1.00
C841   C     0.18552   0.75321   0.49706   0.00000  Uiso   1.00
C842   C     0.20177   0.77741   0.46073   0.00000  Uiso   1.00
C843   C     0.20501   0.77330   0.38696   0.00000  Uiso   1.00
C844   C     0.19636   0.74459   0.35176   0.00000  Uiso   1.00
C845   C     0.18172   0.72026   0.38910   0.00000  Uiso   1.00
C846   C     0.07216   0.66888   0.50148   0.00000  Uiso   1.00
C847   C     0.09177   0.69122   0.46443   0.00000  Uiso   1.00
C848   C     0.27502   0.85064   0.55810   0.00000  Uiso   1.00
C849   C     0.26890   0.82052   0.53475   0.00000  Uiso   1.00
C850   C     0.20915   0.80777   0.49544   0.00000  Uiso   1.00
C851   C     0.15576   0.82459   0.48408   0.00000  Uiso   1.00
C852   C     0.16179   0.85460   0.50736   0.00000  Uiso   1.00
C853   C     0.22120   0.86810   0.54213   0.00000  Uiso   1.00
C854   C     0.20465   0.94609   0.74415   0.00000  Uiso   1.00
C855   C     0.14264   0.96213   0.60764   0.00000  Uiso   1.00
C856   C     0.20583   0.92543   0.80185   0.00000  Uiso   1.00
C857   C     0.17914   0.59443   0.33814   0.00000  Uiso   1.00
C858   C     0.15500   0.69966   0.49606   0.00000  Uiso   1.00
C859   C     0.14769   0.73398   0.20534   0.00000  Uiso   1.00
C860   C     0.24667   0.97041   0.76786   0.00000  Uiso   1.00
C861   C     0.22618   0.76842   0.71483   0.00000  Uiso   1.00
C862   C     0.23235   0.76369   0.64369   0.00000  Uiso   1.00
C863   C     0.21067   0.73245   0.13000   0.00000  Uiso   1.00
C864   C     0.20147   0.74016   0.27519   0.00000  Uiso   1.00
C865   C     0.15237   0.73008   0.13303   0.00000  Uiso   1.00
C866   C     0.26438   0.73863   0.19938   0.00000  Uiso   1.00
N867   N     0.16127   0.94143   0.66246   0.00000  Uiso   1.00
N868   N     0.27764   0.08481   0.07610   0.00000  Uiso   1.00
N869   N     0.63278   0.87983   0.17591   0.00000  Uiso   1.00
C870   C     0.49112   0.92972   0.39883   0.00000  Uiso   1.00
C871   C     0.22414   0.87019   0.19550   0.00000  Uiso   1.00
N872   N     0.27819   0.88129   0.20689   0.00000  Uiso   1.00
C873   C     0.11386   0.76144   0.64536   0.00000  Uiso   1.00
C874   C     0.16700   0.76726   0.71571   0.00000  Uiso   1.00
C875   C     0.49802   0.98272   0.05176   0.00000  Uiso   1.00
C876   C     0.47811   0.93169   0.00313   0.00000  Uiso   1.00
H877   H     0.31394   0.90798   0.38130   0.00000  Uiso   1.00
H878   H     0.48731   0.00395   0.34992   0.00000  Uiso   1.00
H879   H     0.69035   0.89070   0.01381   0.00000  Uiso   1.00
H880   H     0.69773   0.97239   0.14349   0.00000  Uiso   1.00
H881   H     0.81154   0.97354   0.19190   0.00000  Uiso   1.00
H882   H     0.80539   0.89092   0.06654   0.00000  Uiso   1.00
H883   H     0.59023   0.91417   0.99965   0.00000  Uiso   1.00
H884   H     0.24481   0.91310   0.92433   0.00000  Uiso   1.00
H885   H     0.18135   0.91315   0.51870   0.00000  Uiso   1.00
H886   H     0.37757   0.99633   0.30962   0.00000  Uiso   1.00
H887   H     0.41997   0.00929   0.03817   0.00000  Uiso   1.00
H888   H     0.04165   0.88429   0.11406   0.00000  Uiso   1.00
H889   H     0.98657   0.97562   0.03790   0.00000  Uiso   1.00
H890   H     0.02905   0.97027   0.93699   0.00000  Uiso   1.00
H891   H     0.08006   0.92275   0.92632   0.00000  Uiso   1.00
H892   H     0.08601   0.87978   0.01466   0.00000  Uiso   1.00
H893   H     0.38370   0.91615   0.96473   0.00000  Uiso   1.00
H894   H     0.30180   0.74724   0.32526   0.00000  Uiso   1.00
H895   H     0.09752   0.88938   0.32016   0.00000  Uiso   1.00
H896   H     0.09656   0.97193   0.19706   0.00000  Uiso   1.00
H897   H     0.21002   0.96872   0.24379   0.00000  Uiso   1.00
H898   H     0.21243   0.88722   0.37178   0.00000  Uiso   1.00
H899   H     0.27992   0.62990   0.40408   0.00000  Uiso   1.00
H900   H     0.07901   0.63292   0.26719   0.00000  Uiso   1.00
H901   H     0.08081   0.68746   0.28999   0.00000  Uiso   1.00
H902   H     0.28115   0.68409   0.42616   0.00000  Uiso   1.00
H903   H     0.74856   0.98258   0.76290   0.00000  Uiso   1.00
H904   H     0.11889   0.84340   0.18668   0.00000  Uiso   1.00
H905   H     0.11068   0.80196   0.26947   0.00000  Uiso   1.00
H906   H     0.21387   0.65247   0.65411   0.00000  Uiso   1.00
H907   H     0.81658   0.87979   0.36858   0.00000  Uiso   1.00
H908   H     0.82344   0.92214   0.45912   0.00000  Uiso   1.00
H909   H     0.87619   0.96953   0.45159   0.00000  Uiso   1.00
H910   H     0.91994   0.97530   0.35205   0.00000  Uiso   1.00
H911   H     0.86217   0.88467   0.27066   0.00000  Uiso   1.00
H912   H     0.20240   0.05238   0.94672   0.00000  Uiso   1.00
H913   H     0.22003   0.00265   0.91293   0.00000  Uiso   1.00
H914   H     0.38097   0.99451   0.14017   0.00000  Uiso   1.00
H915   H     0.36274   0.04604   0.17311   0.00000  Uiso   1.00
H916   H     0.41163   0.90458   0.39276   0.00000  Uiso   1.00
H917   H     0.78615   0.99549   0.90435   0.00000  Uiso   1.00
H918   H     0.83520   0.90884   0.84167   0.00000  Uiso   1.00
H919   H     0.89604   0.89745   0.98357   0.00000  Uiso   1.00
H920   H     0.84875   0.98443   0.04574   0.00000  Uiso   1.00
H921   H     0.31140   0.80235   0.40398   0.00000  Uiso   1.00
H922   H     0.54439   0.03931   0.21066   0.00000  Uiso   1.00
H923   H     0.52596   0.98825   0.24610   0.00000  Uiso   1.00
H924   H     0.68506   0.99809   0.47449   0.00000  Uiso   1.00
H925   H     0.70147   0.04765   0.43988   0.00000  Uiso   1.00
H926   H     0.49644   0.92366   0.26347   0.00000  Uiso   1.00
H927   H     0.69340   0.94734   0.37927   0.00000  Uiso   1.00
H928   H     0.71291   0.91497   0.28523   0.00000  Uiso   1.00
H929   H     0.51718   0.89063   0.17642   0.00000  Uiso   1.00
H930   H     0.31304   0.99532   0.86590   0.00000  Uiso   1.00
H931   H     0.32018   0.84407   0.32273   0.00000  Uiso   1.00
H932   H     0.24788   0.69177   0.58818   0.00000  Uiso   1.00
H933   H     0.07820   0.75264   0.51972   0.00000  Uiso   1.00
H934   H     0.41063   0.92938   0.12487   0.00000  Uiso   1.00
H935   H     0.38811   0.89478   0.21025   0.00000  Uiso   1.00
H936   H     0.19342   0.92066   0.10044   0.00000  Uiso   1.00
H937   H     0.21392   0.95350   0.00993   0.00000  Uiso   1.00
H938   H     0.04353   0.62888   0.58874   0.00000  Uiso   1.00
H939   H     0.66272   0.90813   0.46502   0.00000  Uiso   1.00
H940   H     0.59201   0.99030   0.51991   0.00000  Uiso   1.00
H941   H     0.65508   0.98176   0.66139   0.00000  Uiso   1.00
H942   H     0.73219   0.90189   0.60539   0.00000  Uiso   1.00
H943   H     0.12200   0.99630   0.47923   0.00000  Uiso   1.00
H944   H     0.05842   0.98422   0.33883   0.00000  Uiso   1.00
H945   H     0.00896   0.89881   0.40707   0.00000  Uiso   1.00
H946   H     0.07048   0.91141   0.54814   0.00000  Uiso   1.00
H947   H     0.02291   0.66291   0.47730   0.00000  Uiso   1.00
H948   H     0.05761   0.70246   0.41228   0.00000  Uiso   1.00
H949   H     0.32134   0.86062   0.58432   0.00000  Uiso   1.00
H950   H     0.31042   0.80750   0.54419   0.00000  Uiso   1.00
H951   H     0.10944   0.81481   0.45406   0.00000  Uiso   1.00
H952   H     0.11975   0.86770   0.49423   0.00000  Uiso   1.00
H953   H     0.15876   0.98511   0.62158   0.00000  Uiso   1.00
H954   H     0.17586   0.90577   0.78424   0.00000  Uiso   1.00
H955   H     0.22229   0.58371   0.37676   0.00000  Uiso   1.00
H956   H     0.10223   0.73239   0.20692   0.00000  Uiso   1.00
H957   H     0.25087   0.98559   0.72470   0.00000  Uiso   1.00
H958   H     0.26727   0.77300   0.76927   0.00000  Uiso   1.00
H959   H     0.27844   0.76461   0.64371   0.00000  Uiso   1.00
H960   H     0.21421   0.72949   0.07393   0.00000  Uiso   1.00
H961   H     0.11079   0.72532   0.07932   0.00000  Uiso   1.00
H962   H     0.30948   0.74043   0.19699   0.00000  Uiso   1.00
H963   H     0.52198   0.91050   0.42086   0.00000  Uiso   1.00
H964   H     0.18168   0.87716   0.14577   0.00000  Uiso   1.00
H965   H     0.06805   0.76060   0.64603   0.00000  Uiso   1.00
H966   H     0.16231   0.77094   0.77085   0.00000  Uiso   1.00
H967   H     0.52971   0.00111   0.07966   0.00000  Uiso   1.00
H968   H     0.49347   0.91013   0.99113   0.00000  Uiso   1.00
loop_
_geom_bond_atom_site_label_1
_geom_bond_atom_site_label_2
_geom_bond_distance
_geom_bond_site_symmetry_2
_ccdc_geom_bond_type
C1     C24     1.397   .     D
C1     C64     1.408   .     S
C1     N74     1.439   .     S
C2     C38     1.482   .     S
C2     N74     1.299   .     D
C2     H151    1.084   .     S
C3     C4      1.420   .     S
C3     C8      1.423   .     D
C3     C56     1.487   .     S
C4     C5      1.416   .     D
C4     C110    1.494   .     S
C5     C6      1.422   .     S
C5     C35     1.493   .     S
C6     C7      1.420   .     D
C6     C27     1.487   .     S
C7     C8      1.416   .     S
C7     C69     1.494   .     S
C8     C14     1.494   .     S
C9     C24     1.393   .     S
C9     H152    1.078   .     S
C9     C16     1.413   1_655 D
C10    C11     1.404   .     S
C10    C15     1.403   .     D
C10    H153    1.086   .     S
C11    C12     1.409   .     D
C11    C17     1.481   .     S
C12    C13     1.398   .     S
C12    H154    1.079   .     S
C13    C14     1.402   .     D
C13    H155    1.085   .     S
C14    C15     1.409   .     S
C15    H156    1.083   .     S
C16    C23     1.555   .     S
C16    C9      1.413   1_455 D
C16    C144    1.416   1_455 S
C17    N72     1.299   .     D
C17    H157    1.084   .     S
C18    C20     1.559   .     S
C18    C61     1.551   .     S
C18    C91     1.554   .     S
C18    C95     1.539   .     S
C19    C20     1.417   .     S
C19    C130    1.407   .     D
C19    H158    1.081   .     S
C20    C90     1.408   .     D
C21    C127    1.465   .     S
C21    H159    1.079   .     S
C21    N626    1.300   .     D
N22    C83     1.435   .     S
N22    C373    1.302   .     D
C23    C80     1.552   .     S
C23    C85     1.539   .     S
C23    C103    1.557   .     S
C24    H160    1.082   .     S
C25    C91     1.413   .     D
C25    C149    1.393   .     S
C25    H161    1.078   .     S
C26    C27     1.405   .     D
C26    C31     1.398   .     S
C26    H162    1.083   .     S
C27    C28     1.407   .     S
C28    C29     1.398   .     D
C28    H163    1.084   .     S
C29    C30     1.398   .     S
C29    H164    1.082   .     S
C30    C31     1.399   .     D
C30    H165    1.083   .     S
C31    H166    1.083   .     S
C32    C91     1.415   .     S
C32    C150    1.401   .     D
C32    H167    1.085   .     S
C33    C138    1.405   .     D
C33    C140    1.400   .     S
C33    H168    1.088   .     S
C34    C35     1.409   .     D
C34    C39     1.404   .     S
C34    H169    1.084   .     S
C35    C36     1.402   .     S
C36    C37     1.397   .     D
C36    H170    1.085   .     S
C37    C38     1.409   .     S
C37    H171    1.079   .     S
C38    C39     1.404   .     D
C39    H172    1.086   .     S
C40    C41     1.407   .     D
C40    C45     1.390   .     S
C40    H173    1.085   .     S
C41    C42     1.409   .     S
C41    C131    1.466   .     S
C42    C43     1.398   .     D
C42    H174    1.087   .     S
C43    C44     1.406   .     S
C43    H175    1.086   .     S
C44    C45     1.401   .     D
C44    C119    1.474   .     S
C45    H176    1.087   .     S
C46    N72     1.439   .     S
C46    C149    1.396   1_455 D
C46    C150    1.408   1_455 S
C47    N48     1.304   .     D
C47    C66     1.480   .     S
C47    H177    1.084   .     S
N48    C106    1.444   .     S
C49    C50     1.391   .     S
C49    C73     1.403   .     D
C49    H178    1.088   .     S
C50    C76     1.405   .     D
C50    H179    1.086   .     S
C51    C77     1.411   .     D
C51    C93     1.390   .     S
C51    H180    1.088   .     S
C52    C53     1.399   .     S
C52    C57     1.398   .     D
C52    H181    1.083   .     S
C53    C54     1.398   .     D
C53    H182    1.082   .     S
C54    C55     1.398   .     S
C54    H183    1.082   .     S
C55    C56     1.407   .     D
C55    H184    1.084   .     S
C56    C57     1.405   .     S
C57    H185    1.084   .     S
C58    C59     1.409   .     S
C58    C63     1.401   .     D
C58    N142    1.434   .     S
C59    C60     1.387   .     D
C59    H186    1.083   .     S
C60    C61     1.415   .     S
C60    H187    1.085   .     S
C61    C62     1.423   .     D
C62    C63     1.399   .     S
C62    H188    1.088   .     S
C63    H189    1.087   .     S
C64    C144    1.403   .     D
C64    H190    1.081   .     S
C65    C66     1.403   .     D
C65    C70     1.401   .     S
C65    H191    1.085   .     S
C66    C67     1.408   .     S
C67    C68     1.405   .     D
C67    H192    1.084   .     S
C68    C69     1.405   .     S
C68    H193    1.084   .     S
C69    C70     1.404   .     D
C70    H194    1.084   .     S
C71    C94     1.406   .     D
C71    C136    1.411   .     S
C71    C115    1.487   1_554 S
C73    C92     1.413   .     S
C73    C145    1.463   .     S
C75    C76     1.400   .     S
C75    C92     1.392   .     D
C75    H195    1.088   .     S
C76    C117    1.467   .     S
C77    C101    1.460   .     S
C77    C120    1.406   .     S
C78    C79     1.398   .     S
C78    C83     1.401   .     D
C78    H196    1.087   .     S
C79    C80     1.423   .     D
C79    H197    1.087   .     S
C80    C81     1.415   .     S
C81    C82     1.388   .     D
C81    H198    1.084   .     S
C82    C83     1.410   .     S
C82    H199    1.082   .     S
C84    C85     1.418   .     D
C84    C89     1.389   .     S
C84    H200    1.080   1_455 S
C85    C86     1.414   .     S
C86    C87     1.391   .     D
C86    H201    1.087   .     S
C87    C88     1.398   .     S
C87    H202    1.083   .     S
C88    C89     1.406   .     D
C88    N143    1.428   .     S
C89    H203    1.084   .     S
C90    C134    1.400   .     S
C90    H204    1.078   .     S
C92    H205    1.085   .     S
C93    H206    1.087   .     S
C93    C132    1.403   1_554 D
C94    C147    1.400   .     S
C94    H207    1.088   .     S
C95    C96     1.419   .     D
C95    C100    1.413   .     S
C96    C97     1.391   .     S
C96    H208    1.081   .     S
C97    C98     1.395   .     D
C97    H209    1.087   .     S
C98    C99     1.409   .     S
C98    N146    1.429   .     S
C99    C100    1.390   .     D
C99    H210    1.081   .     S
C100   H211    1.088   .     S
C101   H212    1.083   .     S
C101   N869    1.299   .     D
C102   C107    1.407   .     S
C102   C103    1.417   1_554 D
C102   H213    1.081   1_554 S
C103   C102    1.417   1_556 D
C103   C104    1.407   1_556 S
C104   C105    1.399   .     D
C104   H214    1.078   .     S
C104   C103    1.407   1_554 S
C105   C106    1.406   .     S
C105   H215    1.081   .     S
C106   C107    1.401   .     D
C107   H216    1.084   .     S
C108   C109    1.401   .     S
C108   H217    1.085   .     S
C108   C113    1.403   1_556 D
C109   C110    1.405   .     D
C109   H218    1.085   .     S
C110   C111    1.406   .     S
C111   H219    1.084   .     S
C111   C112    1.405   1_556 D
C112   C113    1.409   .     S
C112   H220    1.084   .     S
C112   C111    1.405   1_554 D
C113   C129    1.481   .     S
C113   C108    1.403   1_554 D
C114   C115    1.409   .     D
C114   C119    1.411   .     S
C114   C132    1.467   .     S
C115   C116    1.404   .     S
C115   C71     1.487   1_556 S
C116   C117    1.411   .     D
C116   C124    1.474   .     S
C117   C118    1.409   .     S
C118   C119    1.402   .     D
C118   C138    1.485   .     S
C120   C121    1.390   1_554 D
C120   H221    1.087   1_554 S
C121   C132    1.404   .     S
C121   H222    1.088   .     S
C121   C120    1.390   1_556 D
C122   C123    1.396   .     D
C122   C127    1.408   .     S
C122   H223    1.086   .     S
C123   H224    1.085   .     S
C123   C124    1.406   1_554 S
C124   C125    1.400   .     D
C124   C123    1.406   1_556 S
C125   H225    1.087   .     S
C125   C126    1.391   1_556 S
C126   C127    1.407   .     D
C126   C125    1.391   1_554 S
C126   H226    1.085   1_554 S
C128   C130    1.401   .     S
C128   C134    1.406   .     D
C128   N141    1.445   .     S
C129   N141    1.304   .     D
C129   H227    1.083   .     S
C130   H228    1.085   .     S
C131   H229    1.079   .     S
C131   N264    1.302   .     D
C132   C93     1.403   1_556 D
C133   C138    1.410   .     S
C133   C139    1.399   .     D
C133   H230    1.084   .     S
C134   H231    1.082   .     S
C135   C136    1.400   .     D
C135   C148    1.400   .     S
C135   H232    1.087   .     S
C136   H233    1.085   .     S
C137   C139    1.399   .     S
C137   C140    1.405   .     D
C137   H234    1.084   .     S
C139   H235    1.087   .     S
C140   H236    1.083   .     S
N142   C505    1.300   .     D
N143   C827    1.299   .     D
C144   C16     1.416   1_655 S
C144   H237    1.085   1_655 S
C145   N146    1.297   .     D
C145   H238    1.085   .     S
C147   C148    1.405   .     D
C147   H239    1.083   .     S
C148   H240    1.084   .     S
C149   C46     1.396   1_655 D
C149   H241    1.082   1_655 S
C150   H242    1.080   .     S
C150   C46     1.408   1_655 S
H200   C84     1.080   1_655 S
H213   C102    1.081   1_556 S
H221   C120    1.087   1_556 S
H226   C126    1.085   1_556 S
H237   C144    1.085   1_455 S
H241   C149    1.082   1_455 S
C243   C266    1.397   .     S
C243   C306    1.408   .     D
C243   N316    1.439   .     S
C244   C280    1.482   .     S
C244   N316    1.299   .     D
C244   H393    1.084   .     S
C245   C246    1.420   .     S
C245   C250    1.423   .     D
C245   C298    1.487   .     S
C246   C247    1.416   1_655 D
C246   C352    1.494   1_655 S
C247   C277    1.493   .     S
C247   C246    1.416   1_455 D
C247   C248    1.422   1_455 S
C248   C249    1.420   .     D
C248   C247    1.422   1_655 S
C248   C269    1.487   1_655 S
C249   C250    1.416   .     S
C249   C311    1.494   .     S
C250   C256    1.494   .     S
C251   C258    1.413   .     S
C251   C266    1.393   .     D
C251   H394    1.078   1_545 S
C252   C253    1.404   .     S
C252   C257    1.403   .     D
C252   H395    1.086   .     S
C253   C254    1.409   .     D
C253   C259    1.481   .     S
C254   C255    1.398   .     S
C254   H396    1.079   .     S
C255   C256    1.402   .     D
C255   H397    1.085   .     S
C256   C257    1.409   .     S
C257   H398    1.083   .     S
C258   C265    1.555   .     S
C258   C386    1.416   .     D
C259   N314    1.299   .     D
C259   H399    1.084   .     S
C260   C262    1.559   .     S
C260   C303    1.551   .     S
C260   C333    1.554   .     S
C260   C337    1.539   .     S
C261   C262    1.417   .     S
C261   C372    1.407   .     D
C261   H400    1.081   .     S
C262   C332    1.408   .     D
C263   C369    1.465   .     S
C263   H401    1.079   .     S
C263   N868    1.300   .     D
N264   C325    1.435   .     S
C265   C322    1.552   .     S
C265   C327    1.539   .     S
C265   C345    1.557   .     S
C266   H402    1.082   .     S
C267   C333    1.413   .     D
C267   C391    1.393   .     S
C267   H403    1.078   1_545 S
C268   C269    1.405   .     D
C268   C273    1.398   .     S
C268   H404    1.083   .     S
C269   C270    1.407   .     S
C269   C248    1.487   1_455 S
C270   C271    1.398   .     D
C270   H405    1.084   1_455 S
C271   C272    1.398   .     S
C271   H406    1.082   .     S
C272   C273    1.399   .     D
C272   H407    1.083   .     S
C273   H408    1.083   .     S
C274   C333    1.415   .     S
C274   C392    1.401   .     D
C274   H409    1.085   .     S
C275   C380    1.405   .     D
C275   C382    1.400   .     S
C275   H410    1.088   .     S
C276   C277    1.409   .     S
C276   C281    1.404   .     D
C276   H411    1.084   .     S
C277   C278    1.402   .     D
C278   C279    1.397   .     S
C278   H412    1.085   .     S
C279   C280    1.409   .     D
C279   H413    1.079   .     S
C280   C281    1.404   .     S
C281   H414    1.086   .     S
C282   C283    1.407   .     S
C282   C287    1.390   .     D
C282   H415    1.085   .     S
C283   C284    1.409   .     D
C283   C373    1.466   .     S
C284   C285    1.398   .     S
C284   H416    1.087   .     S
C285   C286    1.406   .     D
C285   H417    1.086   .     S
C286   C287    1.401   .     S
C286   C361    1.474   .     S
C287   H418    1.087   .     S
C288   N314    1.439   .     S
C288   C391    1.396   .     D
C288   C392    1.408   .     S
C289   N290    1.304   .     D
C289   C308    1.480   .     S
C289   H419    1.084   .     S
N290   C348    1.444   .     S
C291   C292    1.391   .     D
C291   C315    1.403   .     S
C291   H420    1.088   .     S
C292   C318    1.405   .     S
C292   H421    1.086   .     S
C293   C319    1.411   .     S
C293   C335    1.390   .     D
C293   H422    1.088   .     S
C294   C295    1.399   .     S
C294   C299    1.398   .     D
C294   H423    1.083   .     S
C295   C296    1.398   .     D
C295   H424    1.082   .     S
C296   C297    1.398   .     S
C296   H425    1.082   .     S
C297   C298    1.407   .     D
C297   H426    1.084   .     S
C298   C299    1.405   .     S
C299   H427    1.084   .     S
C300   C301    1.409   .     D
C300   C305    1.401   .     S
C300   N384    1.434   .     S
C301   C302    1.387   .     S
C301   H428    1.083   .     S
C302   H429    1.085   .     S
C302   C303    1.415   1_565 D
C303   C302    1.415   1_545 D
C303   C304    1.423   1_545 S
C304   C305    1.399   .     D
C304   C303    1.423   1_565 S
C304   H430    1.088   1_565 S
C305   H431    1.087   .     S
C306   C386    1.403   .     S
C306   H432    1.081   .     S
C307   C308    1.403   .     S
C307   C312    1.401   .     D
C307   H433    1.085   .     S
C308   C309    1.408   .     D
C309   C310    1.405   .     S
C309   H434    1.084   .     S
C310   C311    1.405   .     D
C310   H435    1.084   .     S
C311   C312    1.404   .     S
C312   H436    1.084   .     S
C313   C336    1.406   .     D
C313   C378    1.411   .     S
C313   C357    1.487   1_554 S
C315   C334    1.413   .     D
C315   C387    1.463   .     S
C317   C318    1.400   .     D
C317   C334    1.392   .     S
C317   H437    1.088   .     S
C318   C359    1.467   .     S
C319   C343    1.460   .     S
C319   C362    1.406   .     D
C320   C321    1.398   .     D
C320   C325    1.401   .     S
C320   H438    1.087   .     S
C321   C322    1.423   1_565 S
C321   H439    1.087   1_565 S
C322   C321    1.423   1_545 S
C322   C323    1.415   1_545 D
C323   C324    1.388   .     S
C323   C322    1.415   1_565 D
C323   H440    1.084   1_565 S
C324   C325    1.410   .     D
C324   H441    1.082   .     S
C326   C327    1.418   .     S
C326   C331    1.389   .     D
C326   H442    1.080   .     S
C327   C328    1.414   .     D
C328   C329    1.391   .     S
C328   H443    1.087   .     S
C329   C330    1.398   .     D
C329   H444    1.083   .     S
C330   C331    1.406   .     S
C330   N385    1.428   .     S
C331   H445    1.084   .     S
C332   C376    1.400   .     S
C332   H446    1.078   .     S
C334   H447    1.085   .     S
C335   H448    1.087   .     S
C335   C374    1.403   1_554 S
C336   C389    1.400   .     S
C336   H449    1.088   .     S
C337   C338    1.419   .     S
C337   C342    1.413   .     D
C338   C339    1.391   .     D
C338   H450    1.081   .     S
C339   C340    1.395   .     S
C339   H451    1.087   .     S
C340   C341    1.409   .     D
C340   N388    1.429   .     S
C341   C342    1.390   .     S
C341   H452    1.081   .     S
C342   H453    1.088   .     S
C343   H454    1.083   .     S
C343   N627    1.299   .     D
C344   C349    1.407   .     D
C344   C345    1.417   1_554 S
C344   H455    1.081   1_554 S
C345   C344    1.417   1_556 S
C345   C346    1.407   1_556 D
C346   C347    1.399   .     S
C346   H456    1.078   .     S
C346   C345    1.407   1_554 D
C347   C348    1.406   .     D
C347   H457    1.081   .     S
C348   C349    1.401   .     S
C349   H458    1.084   .     S
C350   C351    1.401   .     S
C350   H459    1.085   .     S
C350   C355    1.403   1_556 D
C351   C352    1.405   .     D
C351   H460    1.085   .     S
C352   C353    1.406   .     S
C352   C246    1.494   1_455 S
C353   H461    1.084   .     S
C353   C354    1.405   1_556 D
C354   C355    1.409   .     S
C354   H462    1.084   .     S
C354   C353    1.405   1_554 D
C355   C371    1.481   .     S
C355   C350    1.403   1_554 D
C356   C357    1.409   .     D
C356   C361    1.411   .     S
C356   C374    1.467   .     S
C357   C358    1.404   .     S
C357   C313    1.487   1_556 S
C358   C359    1.411   .     D
C358   C366    1.474   .     S
C359   C360    1.409   .     S
C360   C361    1.402   .     D
C360   C380    1.485   .     S
C362   C363    1.390   1_554 S
C362   H463    1.087   1_554 S
C363   C374    1.404   .     D
C363   H464    1.088   .     S
C363   C362    1.390   1_556 S
C364   C365    1.396   .     S
C364   C369    1.408   .     D
C364   H465    1.086   .     S
C365   H466    1.085   .     S
C365   C366    1.406   1_554 D
C366   C367    1.400   .     S
C366   C365    1.406   1_556 D
C367   H467    1.087   .     S
C367   C368    1.391   1_556 D
C368   C369    1.407   .     S
C368   C367    1.391   1_554 D
C368   H468    1.085   1_554 S
C370   C372    1.401   .     S
C370   C376    1.406   .     D
C370   N383    1.445   .     S
C371   N383    1.304   .     D
C371   H469    1.083   .     S
C372   H470    1.085   .     S
C373   H471    1.079   .     S
C374   C335    1.403   1_556 S
C375   C380    1.410   .     S
C375   C381    1.399   .     D
C375   H472    1.084   .     S
C376   H473    1.082   .     S
C377   C378    1.400   .     D
C377   C390    1.400   .     S
C377   H474    1.087   .     S
C378   H475    1.085   .     S
C379   C381    1.399   .     S
C379   C382    1.405   .     D
C379   H476    1.084   .     S
C381   H477    1.087   .     S
C382   H478    1.083   .     S
N384   C747    1.300   .     D
N385   C585    1.299   .     D
C386   H479    1.085   .     S
C387   N388    1.297   .     D
C387   H480    1.085   .     S
C389   C390    1.405   .     D
C389   H481    1.083   .     S
C390   H482    1.084   .     S
C391   H483    1.082   1_545 S
C392   H484    1.080   .     S
H394   C251    1.078   1_565 S
H403   C267    1.078   1_565 S
H405   C270    1.084   1_655 S
H430   C304    1.088   1_545 S
H439   C321    1.087   1_545 S
H440   C323    1.084   1_545 S
H455   C344    1.081   1_556 S
H463   C362    1.087   1_556 S
H468   C368    1.085   1_556 S
H483   C391    1.082   1_565 S
C485   C508    1.397   .     S
C485   C548    1.408   .     D
C485   N558    1.439   .     S
C486   C522    1.482   .     S
C486   N558    1.299   .     D
C486   H635    1.084   .     S
C487   C488    1.420   .     D
C487   C492    1.423   .     S
C487   C540    1.487   .     S
C488   C489    1.416   .     S
C488   C594    1.494   .     S
C489   C490    1.422   .     D
C489   C519    1.493   .     S
C490   C491    1.420   .     S
C490   C511    1.487   .     S
C491   C492    1.416   .     D
C491   C553    1.494   .     S
C492   C498    1.494   .     S
C493   C508    1.393   .     D
C493   H636    1.078   .     S
C493   C500    1.413   1_655 S
C494   C495    1.404   .     S
C494   C499    1.403   .     D
C494   H637    1.086   .     S
C495   C496    1.409   .     D
C495   C501    1.481   .     S
C496   C497    1.398   .     S
C496   H638    1.079   .     S
C497   C498    1.402   .     D
C497   H639    1.085   .     S
C498   C499    1.409   .     S
C499   H640    1.083   .     S
C500   C507    1.555   .     S
C500   C493    1.413   1_455 S
C500   C628    1.416   1_455 D
C501   N556    1.299   .     D
C501   H641    1.084   1_554 S
C502   C504    1.559   .     S
C502   C545    1.551   1_556 S
C502   C575    1.554   1_556 S
C502   C579    1.539   1_556 S
C503   C504    1.417   .     D
C503   C614    1.407   .     S
C503   H642    1.081   .     S
C504   C574    1.408   .     S
C505   C611    1.465   .     S
C505   H643    1.079   .     S
N506   C567    1.435   .     S
N506   C857    1.302   .     D
C507   C564    1.552   .     S
C507   C569    1.539   .     S
C507   C587    1.557   .     S
C508   H644    1.082   .     S
C509   C575    1.413   .     D
C509   C633    1.393   .     S
C509   H645    1.078   .     S
C510   C511    1.405   .     D
C510   C515    1.398   .     S
C510   H646    1.083   .     S
C511   C512    1.407   .     S
C512   H647    1.084   .     S
C512   C513    1.398   1_554 D
C513   C514    1.398   .     S
C513   H648    1.082   .     S
C513   C512    1.398   1_556 D
C514   H649    1.083   .     S
C514   C515    1.399   1_556 D
C515   H650    1.083   .     S
C515   C514    1.399   1_554 D
C516   H651    1.085   .     S
C516   C575    1.415   1_556 S
C516   C634    1.401   1_556 D
C517   C622    1.405   .     D
C517   C624    1.400   .     S
C517   H652    1.088   .     S
C518   C519    1.409   .     S
C518   C523    1.404   .     D
C518   H653    1.084   .     S
C519   C520    1.402   .     D
C520   C521    1.397   .     S
C520   H654    1.085   .     S
C521   C522    1.409   .     D
C521   H655    1.079   .     S
C522   C523    1.404   .     S
C523   H656    1.086   .     S
C524   C525    1.407   .     S
C524   C529    1.390   .     D
C524   H657    1.085   .     S
C525   C526    1.409   .     D
C525   C615    1.466   .     S
C526   C527    1.398   .     S
C526   H658    1.087   .     S
C527   C528    1.406   .     D
C527   H659    1.086   .     S
C528   C529    1.401   .     S
C528   C603    1.474   .     S
C529   H660    1.087   .     S
C530   N556    1.439   .     S
C530   C633    1.396   1_455 D
C530   C634    1.408   1_455 S
C531   N532    1.304   .     D
C531   C550    1.480   .     S
C531   H661    1.084   .     S
N532   C590    1.444   .     S
C533   C534    1.391   .     S
C533   C557    1.403   .     D
C533   H662    1.088   .     S
C534   C560    1.405   .     D
C534   H663    1.086   .     S
C535   C561    1.411   .     D
C535   C577    1.390   .     S
C535   H664    1.088   .     S
C536   C537    1.399   .     S
C536   C541    1.398   .     D
C536   H665    1.083   .     S
C537   C538    1.398   .     D
C537   H666    1.082   .     S
C538   C539    1.398   .     S
C538   H667    1.082   .     S
C539   C540    1.407   .     D
C539   H668    1.084   .     S
C540   C541    1.405   .     S
C541   H669    1.084   .     S
C542   C547    1.401   .     D
C542   N626    1.434   .     S
C542   C543    1.409   1_554 S
C543   C544    1.387   .     D
C543   H670    1.083   .     S
C543   C542    1.409   1_556 S
C544   H671    1.085   .     S
C544   C545    1.415   1_556 S
C545   C546    1.423   .     D
C545   C502    1.551   1_554 S
C545   C544    1.415   1_554 S
C546   C547    1.399   .     S
C546   H672    1.088   .     S
C547   H673    1.087   .     S
C548   C628    1.403   .     S
C548   H674    1.081   .     S
C549   C550    1.403   .     D
C549   H675    1.085   .     S
C549   C554    1.401   1_556 S
C550   C551    1.408   .     S
C551   C552    1.405   .     D
C551   H676    1.084   .     S
C552   H677    1.084   .     S
C552   C553    1.405   1_556 S
C553   C554    1.404   .     D
C553   C552    1.405   1_554 S
C554   H678    1.084   .     S
C554   C549    1.401   1_554 S
C555   C578    1.406   .     D
C555   C599    1.487   .     S
C555   C620    1.411   .     S
C557   C576    1.413   .     S
C557   C629    1.463   .     S
C559   C560    1.400   .     S
C559   C576    1.392   .     D
C559   H679    1.088   .     S
C560   C601    1.467   .     S
C561   C585    1.460   .     S
C561   C604    1.406   .     S
C562   C563    1.398   .     D
C562   C567    1.401   .     S
C562   H680    1.087   .     S
C563   C564    1.423   .     S
C563   H681    1.087   .     S
C564   C565    1.415   .     D
C565   C566    1.388   .     S
C565   H682    1.084   .     S
C566   C567    1.410   .     D
C566   H683    1.082   .     S
C568   C569    1.418   .     S
C568   C573    1.389   .     D
C568   H684    1.080   1_455 S
C569   C570    1.414   .     D
C570   C571    1.391   .     S
C570   H685    1.087   .     S
C571   C572    1.398   .     D
C571   H686    1.083   .     S
C572   C573    1.406   .     S
C572   N627    1.428   .     S
C573   H687    1.084   .     S
C574   C618    1.400   .     D
C574   H688    1.078   .     S
C575   C502    1.554   1_554 S
C575   C516    1.415   1_554 S
C576   H689    1.085   .     S
C577   C616    1.403   .     D
C577   H690    1.087   .     S
C578   C631    1.400   .     S
C578   H691    1.088   .     S
C579   C580    1.419   .     D
C579   C584    1.413   .     S
C579   C502    1.539   1_554 S
C580   C581    1.391   .     S
C580   H692    1.081   .     S
C581   C582    1.395   .     D
C581   H693    1.087   .     S
C582   C583    1.409   .     S
C582   N630    1.429   .     S
C583   C584    1.390   .     D
C583   H694    1.081   .     S
C584   H695    1.088   .     S
C585   H696    1.083   .     S
C586   C587    1.417   .     S
C586   C591    1.407   .     D
C586   H697    1.081   .     S
C587   C588    1.407   .     D
C588   C589    1.399   .     S
C588   H698    1.078   .     S
C589   C590    1.406   .     D
C589   H699    1.081   .     S
C590   C591    1.401   .     S
C591   H700    1.084   .     S
C592   C593    1.401   .     S
C592   C597    1.403   .     D
C592   H701    1.085   .     S
C593   C594    1.405   .     D
C593   H702    1.085   .     S
C594   C595    1.406   .     S
C595   C596    1.405   .     D
C595   H703    1.084   .     S
C596   C597    1.409   .     S
C596   H704    1.084   .     S
C597   C613    1.481   .     S
C598   C599    1.409   .     D
C598   C603    1.411   .     S
C598   C616    1.467   .     S
C599   C600    1.404   .     S
C600   C601    1.411   .     D
C600   C608    1.474   .     S
C601   C602    1.409   .     S
C602   C603    1.402   .     D
C602   C622    1.485   .     S
C604   C605    1.390   .     D
C604   H705    1.087   .     S
C605   C616    1.404   .     S
C605   H706    1.088   .     S
C606   C607    1.396   .     D
C606   C611    1.408   .     S
C606   H707    1.086   .     S
C607   C608    1.406   .     S
C607   H708    1.085   .     S
C608   C609    1.400   .     D
C609   C610    1.391   .     S
C609   H709    1.087   .     S
C610   C611    1.407   .     D
C610   H710    1.085   .     S
C612   C614    1.401   .     D
C612   C618    1.406   .     S
C612   N625    1.445   .     S
C613   N625    1.304   .     D
C613   H711    1.083   .     S
C614   H712    1.085   .     S
C615   H713    1.079   .     S
C615   N748    1.302   .     D
C617   C622    1.410   .     S
C617   C623    1.399   .     D
C617   H714    1.084   .     S
C618   H715    1.082   .     S
C619   C620    1.400   .     D
C619   C632    1.400   .     S
C619   H716    1.087   .     S
C620   H717    1.085   .     S
C621   C623    1.399   .     S
C621   C624    1.405   .     D
C621   H718    1.084   .     S
C623   H719    1.087   .     S
C624   H720    1.083   .     S
C628   C500    1.416   1_655 D
C628   H721    1.085   1_655 S
C629   N630    1.297   .     D
C629   H722    1.085   .     S
C631   C632    1.405   .     D
C631   H723    1.083   .     S
C632   H724    1.084   .     S
C633   C530    1.396   1_655 D
C633   H725    1.082   1_655 S
C634   C516    1.401   1_554 D
C634   C530    1.408   1_655 S
C634   H726    1.080   1_554 S
H641   C501    1.084   1_556 S
H684   C568    1.080   1_655 S
H721   C628    1.085   1_455 S
H725   C633    1.082   1_455 S
H726   C634    1.080   1_556 S
C727   C750    1.397   .     S
C727   C790    1.408   .     D
C727   N800    1.439   .     S
C728   C764    1.482   .     S
C728   N800    1.299   .     D
C728   H877    1.084   .     S
C729   C730    1.420   .     S
C729   C734    1.423   .     D
C729   C782    1.487   .     S
C730   C731    1.416   1_655 D
C730   C836    1.494   1_655 S
C731   C761    1.493   .     S
C731   C730    1.416   1_455 D
C731   C732    1.422   1_455 S
C732   C733    1.420   .     D
C732   C731    1.422   1_655 S
C732   C753    1.487   1_655 S
C733   C734    1.416   .     S
C733   C795    1.494   .     S
C734   C740    1.494   .     S
C735   C742    1.413   .     S
C735   C750    1.393   .     D
C735   H878    1.078   1_565 S
C736   C737    1.404   .     S
C736   C741    1.403   .     D
C736   H879    1.086   .     S
C737   C738    1.409   .     D
C737   C743    1.481   .     S
C738   C739    1.398   .     S
C738   H880    1.079   .     S
C739   C740    1.402   .     D
C739   H881    1.085   .     S
C740   C741    1.409   .     S
C741   H882    1.083   .     S
C742   C749    1.555   .     S
C742   C870    1.416   .     D
C743   N798    1.299   .     D
C743   H883    1.084   1_554 S
C744   C746    1.559   .     S
C744   C787    1.551   1_556 S
C744   C817    1.554   1_556 S
C744   C821    1.539   1_556 S
C745   C746    1.417   .     S
C745   C856    1.407   .     D
C745   H884    1.081   .     S
C746   C816    1.408   .     D
C747   C853    1.465   .     S
C747   H885    1.079   .     S
N748   C809    1.435   .     S
C749   C806    1.552   .     S
C749   C811    1.539   .     S
C749   C829    1.557   .     S
C750   H886    1.082   .     S
C751   C817    1.413   .     D
C751   C875    1.393   .     S
C751   H887    1.078   1_565 S
C752   C753    1.405   .     D
C752   C757    1.398   .     S
C752   H888    1.083   .     S
C753   C754    1.407   .     S
C753   C732    1.487   1_455 S
C754   C755    1.398   1_554 D
C754   H889    1.084   1_455 S
C755   C756    1.398   .     S
C755   H890    1.082   .     S
C755   C754    1.398   1_556 D
C756   H891    1.083   .     S
C756   C757    1.399   1_556 D
C757   H892    1.083   .     S
C757   C756    1.399   1_554 D
C758   H893    1.085   .     S
C758   C817    1.415   1_556 S
C758   C876    1.401   1_556 D
C759   C864    1.405   .     S
C759   C866    1.400   .     D
C759   H894    1.088   .     S
C760   C761    1.409   .     S
C760   C765    1.404   .     D
C760   H895    1.084   .     S
C761   C762    1.402   .     D
C762   C763    1.397   .     S
C762   H896    1.085   .     S
C763   C764    1.409   .     D
C763   H897    1.079   .     S
C764   C765    1.404   .     S
C765   H898    1.086   .     S
C766   C767    1.407   .     S
C766   C771    1.390   .     D
C766   H899    1.085   .     S
C767   C768    1.409   .     D
C767   C857    1.466   .     S
C768   C769    1.398   .     S
C768   H900    1.087   .     S
C769   C770    1.406   .     D
C769   H901    1.086   .     S
C770   C771    1.401   .     S
C770   C845    1.474   .     S
C771   H902    1.087   .     S
C772   N798    1.439   .     S
C772   C875    1.396   .     D
C772   C876    1.408   .     S
C773   N774    1.304   .     D
C773   C792    1.480   .     S
C773   H903    1.084   .     S
N774   C832    1.444   .     S
C775   C776    1.391   .     S
C775   C799    1.403   .     D
C775   H904    1.088   .     S
C776   C802    1.405   .     D
C776   H905    1.086   .     S
C777   C803    1.411   .     S
C777   C819    1.390   .     D
C777   H906    1.088   .     S
C778   C779    1.399   .     S
C778   C783    1.398   .     D
C778   H907    1.083   .     S
C779   C780    1.398   .     D
C779   H908    1.082   .     S
C780   C781    1.398   .     S
C780   H909    1.082   .     S
C781   C782    1.407   .     D
C781   H910    1.084   .     S
C782   C783    1.405   .     S
C783   H911    1.084   .     S
C784   C789    1.401   .     S
C784   N868    1.434   .     S
C784   C785    1.409   1_554 D
C785   C786    1.387   .     S
C785   H912    1.083   .     S
C785   C784    1.409   1_556 D
C786   H913    1.085   .     S
C786   C787    1.415   1_546 D
C787   C744    1.551   1_554 S
C787   C786    1.415   1_564 D
C787   C788    1.423   1_565 S
C788   C789    1.399   .     D
C788   C787    1.423   1_545 S
C788   H914    1.088   1_545 S
C789   H915    1.087   .     S
C790   C870    1.403   .     S
C790   H916    1.081   .     S
C791   C792    1.403   .     D
C791   H917    1.085   .     S
C791   C796    1.401   1_556 S
C792   C793    1.408   .     S
C793   C794    1.405   .     D
C793   H918    1.084   .     S
C794   H919    1.084   .     S
C794   C795    1.405   1_556 S
C795   C796    1.404   .     D
C795   C794    1.405   1_554 S
C796   H920    1.084   .     S
C796   C791    1.401   1_554 S
C797   C820    1.406   .     D
C797   C841    1.487   .     S
C797   C862    1.411   .     S
C799   C818    1.413   .     S
C799   C871    1.463   .     S
C801   C802    1.400   .     S
C801   C818    1.392   .     D
C801   H921    1.088   .     S
C802   C843    1.467   .     S
C803   C827    1.460   .     S
C803   C846    1.406   .     D
C804   C805    1.398   .     S
C804   C809    1.401   .     D
C804   H922    1.087   .     S
C805   C806    1.423   1_545 D
C805   H923    1.087   1_545 S
C806   C805    1.423   1_565 D
C806   C807    1.415   1_565 S
C807   C808    1.388   .     D
C807   C806    1.415   1_545 S
C807   H924    1.084   1_545 S
C808   C809    1.410   .     S
C808   H925    1.082   .     S
C810   C811    1.418   .     S
C810   C815    1.389   .     D
C810   H926    1.080   .     S
C811   C812    1.414   .     D
C812   C813    1.391   .     S
C812   H927    1.087   .     S
C813   C814    1.398   .     D
C813   H928    1.083   .     S
C814   C815    1.406   .     S
C814   N869    1.428   .     S
C815   H929    1.084   .     S
C816   C860    1.400   .     S
C816   H930    1.078   .     S
C817   C744    1.554   1_554 S
C817   C758    1.415   1_554 S
C818   H931    1.085   .     S
C819   C858    1.403   .     S
C819   H932    1.087   .     S
C820   C873    1.400   .     S
C820   H933    1.088   .     S
C821   C822    1.419   .     D
C821   C826    1.413   .     S
C821   C744    1.539   1_554 S
C822   C823    1.391   .     S
C822   H934    1.081   .     S
C823   C824    1.395   .     D
C823   H935    1.087   .     S
C824   C825    1.409   .     S
C824   N872    1.429   .     S
C825   C826    1.390   .     D
C825   H936    1.081   .     S
C826   H937    1.088   .     S
C827   H938    1.083   .     S
C828   C829    1.417   .     S
C828   C833    1.407   .     D
C828   H939    1.081   .     S
C829   C830    1.407   .     D
C830   C831    1.399   .     S
C830   H940    1.078   .     S
C831   C832    1.406   .     D
C831   H941    1.081   .     S
C832   C833    1.401   .     S
C833   H942    1.084   .     S
C834   C835    1.401   .     D
C834   C839    1.403   .     S
C834   H943    1.085   .     S
C835   C836    1.405   .     S
C835   H944    1.085   .     S
C836   C837    1.406   .     D
C836   C730    1.494   1_455 S
C837   C838    1.405   .     S
C837   H945    1.084   .     S
C838   C839    1.409   .     D
C838   H946    1.084   .     S
C839   C855    1.481   .     S
C840   C841    1.409   .     D
C840   C845    1.411   .     S
C840   C858    1.467   .     S
C841   C842    1.404   .     S
C842   C843    1.411   .     D
C842   C850    1.474   .     S
C843   C844    1.409   .     S
C844   C845    1.402   .     D
C844   C864    1.485   .     S
C846   C847    1.390   .     S
C846   H947    1.087   .     S
C847   C858    1.404   .     D
C847   H948    1.088   .     S
C848   C849    1.396   .     S
C848   C853    1.408   .     D
C848   H949    1.086   .     S
C849   C850    1.406   .     D
C849   H950    1.085   .     S
C850   C851    1.400   .     S
C851   C852    1.391   .     D
C851   H951    1.087   .     S
C852   C853    1.407   .     S
C852   H952    1.085   .     S
C854   C856    1.401   .     S
C854   C860    1.406   .     D
C854   N867    1.445   .     S
C855   N867    1.304   .     D
C855   H953    1.083   .     S
C856   H954    1.085   .     S
C857   H955    1.079   .     S
C859   C864    1.410   .     D
C859   C865    1.399   .     S
C859   H956    1.084   .     S
C860   H957    1.082   .     S
C861   C862    1.400   .     D
C861   C874    1.400   .     S
C861   H958    1.087   .     S
C862   H959    1.085   .     S
C863   C865    1.399   .     D
C863   C866    1.405   .     S
C863   H960    1.084   .     S
C865   H961    1.087   .     S
C866   H962    1.083   .     S
C870   H963    1.085   .     S
C871   N872    1.297   .     D
C871   H964    1.085   .     S
C873   C874    1.405   .     D
C873   H965    1.083   .     S
C874   H966    1.084   .     S
C875   H967    1.082   1_565 S
C876   C758    1.401   1_554 D
C876   H968    1.080   1_554 S
H878   C735    1.078   1_545 S
H883   C743    1.084   1_556 S
H887   C751    1.078   1_545 S
H889   C754    1.084   1_655 S
H914   C788    1.088   1_565 S
H923   C805    1.087   1_565 S
H924   C807    1.084   1_565 S
H967   C875    1.082   1_545 S
H968   C876    1.080   1_556 S
