data_1127
_audit_creation_date              2023-09-08
_audit_creation_method            'Materials Studio'
_symmetry_space_group_name_H-M    'P1'
_symmetry_Int_Tables_number       1
_symmetry_cell_setting            triclinic
loop_
_symmetry_equiv_pos_as_xyz
  x,y,z
_cell_length_a                    38.0488
_cell_length_b                    26.3526
_cell_length_c                    6.7712
_cell_angle_alpha                 90.0000
_cell_angle_beta                  90.0000
_cell_angle_gamma                 90.0000
loop_
_atom_site_label
_atom_site_type_symbol
_atom_site_fract_x
_atom_site_fract_y
_atom_site_fract_z
_atom_site_U_iso_or_equiv
_atom_site_adp_type
_atom_site_occupancy
C1     C     0.46787   0.10748  -0.01775   0.00000  Uiso   1.00
C2     C     0.39459   0.79741  -0.10372   0.00000  Uiso   1.00
C3     C     0.28559   0.74113   0.01349   0.00000  Uiso   1.00
C4     C     0.26334   0.69881   0.01456   0.00000  Uiso   1.00
C5     C     0.30333   0.32340   0.52092   0.00000  Uiso   1.00
C6     C     0.32375   0.24541   0.51638   0.00000  Uiso   1.00
C7     C     0.46780   0.05389  -0.03893   0.00000  Uiso   1.00
C8     C     0.56355   0.02638  -0.06500   0.00000  Uiso   1.00
C9     C     0.27273   0.79040   0.01521   0.00000  Uiso   1.00
C10    C     0.36884   0.81516   0.02788   0.00000  Uiso   1.00
C11    C     0.43484   0.86312   0.00742   0.00000  Uiso   1.00
C12    C     0.42725   0.82164  -0.11570   0.00000  Uiso   1.00
C13    C     0.37732   0.85446   0.15909   0.00000  Uiso   1.00
C14    C     0.41031   0.87742   0.15211   0.00000  Uiso   1.00
H15    H     0.58849   0.04527  -0.08626   0.00000  Uiso   1.00
H16    H     0.44609   0.80920  -0.22547   0.00000  Uiso   1.00
H17    H     0.35816   0.86789   0.26502   0.00000  Uiso   1.00
H18    H     0.41613   0.90806   0.25364   0.00000  Uiso   1.00
H19    H     0.38891   0.76639  -0.20304   0.00000  Uiso   1.00
H20    H     0.27334   0.66039   0.01640   0.00000  Uiso   1.00
N21    N     0.33363   0.29533   0.52227   0.00000  Uiso   1.00
O22    O     0.30246   0.36964   0.52061   0.00000  Uiso   1.00
O23    O     0.34421   0.20988   0.51705   0.00000  Uiso   1.00
C24    C     0.46787   0.60748   0.48225   0.00000  Uiso   1.00
C25    C     0.39459   0.29741   0.39628   0.00000  Uiso   1.00
C26    C     0.28559   0.24113   0.51349   0.00000  Uiso   1.00
C27    C     0.26334   0.19881   0.51456   0.00000  Uiso   1.00
C28    C     0.30333   0.82340   0.02092   0.00000  Uiso   1.00
C29    C     0.32375   0.74541   0.01638   0.00000  Uiso   1.00
C30    C     0.46780   0.55389   0.46107   0.00000  Uiso   1.00
C31    C     0.56355   0.52638   0.43500   0.00000  Uiso   1.00
C32    C     0.27273   0.29040   0.51521   0.00000  Uiso   1.00
C33    C     0.36884   0.31516   0.52788   0.00000  Uiso   1.00
C34    C     0.43484   0.36312   0.50742   0.00000  Uiso   1.00
C35    C     0.42725   0.32164   0.38430   0.00000  Uiso   1.00
C36    C     0.37732   0.35446   0.65909   0.00000  Uiso   1.00
C37    C     0.41031   0.37742   0.65211   0.00000  Uiso   1.00
H38    H     0.58849   0.54527   0.41374   0.00000  Uiso   1.00
H39    H     0.44609   0.30920   0.27453   0.00000  Uiso   1.00
H40    H     0.35816   0.36789   0.76502   0.00000  Uiso   1.00
H41    H     0.41613   0.40806   0.75364   0.00000  Uiso   1.00
H42    H     0.38891   0.26639   0.29696   0.00000  Uiso   1.00
H43    H     0.27334   0.16039   0.51640   0.00000  Uiso   1.00
N44    N     0.33363   0.79533   0.02227   0.00000  Uiso   1.00
O45    O     0.30246   0.86964   0.02061   0.00000  Uiso   1.00
O46    O     0.34421   0.70988   0.01705   0.00000  Uiso   1.00
C47    C     0.96787   0.10748   0.48225   0.00000  Uiso   1.00
C48    C     0.89459   0.79741   0.39628   0.00000  Uiso   1.00
C49    C     0.78559   0.74113   0.51349   0.00000  Uiso   1.00
C50    C     0.76334   0.69881   0.51456   0.00000  Uiso   1.00
C51    C     0.80333   0.32340   0.02092   0.00000  Uiso   1.00
C52    C     0.82375   0.24541   0.01638   0.00000  Uiso   1.00
C53    C     0.96780   0.05389   0.46107   0.00000  Uiso   1.00
C54    C     0.06355   0.02638   0.43500   0.00000  Uiso   1.00
C55    C     0.77273   0.79040   0.51521   0.00000  Uiso   1.00
C56    C     0.86884   0.81516   0.52788   0.00000  Uiso   1.00
C57    C     0.93484   0.86312   0.50742   0.00000  Uiso   1.00
C58    C     0.92725   0.82164   0.38430   0.00000  Uiso   1.00
C59    C     0.87732   0.85446   0.65909   0.00000  Uiso   1.00
C60    C     0.91031   0.87742   0.65211   0.00000  Uiso   1.00
H61    H     0.08849   0.04527   0.41374   0.00000  Uiso   1.00
H62    H     0.94609   0.80920   0.27453   0.00000  Uiso   1.00
H63    H     0.85816   0.86789   0.76502   0.00000  Uiso   1.00
H64    H     0.91613   0.90806   0.75364   0.00000  Uiso   1.00
H65    H     0.88891   0.76639   0.29696   0.00000  Uiso   1.00
H66    H     0.77334   0.66039   0.51640   0.00000  Uiso   1.00
N67    N     0.83363   0.29533   0.02227   0.00000  Uiso   1.00
O68    O     0.80246   0.36964   0.02061   0.00000  Uiso   1.00
O69    O     0.84421   0.20988   0.01705   0.00000  Uiso   1.00
C70    C     0.96787   0.60748  -0.01775   0.00000  Uiso   1.00
C71    C     0.89459   0.29741  -0.10372   0.00000  Uiso   1.00
C72    C     0.78559   0.24113   0.01349   0.00000  Uiso   1.00
C73    C     0.76334   0.19881   0.01456   0.00000  Uiso   1.00
C74    C     0.80333   0.82340   0.52092   0.00000  Uiso   1.00
C75    C     0.82375   0.74541   0.51638   0.00000  Uiso   1.00
C76    C     0.96780   0.55389  -0.03893   0.00000  Uiso   1.00
C77    C     0.06355   0.52638  -0.06500   0.00000  Uiso   1.00
C78    C     0.77273   0.29040   0.01521   0.00000  Uiso   1.00
C79    C     0.86884   0.31516   0.02788   0.00000  Uiso   1.00
C80    C     0.93484   0.36312   0.00742   0.00000  Uiso   1.00
C81    C     0.92725   0.32164  -0.11570   0.00000  Uiso   1.00
C82    C     0.87732   0.35446   0.15909   0.00000  Uiso   1.00
C83    C     0.91031   0.37742   0.15211   0.00000  Uiso   1.00
H84    H     0.08849   0.54527  -0.08626   0.00000  Uiso   1.00
H85    H     0.94609   0.30920  -0.22547   0.00000  Uiso   1.00
H86    H     0.85816   0.36789   0.26502   0.00000  Uiso   1.00
H87    H     0.91613   0.40806   0.25364   0.00000  Uiso   1.00
H88    H     0.88891   0.26639  -0.20304   0.00000  Uiso   1.00
H89    H     0.77334   0.16039   0.01640   0.00000  Uiso   1.00
N90    N     0.83363   0.79533   0.52227   0.00000  Uiso   1.00
O91    O     0.80246   0.86964   0.52061   0.00000  Uiso   1.00
O92    O     0.84421   0.70988   0.51705   0.00000  Uiso   1.00
C93    C     0.53213   0.89252  -0.01775   0.00000  Uiso   1.00
C94    C     0.60541   0.20259  -0.10372   0.00000  Uiso   1.00
C95    C     0.71441   0.25887   0.01349   0.00000  Uiso   1.00
C96    C     0.73666   0.30119   0.01456   0.00000  Uiso   1.00
C97    C     0.69667   0.67660   0.52092   0.00000  Uiso   1.00
C98    C     0.67625   0.75459   0.51638   0.00000  Uiso   1.00
C99    C     0.53220   0.94611  -0.03893   0.00000  Uiso   1.00
C100   C     0.43645   0.97362  -0.06500   0.00000  Uiso   1.00
C101   C     0.72727   0.20960   0.01521   0.00000  Uiso   1.00
C102   C     0.63116   0.18484   0.02788   0.00000  Uiso   1.00
C103   C     0.56516   0.13688   0.00742   0.00000  Uiso   1.00
C104   C     0.57275   0.17836  -0.11570   0.00000  Uiso   1.00
C105   C     0.62268   0.14554   0.15909   0.00000  Uiso   1.00
C106   C     0.58969   0.12258   0.15211   0.00000  Uiso   1.00
H107   H     0.41151   0.95473  -0.08626   0.00000  Uiso   1.00
H108   H     0.55391   0.19080  -0.22547   0.00000  Uiso   1.00
H109   H     0.64184   0.13211   0.26502   0.00000  Uiso   1.00
H110   H     0.58387   0.09194   0.25364   0.00000  Uiso   1.00
H111   H     0.61109   0.23361  -0.20304   0.00000  Uiso   1.00
H112   H     0.72666   0.33961   0.01640   0.00000  Uiso   1.00
N113   N     0.66637   0.70467   0.52227   0.00000  Uiso   1.00
O114   O     0.69754   0.63036   0.52061   0.00000  Uiso   1.00
O115   O     0.65579   0.79012   0.51705   0.00000  Uiso   1.00
C116   C     0.53213   0.39252   0.48225   0.00000  Uiso   1.00
C117   C     0.60541   0.70259   0.39628   0.00000  Uiso   1.00
C118   C     0.71441   0.75887   0.51349   0.00000  Uiso   1.00
C119   C     0.73666   0.80119   0.51456   0.00000  Uiso   1.00
C120   C     0.69667   0.17660   0.02092   0.00000  Uiso   1.00
C121   C     0.67625   0.25459   0.01638   0.00000  Uiso   1.00
C122   C     0.53220   0.44611   0.46107   0.00000  Uiso   1.00
C123   C     0.43645   0.47362   0.43500   0.00000  Uiso   1.00
C124   C     0.72727   0.70960   0.51521   0.00000  Uiso   1.00
C125   C     0.63116   0.68484   0.52788   0.00000  Uiso   1.00
C126   C     0.56516   0.63688   0.50742   0.00000  Uiso   1.00
C127   C     0.57275   0.67836   0.38430   0.00000  Uiso   1.00
C128   C     0.62268   0.64554   0.65909   0.00000  Uiso   1.00
C129   C     0.58969   0.62258   0.65211   0.00000  Uiso   1.00
H130   H     0.41151   0.45473   0.41374   0.00000  Uiso   1.00
H131   H     0.55391   0.69080   0.27453   0.00000  Uiso   1.00
H132   H     0.64184   0.63211   0.76502   0.00000  Uiso   1.00
H133   H     0.58387   0.59194   0.75364   0.00000  Uiso   1.00
H134   H     0.61109   0.73361   0.29696   0.00000  Uiso   1.00
H135   H     0.72666   0.83961   0.51640   0.00000  Uiso   1.00
N136   N     0.66637   0.20467   0.02227   0.00000  Uiso   1.00
O137   O     0.69754   0.13036   0.02061   0.00000  Uiso   1.00
O138   O     0.65579   0.29012   0.01705   0.00000  Uiso   1.00
C139   C     0.03213   0.89252   0.48225   0.00000  Uiso   1.00
C140   C     0.10541   0.20259   0.39628   0.00000  Uiso   1.00
C141   C     0.21441   0.25887   0.51349   0.00000  Uiso   1.00
C142   C     0.23666   0.30119   0.51456   0.00000  Uiso   1.00
C143   C     0.19667   0.67660   0.02092   0.00000  Uiso   1.00
C144   C     0.17625   0.75459   0.01638   0.00000  Uiso   1.00
C145   C     0.03220   0.94611   0.46107   0.00000  Uiso   1.00
C146   C     0.93645   0.97362   0.43500   0.00000  Uiso   1.00
C147   C     0.22727   0.20960   0.51521   0.00000  Uiso   1.00
C148   C     0.13116   0.18484   0.52788   0.00000  Uiso   1.00
C149   C     0.06516   0.13688   0.50742   0.00000  Uiso   1.00
C150   C     0.07275   0.17836   0.38430   0.00000  Uiso   1.00
C151   C     0.12268   0.14554   0.65909   0.00000  Uiso   1.00
C152   C     0.08969   0.12258   0.65211   0.00000  Uiso   1.00
H153   H     0.91151   0.95473   0.41374   0.00000  Uiso   1.00
H154   H     0.05391   0.19080   0.27453   0.00000  Uiso   1.00
H155   H     0.14184   0.13211   0.76502   0.00000  Uiso   1.00
H156   H     0.08387   0.09194   0.75364   0.00000  Uiso   1.00
H157   H     0.11109   0.23361   0.29696   0.00000  Uiso   1.00
H158   H     0.22666   0.33961   0.51640   0.00000  Uiso   1.00
N159   N     0.16637   0.70467   0.02227   0.00000  Uiso   1.00
O160   O     0.19754   0.63036   0.02061   0.00000  Uiso   1.00
O161   O     0.15579   0.79012   0.01705   0.00000  Uiso   1.00
C162   C     0.03213   0.39252  -0.01775   0.00000  Uiso   1.00
C163   C     0.10541   0.70259  -0.10372   0.00000  Uiso   1.00
C164   C     0.21441   0.75887   0.01349   0.00000  Uiso   1.00
C165   C     0.23666   0.80119   0.01456   0.00000  Uiso   1.00
C166   C     0.19667   0.17660   0.52092   0.00000  Uiso   1.00
C167   C     0.17625   0.25459   0.51638   0.00000  Uiso   1.00
C168   C     0.03220   0.44611  -0.03893   0.00000  Uiso   1.00
C169   C     0.93645   0.47362  -0.06500   0.00000  Uiso   1.00
C170   C     0.22727   0.70960   0.01521   0.00000  Uiso   1.00
C171   C     0.13116   0.68484   0.02788   0.00000  Uiso   1.00
C172   C     0.06516   0.63688   0.00742   0.00000  Uiso   1.00
C173   C     0.07275   0.67836  -0.11570   0.00000  Uiso   1.00
C174   C     0.12268   0.64554   0.15909   0.00000  Uiso   1.00
C175   C     0.08969   0.62258   0.15211   0.00000  Uiso   1.00
H176   H     0.91151   0.45473  -0.08626   0.00000  Uiso   1.00
H177   H     0.05391   0.69080  -0.22547   0.00000  Uiso   1.00
H178   H     0.14184   0.63211   0.26502   0.00000  Uiso   1.00
H179   H     0.08387   0.59194   0.25364   0.00000  Uiso   1.00
H180   H     0.11109   0.73361  -0.20304   0.00000  Uiso   1.00
H181   H     0.22666   0.83961   0.01640   0.00000  Uiso   1.00
N182   N     0.16637   0.20467   0.52227   0.00000  Uiso   1.00
O183   O     0.19754   0.13036   0.52061   0.00000  Uiso   1.00
O184   O     0.15579   0.29012   0.51705   0.00000  Uiso   1.00
C185   C     0.46787   0.89252  -0.01775   0.00000  Uiso   1.00
C186   C     0.39459   0.20259  -0.10372   0.00000  Uiso   1.00
C187   C     0.28559   0.25887   0.01349   0.00000  Uiso   1.00
C188   C     0.26334   0.30119   0.01456   0.00000  Uiso   1.00
C189   C     0.30333   0.67660   0.52092   0.00000  Uiso   1.00
C190   C     0.32375   0.75459   0.51638   0.00000  Uiso   1.00
C191   C     0.46780   0.94611  -0.03893   0.00000  Uiso   1.00
C192   C     0.56355   0.97362  -0.06500   0.00000  Uiso   1.00
C193   C     0.27273   0.20960   0.01521   0.00000  Uiso   1.00
C194   C     0.36884   0.18484   0.02788   0.00000  Uiso   1.00
C195   C     0.43484   0.13688   0.00742   0.00000  Uiso   1.00
C196   C     0.42725   0.17836  -0.11570   0.00000  Uiso   1.00
C197   C     0.37732   0.14554   0.15909   0.00000  Uiso   1.00
C198   C     0.41031   0.12258   0.15211   0.00000  Uiso   1.00
H199   H     0.58849   0.95473  -0.08626   0.00000  Uiso   1.00
H200   H     0.44609   0.19080  -0.22547   0.00000  Uiso   1.00
H201   H     0.35816   0.13211   0.26502   0.00000  Uiso   1.00
H202   H     0.41613   0.09194   0.25364   0.00000  Uiso   1.00
H203   H     0.38891   0.23361  -0.20304   0.00000  Uiso   1.00
H204   H     0.27334   0.33961   0.01640   0.00000  Uiso   1.00
N205   N     0.33363   0.70467   0.52227   0.00000  Uiso   1.00
O206   O     0.30246   0.63036   0.52061   0.00000  Uiso   1.00
O207   O     0.34421   0.79012   0.51705   0.00000  Uiso   1.00
C208   C     0.46787   0.39252   0.48225   0.00000  Uiso   1.00
C209   C     0.39459   0.70259   0.39628   0.00000  Uiso   1.00
C210   C     0.28559   0.75887   0.51349   0.00000  Uiso   1.00
C211   C     0.26334   0.80119   0.51456   0.00000  Uiso   1.00
C212   C     0.30333   0.17660   0.02092   0.00000  Uiso   1.00
C213   C     0.32375   0.25459   0.01638   0.00000  Uiso   1.00
C214   C     0.46780   0.44611   0.46107   0.00000  Uiso   1.00
C215   C     0.56355   0.47362   0.43500   0.00000  Uiso   1.00
C216   C     0.27273   0.70960   0.51521   0.00000  Uiso   1.00
C217   C     0.36884   0.68484   0.52788   0.00000  Uiso   1.00
C218   C     0.43484   0.63688   0.50742   0.00000  Uiso   1.00
C219   C     0.42725   0.67836   0.38430   0.00000  Uiso   1.00
C220   C     0.37732   0.64554   0.65909   0.00000  Uiso   1.00
C221   C     0.41031   0.62258   0.65211   0.00000  Uiso   1.00
H222   H     0.58849   0.45473   0.41374   0.00000  Uiso   1.00
H223   H     0.44609   0.69080   0.27453   0.00000  Uiso   1.00
H224   H     0.35816   0.63211   0.76502   0.00000  Uiso   1.00
H225   H     0.41613   0.59194   0.75364   0.00000  Uiso   1.00
H226   H     0.38891   0.73361   0.29696   0.00000  Uiso   1.00
H227   H     0.27334   0.83961   0.51640   0.00000  Uiso   1.00
N228   N     0.33363   0.20467   0.02227   0.00000  Uiso   1.00
O229   O     0.30246   0.13036   0.02061   0.00000  Uiso   1.00
O230   O     0.34421   0.29012   0.01705   0.00000  Uiso   1.00
C231   C     0.96787   0.89252   0.48225   0.00000  Uiso   1.00
C232   C     0.89459   0.20259   0.39628   0.00000  Uiso   1.00
C233   C     0.78559   0.25887   0.51349   0.00000  Uiso   1.00
C234   C     0.76334   0.30119   0.51456   0.00000  Uiso   1.00
C235   C     0.80333   0.67660   0.02092   0.00000  Uiso   1.00
C236   C     0.82375   0.75459   0.01638   0.00000  Uiso   1.00
C237   C     0.96780   0.94611   0.46107   0.00000  Uiso   1.00
C238   C     0.06355   0.97362   0.43500   0.00000  Uiso   1.00
C239   C     0.77273   0.20960   0.51521   0.00000  Uiso   1.00
C240   C     0.86884   0.18484   0.52788   0.00000  Uiso   1.00
C241   C     0.93484   0.13688   0.50742   0.00000  Uiso   1.00
C242   C     0.92725   0.17836   0.38430   0.00000  Uiso   1.00
C243   C     0.87732   0.14554   0.65909   0.00000  Uiso   1.00
C244   C     0.91031   0.12258   0.65211   0.00000  Uiso   1.00
H245   H     0.08849   0.95473   0.41374   0.00000  Uiso   1.00
H246   H     0.94609   0.19080   0.27453   0.00000  Uiso   1.00
H247   H     0.85816   0.13211   0.76502   0.00000  Uiso   1.00
H248   H     0.91613   0.09194   0.75364   0.00000  Uiso   1.00
H249   H     0.88891   0.23361   0.29696   0.00000  Uiso   1.00
H250   H     0.77334   0.33961   0.51640   0.00000  Uiso   1.00
N251   N     0.83363   0.70467   0.02227   0.00000  Uiso   1.00
O252   O     0.80246   0.63036   0.02061   0.00000  Uiso   1.00
O253   O     0.84421   0.79012   0.01705   0.00000  Uiso   1.00
C254   C     0.96787   0.39252  -0.01775   0.00000  Uiso   1.00
C255   C     0.89459   0.70259  -0.10372   0.00000  Uiso   1.00
C256   C     0.78559   0.75887   0.01349   0.00000  Uiso   1.00
C257   C     0.76334   0.80119   0.01456   0.00000  Uiso   1.00
C258   C     0.80333   0.17660   0.52092   0.00000  Uiso   1.00
C259   C     0.82375   0.25459   0.51638   0.00000  Uiso   1.00
C260   C     0.96780   0.44611  -0.03893   0.00000  Uiso   1.00
C261   C     0.06355   0.47362  -0.06500   0.00000  Uiso   1.00
C262   C     0.77273   0.70960   0.01521   0.00000  Uiso   1.00
C263   C     0.86884   0.68484   0.02788   0.00000  Uiso   1.00
C264   C     0.93484   0.63688   0.00742   0.00000  Uiso   1.00
C265   C     0.92725   0.67836  -0.11570   0.00000  Uiso   1.00
C266   C     0.87732   0.64554   0.15909   0.00000  Uiso   1.00
C267   C     0.91031   0.62258   0.15211   0.00000  Uiso   1.00
H268   H     0.08849   0.45473  -0.08626   0.00000  Uiso   1.00
H269   H     0.94609   0.69080  -0.22547   0.00000  Uiso   1.00
H270   H     0.85816   0.63211   0.26502   0.00000  Uiso   1.00
H271   H     0.91613   0.59194   0.25364   0.00000  Uiso   1.00
H272   H     0.88891   0.73361  -0.20304   0.00000  Uiso   1.00
H273   H     0.77334   0.83961   0.01640   0.00000  Uiso   1.00
N274   N     0.83363   0.20467   0.52227   0.00000  Uiso   1.00
O275   O     0.80246   0.13036   0.52061   0.00000  Uiso   1.00
O276   O     0.84421   0.29012   0.51705   0.00000  Uiso   1.00
C277   C     0.53213   0.10748  -0.01775   0.00000  Uiso   1.00
C278   C     0.60541   0.79741  -0.10372   0.00000  Uiso   1.00
C279   C     0.71441   0.74113   0.01349   0.00000  Uiso   1.00
C280   C     0.73666   0.69881   0.01456   0.00000  Uiso   1.00
C281   C     0.69667   0.32340   0.52092   0.00000  Uiso   1.00
C282   C     0.67625   0.24541   0.51638   0.00000  Uiso   1.00
C283   C     0.53220   0.05389  -0.03893   0.00000  Uiso   1.00
C284   C     0.43645   0.02638  -0.06500   0.00000  Uiso   1.00
C285   C     0.72727   0.79040   0.01521   0.00000  Uiso   1.00
C286   C     0.63116   0.81516   0.02788   0.00000  Uiso   1.00
C287   C     0.56516   0.86312   0.00742   0.00000  Uiso   1.00
C288   C     0.57275   0.82164  -0.11570   0.00000  Uiso   1.00
C289   C     0.62268   0.85446   0.15909   0.00000  Uiso   1.00
C290   C     0.58969   0.87742   0.15211   0.00000  Uiso   1.00
H291   H     0.41151   0.04527  -0.08626   0.00000  Uiso   1.00
H292   H     0.55391   0.80920  -0.22547   0.00000  Uiso   1.00
H293   H     0.64184   0.86789   0.26502   0.00000  Uiso   1.00
H294   H     0.58387   0.90806   0.25364   0.00000  Uiso   1.00
H295   H     0.61109   0.76639  -0.20304   0.00000  Uiso   1.00
H296   H     0.72666   0.66039   0.01640   0.00000  Uiso   1.00
N297   N     0.66637   0.29533   0.52227   0.00000  Uiso   1.00
O298   O     0.69754   0.36964   0.52061   0.00000  Uiso   1.00
O299   O     0.65579   0.20988   0.51705   0.00000  Uiso   1.00
C300   C     0.53213   0.60748   0.48225   0.00000  Uiso   1.00
C301   C     0.60541   0.29741   0.39628   0.00000  Uiso   1.00
C302   C     0.71441   0.24113   0.51349   0.00000  Uiso   1.00
C303   C     0.73666   0.19881   0.51456   0.00000  Uiso   1.00
C304   C     0.69667   0.82340   0.02092   0.00000  Uiso   1.00
C305   C     0.67625   0.74541   0.01638   0.00000  Uiso   1.00
C306   C     0.53220   0.55389   0.46107   0.00000  Uiso   1.00
C307   C     0.43645   0.52638   0.43500   0.00000  Uiso   1.00
C308   C     0.72727   0.29040   0.51521   0.00000  Uiso   1.00
C309   C     0.63116   0.31516   0.52788   0.00000  Uiso   1.00
C310   C     0.56516   0.36312   0.50742   0.00000  Uiso   1.00
C311   C     0.57275   0.32164   0.38430   0.00000  Uiso   1.00
C312   C     0.62268   0.35446   0.65909   0.00000  Uiso   1.00
C313   C     0.58969   0.37742   0.65211   0.00000  Uiso   1.00
H314   H     0.41151   0.54527   0.41374   0.00000  Uiso   1.00
H315   H     0.55391   0.30920   0.27453   0.00000  Uiso   1.00
H316   H     0.64184   0.36789   0.76502   0.00000  Uiso   1.00
H317   H     0.58387   0.40806   0.75364   0.00000  Uiso   1.00
H318   H     0.61109   0.26639   0.29696   0.00000  Uiso   1.00
H319   H     0.72666   0.16039   0.51640   0.00000  Uiso   1.00
N320   N     0.66637   0.79533   0.02227   0.00000  Uiso   1.00
O321   O     0.69754   0.86964   0.02061   0.00000  Uiso   1.00
O322   O     0.65579   0.70988   0.01705   0.00000  Uiso   1.00
C323   C     0.03213   0.10748   0.48225   0.00000  Uiso   1.00
C324   C     0.10541   0.79741   0.39628   0.00000  Uiso   1.00
C325   C     0.21441   0.74113   0.51349   0.00000  Uiso   1.00
C326   C     0.23666   0.69881   0.51456   0.00000  Uiso   1.00
C327   C     0.19667   0.32340   0.02092   0.00000  Uiso   1.00
C328   C     0.17625   0.24541   0.01638   0.00000  Uiso   1.00
C329   C     0.03220   0.05389   0.46107   0.00000  Uiso   1.00
C330   C     0.93645   0.02638   0.43500   0.00000  Uiso   1.00
C331   C     0.22727   0.79040   0.51521   0.00000  Uiso   1.00
C332   C     0.13116   0.81516   0.52788   0.00000  Uiso   1.00
C333   C     0.06516   0.86312   0.50742   0.00000  Uiso   1.00
C334   C     0.07275   0.82164   0.38430   0.00000  Uiso   1.00
C335   C     0.12268   0.85446   0.65909   0.00000  Uiso   1.00
C336   C     0.08969   0.87742   0.65211   0.00000  Uiso   1.00
H337   H     0.91151   0.04527   0.41374   0.00000  Uiso   1.00
H338   H     0.05391   0.80920   0.27453   0.00000  Uiso   1.00
H339   H     0.14184   0.86789   0.76502   0.00000  Uiso   1.00
H340   H     0.08387   0.90806   0.75364   0.00000  Uiso   1.00
H341   H     0.11109   0.76639   0.29696   0.00000  Uiso   1.00
H342   H     0.22666   0.66039   0.51640   0.00000  Uiso   1.00
N343   N     0.16637   0.29533   0.02227   0.00000  Uiso   1.00
O344   O     0.19754   0.36964   0.02061   0.00000  Uiso   1.00
O345   O     0.15579   0.20988   0.01705   0.00000  Uiso   1.00
C346   C     0.03213   0.60748  -0.01775   0.00000  Uiso   1.00
C347   C     0.10541   0.29741  -0.10372   0.00000  Uiso   1.00
C348   C     0.21441   0.24113   0.01349   0.00000  Uiso   1.00
C349   C     0.23666   0.19881   0.01456   0.00000  Uiso   1.00
C350   C     0.19667   0.82340   0.52092   0.00000  Uiso   1.00
C351   C     0.17625   0.74541   0.51638   0.00000  Uiso   1.00
C352   C     0.03220   0.55389  -0.03893   0.00000  Uiso   1.00
C353   C     0.93645   0.52638  -0.06500   0.00000  Uiso   1.00
C354   C     0.22727   0.29040   0.01521   0.00000  Uiso   1.00
C355   C     0.13116   0.31516   0.02788   0.00000  Uiso   1.00
C356   C     0.06516   0.36312   0.00742   0.00000  Uiso   1.00
C357   C     0.07275   0.32164  -0.11570   0.00000  Uiso   1.00
C358   C     0.12268   0.35446   0.15909   0.00000  Uiso   1.00
C359   C     0.08969   0.37742   0.15211   0.00000  Uiso   1.00
H360   H     0.91151   0.54527  -0.08626   0.00000  Uiso   1.00
H361   H     0.05391   0.30920  -0.22547   0.00000  Uiso   1.00
H362   H     0.14184   0.36789   0.26502   0.00000  Uiso   1.00
H363   H     0.08387   0.40806   0.25364   0.00000  Uiso   1.00
H364   H     0.11109   0.26639  -0.20304   0.00000  Uiso   1.00
H365   H     0.22666   0.16039   0.01640   0.00000  Uiso   1.00
N366   N     0.16637   0.79533   0.52227   0.00000  Uiso   1.00
O367   O     0.19754   0.86964   0.52061   0.00000  Uiso   1.00
O368   O     0.15579   0.70988   0.51705   0.00000  Uiso   1.00
C369   C     0.50000   0.13341  -0.00831   0.00000  Uiso   1.00
C370   C     0.50000   0.02701  -0.03946   0.00000  Uiso   1.00
H371   H     0.50000   0.67419   0.51324   0.00000  Uiso   1.00
C372   C     0.50000   0.63341   0.49169   0.00000  Uiso   1.00
C373   C     0.50000   0.52701   0.46054   0.00000  Uiso   1.00
H374   H     0.50000   0.17419   0.01324   0.00000  Uiso   1.00
C375   C     0.00000   0.13341   0.49169   0.00000  Uiso   1.00
C376   C     0.00000   0.02701   0.46054   0.00000  Uiso   1.00
H377   H     0.00000   0.67419   0.01324   0.00000  Uiso   1.00
C378   C     0.00000   0.63341  -0.00831   0.00000  Uiso   1.00
C379   C     0.00000   0.52701  -0.03946   0.00000  Uiso   1.00
H380   H     0.00000   0.17419   0.51324   0.00000  Uiso   1.00
C381   C     0.50000   0.86659  -0.00831   0.00000  Uiso   1.00
C382   C     0.50000   0.97299  -0.03946   0.00000  Uiso   1.00
H383   H     0.50000   0.32581   0.51324   0.00000  Uiso   1.00
C384   C     0.50000   0.36659   0.49169   0.00000  Uiso   1.00
C385   C     0.50000   0.47299   0.46054   0.00000  Uiso   1.00
H386   H     0.50000   0.82581   0.01324   0.00000  Uiso   1.00
C387   C     0.00000   0.86659   0.49169   0.00000  Uiso   1.00
C388   C     0.00000   0.97299   0.46054   0.00000  Uiso   1.00
H389   H     0.00000   0.32581   0.01324   0.00000  Uiso   1.00
C390   C     0.00000   0.36659  -0.00831   0.00000  Uiso   1.00
C391   C     0.00000   0.47299  -0.03946   0.00000  Uiso   1.00
H392   H     0.00000   0.82581   0.51324   0.00000  Uiso   1.00
loop_
_geom_bond_atom_site_label_1
_geom_bond_atom_site_label_2
_geom_bond_distance
_geom_bond_site_symmetry_2
_ccdc_geom_bond_type
C1     C7      1.420   .     D
C1     C369    1.402   .     S
C1     C195    1.486   .     S
C2     C10     1.405   .     D
C2     C12     1.399   .     S
C2     H19     1.080   .     S
C3     C4      1.400   .     S
C3     C9      1.388   .     D
C3     C29     1.456   .     S
C4     H20     1.082   .     S
C4     C170    1.402   .     D
C5     N21     1.370   .     S
C5     O22     1.219   .     D
C5     C32     1.454   .     S
C6     N21     1.369   .     S
C6     O23     1.218   .     D
C6     C26     1.456   .     S
C7     C370    1.415   .     S
C7     C284    1.407   .     S
C8     H15     1.081   .     S
C8     C283    1.407   .     S
C8     C192    1.390   1_545 D
C9     C165    1.402   .     S
C9     C28     1.454   .     S
C10    C13     1.402   .     S
C10    N44     1.439   .     S
C11    C12     1.405   .     D
C11    C14     1.405   .     S
C11    C185    1.486   .     S
C12    H16     1.083   .     S
C13    C14     1.394   .     D
C13    H17     1.082   .     S
C14    H18     1.083   .     S
N21    C33     1.439   .     S
C24    C30     1.420   .     D
C24    C372    1.402   .     S
C24    C218    1.486   .     S
C25    C33     1.405   .     D
C25    C35     1.399   .     S
C25    H42     1.080   .     S
C26    C27     1.400   .     D
C26    C32     1.388   .     S
C27    H43     1.082   .     S
C27    C147    1.402   .     S
C28    N44     1.370   .     S
C28    O45     1.219   .     D
C29    N44     1.369   .     S
C29    O46     1.218   .     D
C30    C373    1.415   .     S
C30    C307    1.407   .     S
C31    H38     1.081   .     S
C31    C306    1.407   .     S
C31    C215    1.390   .     D
C32    C142    1.402   .     D
C33    C36     1.402   .     S
C34    C35     1.405   .     D
C34    C37     1.405   .     S
C34    C208    1.486   .     S
C35    H39     1.083   .     S
C36    C37     1.394   .     D
C36    H40     1.082   .     S
C37    H41     1.083   .     S
C47    C53     1.420   .     S
C47    C241    1.486   .     S
C47    C375    1.402   1_655 D
C48    C56     1.405   .     D
C48    C58     1.399   .     S
C48    H65     1.080   .     S
C49    C50     1.400   .     D
C49    C55     1.388   .     S
C49    C75     1.456   .     S
C50    H66     1.082   .     S
C50    C124    1.402   .     S
C51    N67     1.370   .     S
C51    O68     1.219   .     D
C51    C78     1.454   .     S
C52    N67     1.369   .     S
C52    O69     1.218   .     D
C52    C72     1.456   .     S
C53    C330    1.407   .     S
C53    C376    1.415   1_655 D
C54    H61     1.081   .     S
C54    C329    1.407   .     S
C54    C238    1.390   1_545 D
C55    C119    1.402   .     D
C55    C74     1.454   .     S
C56    C59     1.402   .     S
C56    N90     1.439   .     S
C57    C58     1.405   .     D
C57    C60     1.405   .     S
C57    C231    1.486   .     S
C58    H62     1.083   .     S
C59    C60     1.394   .     D
C59    H63     1.082   .     S
C60    H64     1.083   .     S
N67    C79     1.439   .     S
C70    C76     1.420   .     S
C70    C264    1.486   .     S
C70    C378    1.402   1_655 D
C71    C79     1.405   .     D
C71    C81     1.399   .     S
C71    H88     1.080   .     S
C72    C73     1.400   .     S
C72    C78     1.388   .     D
C73    H89     1.082   .     S
C73    C101    1.402   .     D
C74    N90     1.370   .     S
C74    O91     1.219   .     D
C75    N90     1.369   .     S
C75    O92     1.218   .     D
C76    C353    1.407   .     S
C76    C379    1.415   1_655 D
C77    H84     1.081   .     S
C77    C352    1.407   .     S
C77    C261    1.390   .     D
C78    C96     1.402   .     S
C79    C82     1.402   .     S
C80    C81     1.405   .     D
C80    C83     1.405   .     S
C80    C254    1.486   .     S
C81    H85     1.083   .     S
C82    C83     1.394   .     D
C82    H86     1.082   .     S
C83    H87     1.083   .     S
C93    C99     1.420   .     S
C93    C381    1.402   .     D
C93    C287    1.486   .     S
C94    C102    1.405   .     D
C94    C104    1.399   .     S
C94    H111    1.080   .     S
C95    C96     1.400   .     D
C95    C101    1.388   .     S
C95    C121    1.456   .     S
C96    H112    1.082   .     S
C97    N113    1.370   .     S
C97    O114    1.219   .     D
C97    C124    1.454   .     S
C98    N113    1.369   .     S
C98    O115    1.218   .     D
C98    C118    1.456   .     S
C99    C382    1.415   .     D
C99    C192    1.407   .     S
C100   H107    1.081   .     S
C100   C191    1.407   .     S
C100   C284    1.390   1_565 D
C101   C120    1.454   .     S
C102   C105    1.402   .     S
C102   N136    1.439   .     S
C103   C104    1.405   .     D
C103   C106    1.405   .     S
C103   C277    1.486   .     S
C104   H108    1.083   .     S
C105   C106    1.394   .     D
C105   H109    1.082   .     S
C106   H110    1.083   .     S
N113   C125    1.439   .     S
C116   C122    1.420   .     S
C116   C384    1.402   .     D
C116   C310    1.486   .     S
C117   C125    1.405   .     D
C117   C127    1.399   .     S
C117   H134    1.080   .     S
C118   C119    1.400   .     S
C118   C124    1.388   .     D
C119   H135    1.082   .     S
C120   N136    1.370   .     S
C120   O137    1.219   .     D
C121   N136    1.369   .     S
C121   O138    1.218   .     D
C122   C385    1.415   .     D
C122   C215    1.407   .     S
C123   H130    1.081   .     S
C123   C214    1.407   .     S
C123   C307    1.390   .     D
C125   C128    1.402   .     S
C126   C127    1.405   .     D
C126   C129    1.405   .     S
C126   C300    1.486   .     S
C127   H131    1.083   .     S
C128   C129    1.394   .     D
C128   H132    1.082   .     S
C129   H133    1.083   .     S
C139   C145    1.420   .     D
C139   C387    1.402   .     S
C139   C333    1.486   .     S
C140   C148    1.405   .     S
C140   C150    1.399   .     D
C140   H157    1.080   .     S
C141   C142    1.400   .     S
C141   C147    1.388   .     D
C141   C167    1.456   .     S
C142   H158    1.082   .     S
C143   N159    1.370   .     S
C143   O160    1.219   .     D
C143   C170    1.454   .     S
C144   N159    1.369   .     S
C144   O161    1.218   .     D
C144   C164    1.456   .     S
C145   C388    1.415   .     S
C145   C238    1.407   .     S
C146   H153    1.081   .     S
C146   C237    1.407   .     S
C146   C330    1.390   1_565 D
C147   C166    1.454   .     S
C148   C151    1.402   .     D
C148   N182    1.439   .     S
C149   C150    1.405   .     S
C149   C152    1.405   .     D
C149   C323    1.486   .     S
C150   H154    1.083   .     S
C151   C152    1.394   .     S
C151   H155    1.082   .     S
C152   H156    1.083   .     S
N159   C171    1.439   .     S
C162   C168    1.420   .     D
C162   C390    1.402   .     S
C162   C356    1.486   .     S
C163   C171    1.405   .     D
C163   C173    1.399   .     S
C163   H180    1.080   .     S
C164   C165    1.400   .     D
C164   C170    1.388   .     S
C165   H181    1.082   .     S
C166   N182    1.370   .     S
C166   O183    1.219   .     D
C167   N182    1.369   .     S
C167   O184    1.218   .     D
C168   C391    1.415   .     S
C168   C261    1.407   .     S
C169   H176    1.081   .     S
C169   C260    1.407   .     S
C169   C353    1.390   .     D
C171   C174    1.402   .     S
C172   C173    1.405   .     D
C172   C175    1.405   .     S
C172   C346    1.486   .     S
C173   H177    1.083   .     S
C174   C175    1.394   .     D
C174   H178    1.082   .     S
C175   H179    1.083   .     S
C185   C191    1.420   .     D
C185   C381    1.402   .     S
C186   C194    1.405   .     D
C186   C196    1.399   .     S
C186   H203    1.080   .     S
C187   C188    1.400   .     S
C187   C193    1.388   .     D
C187   C213    1.456   .     S
C188   H204    1.082   .     S
C188   C354    1.402   .     D
C189   N205    1.370   .     S
C189   O206    1.219   .     D
C189   C216    1.454   .     S
C190   N205    1.369   .     S
C190   O207    1.218   .     D
C190   C210    1.456   .     S
C191   C382    1.415   .     S
C192   H199    1.081   .     S
C192   C8      1.390   1_565 D
C193   C349    1.402   .     S
C193   C212    1.454   .     S
C194   C197    1.402   .     S
C194   N228    1.439   .     S
C195   C196    1.405   .     D
C195   C198    1.405   .     S
C196   H200    1.083   .     S
C197   C198    1.394   .     D
C197   H201    1.082   .     S
C198   H202    1.083   .     S
N205   C217    1.439   .     S
C208   C214    1.420   .     D
C208   C384    1.402   .     S
C209   C217    1.405   .     D
C209   C219    1.399   .     S
C209   H226    1.080   .     S
C210   C211    1.400   .     D
C210   C216    1.388   .     S
C211   H227    1.082   .     S
C211   C331    1.402   .     S
C212   N228    1.370   .     S
C212   O229    1.219   .     D
C213   N228    1.369   .     S
C213   O230    1.218   .     D
C214   C385    1.415   .     S
C215   H222    1.081   .     S
C216   C326    1.402   .     D
C217   C220    1.402   .     S
C218   C219    1.405   .     D
C218   C221    1.405   .     S
C219   H223    1.083   .     S
C220   C221    1.394   .     D
C220   H224    1.082   .     S
C221   H225    1.083   .     S
C231   C237    1.420   .     S
C231   C387    1.402   1_655 D
C232   C240    1.405   .     D
C232   C242    1.399   .     S
C232   H249    1.080   .     S
C233   C234    1.400   .     D
C233   C239    1.388   .     S
C233   C259    1.456   .     S
C234   H250    1.082   .     S
C234   C308    1.402   .     S
C235   N251    1.370   .     S
C235   O252    1.219   .     D
C235   C262    1.454   .     S
C236   N251    1.369   .     S
C236   O253    1.218   .     D
C236   C256    1.456   .     S
C237   C388    1.415   1_655 D
C238   H245    1.081   .     S
C238   C54     1.390   1_565 D
C239   C303    1.402   .     D
C239   C258    1.454   .     S
C240   C243    1.402   .     S
C240   N274    1.439   .     S
C241   C242    1.405   .     D
C241   C244    1.405   .     S
C242   H246    1.083   .     S
C243   C244    1.394   .     D
C243   H247    1.082   .     S
C244   H248    1.083   .     S
N251   C263    1.439   .     S
C254   C260    1.420   .     S
C254   C390    1.402   1_655 D
C255   C263    1.405   .     D
C255   C265    1.399   .     S
C255   H272    1.080   .     S
C256   C257    1.400   .     S
C256   C262    1.388   .     D
C257   H273    1.082   .     S
C257   C285    1.402   .     D
C258   N274    1.370   .     S
C258   O275    1.219   .     D
C259   N274    1.369   .     S
C259   O276    1.218   .     D
C260   C391    1.415   1_655 D
C261   H268    1.081   .     S
C262   C280    1.402   .     S
C263   C266    1.402   .     S
C264   C265    1.405   .     D
C264   C267    1.405   .     S
C265   H269    1.083   .     S
C266   C267    1.394   .     D
C266   H270    1.082   .     S
C267   H271    1.083   .     S
C277   C283    1.420   .     S
C277   C369    1.402   .     D
C278   C286    1.405   .     D
C278   C288    1.399   .     S
C278   H295    1.080   .     S
C279   C280    1.400   .     D
C279   C285    1.388   .     S
C279   C305    1.456   .     S
C280   H296    1.082   .     S
C281   N297    1.370   .     S
C281   O298    1.219   .     D
C281   C308    1.454   .     S
C282   N297    1.369   .     S
C282   O299    1.218   .     D
C282   C302    1.456   .     S
C283   C370    1.415   .     D
C284   H291    1.081   .     S
C284   C100    1.390   1_545 D
C285   C304    1.454   .     S
C286   C289    1.402   .     S
C286   N320    1.439   .     S
C287   C288    1.405   .     D
C287   C290    1.405   .     S
C288   H292    1.083   .     S
C289   C290    1.394   .     D
C289   H293    1.082   .     S
C290   H294    1.083   .     S
N297   C309    1.439   .     S
C300   C306    1.420   .     S
C300   C372    1.402   .     D
C301   C309    1.405   .     D
C301   C311    1.399   .     S
C301   H318    1.080   .     S
C302   C303    1.400   .     S
C302   C308    1.388   .     D
C303   H319    1.082   .     S
C304   N320    1.370   .     S
C304   O321    1.219   .     D
C305   N320    1.369   .     S
C305   O322    1.218   .     D
C306   C373    1.415   .     D
C307   H314    1.081   .     S
C309   C312    1.402   .     S
C310   C311    1.405   .     D
C310   C313    1.405   .     S
C311   H315    1.083   .     S
C312   C313    1.394   .     D
C312   H316    1.082   .     S
C313   H317    1.083   .     S
C323   C329    1.420   .     D
C323   C375    1.402   .     S
C324   C332    1.405   .     D
C324   C334    1.399   .     S
C324   H341    1.080   .     S
C325   C326    1.400   .     S
C325   C331    1.388   .     D
C325   C351    1.456   .     S
C326   H342    1.082   .     S
C327   N343    1.370   .     S
C327   O344    1.219   .     D
C327   C354    1.454   .     S
C328   N343    1.369   .     S
C328   O345    1.218   .     D
C328   C348    1.456   .     S
C329   C376    1.415   .     S
C330   H337    1.081   .     S
C330   C146    1.390   1_545 D
C331   C350    1.454   .     S
C332   C335    1.402   .     S
C332   N366    1.439   .     S
C333   C334    1.405   .     D
C333   C336    1.405   .     S
C334   H338    1.083   .     S
C335   C336    1.394   .     D
C335   H339    1.082   .     S
C336   H340    1.083   .     S
N343   C355    1.439   .     S
C346   C352    1.420   .     D
C346   C378    1.402   .     S
C347   C355    1.405   .     S
C347   C357    1.399   .     D
C347   H364    1.080   .     S
C348   C349    1.400   .     D
C348   C354    1.388   .     S
C349   H365    1.082   .     S
C350   N366    1.370   .     S
C350   O367    1.219   .     D
C351   N366    1.369   .     S
C351   O368    1.218   .     D
C352   C379    1.415   .     S
C353   H360    1.081   .     S
C355   C358    1.402   .     D
C356   C357    1.405   .     S
C356   C359    1.405   .     D
C357   H361    1.083   .     S
C358   C359    1.394   .     S
C358   H362    1.082   .     S
C359   H363    1.083   .     S
C369   H374    1.085   .     S
C370   C382    1.424   1_545 S
H371   C372    1.085   .     S
C373   C385    1.424   .     S
C375   H380    1.085   .     S
C375   C47     1.402   1_455 D
C376   C53     1.415   1_455 D
C376   C388    1.424   1_545 S
H377   C378    1.085   .     S
C378   C70     1.402   1_455 D
C379   C391    1.424   .     S
C379   C76     1.415   1_455 D
C381   H386    1.085   .     S
C382   C370    1.424   1_565 S
H383   C384    1.085   .     S
C387   H392    1.085   .     S
C387   C231    1.402   1_455 D
C388   C237    1.415   1_455 D
C388   C376    1.424   1_565 S
H389   C390    1.085   .     S
C390   C254    1.402   1_455 D
C391   C260    1.415   1_455 D
