data_1139
_audit_creation_date              2023-09-08
_audit_creation_method            'Materials Studio'
_symmetry_space_group_name_H-M    'P1'
_symmetry_Int_Tables_number       1
_symmetry_cell_setting            triclinic
loop_
_symmetry_equiv_pos_as_xyz
  x,y,z
_cell_length_a                    33.0300
_cell_length_b                    33.0300
_cell_length_c                    12.8000
_cell_angle_alpha                 90.0000
_cell_angle_beta                  90.0000
_cell_angle_gamma                 120.0000
loop_
_atom_site_label
_atom_site_type_symbol
_atom_site_fract_x
_atom_site_fract_y
_atom_site_fract_z
_atom_site_U_iso_or_equiv
_atom_site_adp_type
_atom_site_occupancy
C1     C     0.38287   0.68603   0.43211   0.00000  Uiso   1.00
C2     C     0.36295   0.71528   0.43285   0.00000  Uiso   1.00
C3     C     0.43198   0.70538   0.42698   0.00000  Uiso   1.00
C4     C     0.45200   0.68804   0.35447   0.00000  Uiso   1.00
C5     C     0.50075   0.70813   0.34573   0.00000  Uiso   1.00
C6     C     0.53119   0.74648   0.40910   0.00000  Uiso   1.00
C7     C     0.51147   0.76348   0.48253   0.00000  Uiso   1.00
C8     C     0.46265   0.74317   0.49170   0.00000  Uiso   1.00
N9     N     0.57851   0.76918   0.40254   0.00000  Uiso   1.00
C10    C     0.60721   0.75898   0.34722   0.00000  Uiso   1.00
C11    C     0.95050   0.97159   0.27129   0.00000  Uiso   1.00
C12    C     0.97892   0.95038   0.26608   0.00000  Uiso   1.00
H13    H     0.38457   0.75081   0.43252   0.00000  Uiso   1.00
H14    H     0.43123   0.66088   0.30581   0.00000  Uiso   1.00
H15    H     0.44970   0.75639   0.54624   0.00000  Uiso   1.00
H16    H     0.59304   0.72856   0.30533   0.00000  Uiso   1.00
H17    H     0.51350   0.69469   0.29157   0.00000  Uiso   1.00
H18    H     0.53262   0.79104   0.52989   0.00000  Uiso   1.00
C19    C     0.05586   0.95794   0.75819   0.00000  Uiso   1.00
C20    C     0.05961   0.92587   0.69167   0.00000  Uiso   1.00
C21    C     0.07778   0.89807   0.72919   0.00000  Uiso   1.00
C22    C     0.09295   0.90192   0.83405   0.00000  Uiso   1.00
C23    C     0.09542   0.93889   0.89474   0.00000  Uiso   1.00
C24    C     0.07627   0.96577   0.85846   0.00000  Uiso   1.00
Si25   Si    0.10336   0.86278   0.89116   0.00000  Uiso   1.00
C26    C     0.06066   0.83660   0.98558   0.00000  Uiso   1.00
C27    C     0.06746   0.80673   1.06997   0.00000  Uiso   1.00
C28    C     0.02413   0.78237   1.14307   0.00000  Uiso   1.00
C29    C     0.03143   0.75796   1.23891   0.00000  Uiso   1.00
C30    C     0.98662   0.72779   1.30496   0.00000  Uiso   1.00
C31    C     0.96107   0.75296   1.34903   0.00000  Uiso   1.00
C32    C     0.98996   0.79380   1.41283   0.00000  Uiso   1.00
C33    C     0.00412   0.79124   1.50928   0.00000  Uiso   1.00
C34    C     0.15844   0.88938   0.94320   0.00000  Uiso   1.00
C35    C     0.09906   0.82053   0.80693   0.00000  Uiso   1.00
C36    C     0.09860   0.05630   0.71840   0.00000  Uiso   1.00
C37    C     0.11942   0.06062   0.61978   0.00000  Uiso   1.00
C38    C     0.16767   0.09099   0.60577   0.00000  Uiso   1.00
C39    C     0.19665   0.11729   0.69018   0.00000  Uiso   1.00
C40    C     0.17538   0.11138   0.78942   0.00000  Uiso   1.00
C41    C     0.12713   0.08157   0.80354   0.00000  Uiso   1.00
C42    C     0.24517   0.14861   0.67667   0.00000  Uiso   1.00
C43    C     0.27294   0.13726   0.61222   0.00000  Uiso   1.00
C44    C     0.32140   0.16768   0.60235   0.00000  Uiso   1.00
C45    C     0.34401   0.21075   0.65665   0.00000  Uiso   1.00
C46    C     0.31618   0.22288   0.71847   0.00000  Uiso   1.00
C47    C     0.26775   0.19250   0.72799   0.00000  Uiso   1.00
H48    H     0.04715   0.92102   0.61717   0.00000  Uiso   1.00
H49    H     0.07826   0.87417   0.67948   0.00000  Uiso   1.00
H50    H     0.10939   0.94570   0.96809   0.00000  Uiso   1.00
H51    H     0.07582   0.98989   0.90795   0.00000  Uiso   1.00
H52    H     0.02755   0.81481   0.94514   0.00000  Uiso   1.00
H53    H     0.05737   0.86373   1.02685   0.00000  Uiso   1.00
H54    H     0.07290   0.78001   1.03289   0.00000  Uiso   1.00
H55    H     0.09832   0.82934   1.11689   0.00000  Uiso   1.00
H56    H     0.99448   0.75642   1.09753   0.00000  Uiso   1.00
H57    H     0.01563   0.80849   1.17131   0.00000  Uiso   1.00
H58    H     0.04432   0.73509   1.21160   0.00000  Uiso   1.00
H59    H     0.05836   0.78441   1.28911   0.00000  Uiso   1.00
H60    H     0.96171   0.69854   1.25677   0.00000  Uiso   1.00
H61    H     0.99605   0.71277   1.37023   0.00000  Uiso   1.00
H62    H     0.93099   0.72791   1.39507   0.00000  Uiso   1.00
H63    H     0.94700   0.76341   1.28396   0.00000  Uiso   1.00
H64    H     0.00007   0.82527   1.38308   0.00000  Uiso   1.00
H65    H     0.02383   0.82018   1.54954   0.00000  Uiso   1.00
H66    H     0.99522   0.76068   1.54204   0.00000  Uiso   1.00
H67    H     0.16462   0.86360   0.98209   0.00000  Uiso   1.00
H68    H     0.16305   0.91596   0.99968   0.00000  Uiso   1.00
H69    H     0.18417   0.90575   0.88114   0.00000  Uiso   1.00
H70    H     0.10631   0.79596   0.84812   0.00000  Uiso   1.00
H71    H     0.06391   0.80136   0.77409   0.00000  Uiso   1.00
H72    H     0.12432   0.83650   0.74368   0.00000  Uiso   1.00
H73    H     0.09933   0.04224   0.55731   0.00000  Uiso   1.00
H74    H     0.18130   0.09409   0.53260   0.00000  Uiso   1.00
H75    H     0.19491   0.12890   0.85298   0.00000  Uiso   1.00
H76    H     0.11281   0.07875   0.87585   0.00000  Uiso   1.00
H77    H     0.25831   0.10625   0.57258   0.00000  Uiso   1.00
H78    H     0.34000   0.15766   0.55565   0.00000  Uiso   1.00
H79    H     0.33094   0.25400   0.75798   0.00000  Uiso   1.00
H80    H     0.24912   0.20304   0.77310   0.00000  Uiso   1.00
C81    C     0.31397   0.69684   0.43211   0.00000  Uiso   1.00
C82    C     0.28472   0.64767   0.43285   0.00000  Uiso   1.00
C83    C     0.29462   0.72660   0.42698   0.00000  Uiso   1.00
C84    C     0.31196   0.76396   0.35447   0.00000  Uiso   1.00
C85    C     0.29187   0.79262   0.34573   0.00000  Uiso   1.00
C86    C     0.25352   0.78471   0.40910   0.00000  Uiso   1.00
C87    C     0.23652   0.74799   0.48253   0.00000  Uiso   1.00
C88    C     0.25683   0.71948   0.49170   0.00000  Uiso   1.00
N89    N     0.23082   0.80933   0.40254   0.00000  Uiso   1.00
C90    C     0.24102   0.84823   0.34722   0.00000  Uiso   1.00
C91    C     0.02841   0.97891   0.27129   0.00000  Uiso   1.00
C92    C     0.04962   0.02854   0.26608   0.00000  Uiso   1.00
H93    H     0.24919   0.63376   0.43252   0.00000  Uiso   1.00
H94    H     0.33912   0.77035   0.30581   0.00000  Uiso   1.00
H95    H     0.24361   0.69331   0.54624   0.00000  Uiso   1.00
H96    H     0.27144   0.86448   0.30533   0.00000  Uiso   1.00
H97    H     0.30531   0.81881   0.29157   0.00000  Uiso   1.00
H98    H     0.20896   0.74158   0.52989   0.00000  Uiso   1.00
C99    C     0.04206   0.09792   0.75819   0.00000  Uiso   1.00
C100   C     0.07413   0.13374   0.69167   0.00000  Uiso   1.00
C101   C     0.10193   0.17971   0.72919   0.00000  Uiso   1.00
C102   C     0.09808   0.19103   0.83405   0.00000  Uiso   1.00
C103   C     0.06111   0.15653   0.89474   0.00000  Uiso   1.00
C104   C     0.03423   0.11050   0.85846   0.00000  Uiso   1.00
Si105  Si    0.13722   0.24058   0.89116   0.00000  Uiso   1.00
C106   C     0.16340   0.22406   0.98558   0.00000  Uiso   1.00
C107   C     0.19327   0.26073   1.06997   0.00000  Uiso   1.00
C108   C     0.21763   0.24176   1.14307   0.00000  Uiso   1.00
C109   C     0.24204   0.27347   1.23891   0.00000  Uiso   1.00
C110   C     0.27221   0.25883   1.30496   0.00000  Uiso   1.00
C111   C     0.24704   0.20811   1.34903   0.00000  Uiso   1.00
C112   C     0.20620   0.19616   1.41283   0.00000  Uiso   1.00
C113   C     0.20876   0.21288   1.50928   0.00000  Uiso   1.00
C114   C     0.11062   0.26906   0.94320   0.00000  Uiso   1.00
C115   C     0.17947   0.27853   0.80693   0.00000  Uiso   1.00
C116   C     0.94370   0.04230   0.71840   0.00000  Uiso   1.00
C117   C     0.93938   0.05880   0.61978   0.00000  Uiso   1.00
C118   C     0.90901   0.07668   0.60577   0.00000  Uiso   1.00
C119   C     0.88271   0.07936   0.69018   0.00000  Uiso   1.00
C120   C     0.88862   0.06400   0.78942   0.00000  Uiso   1.00
C121   C     0.91843   0.04556   0.80354   0.00000  Uiso   1.00
C122   C     0.85139   0.09656   0.67667   0.00000  Uiso   1.00
C123   C     0.86274   0.13568   0.61222   0.00000  Uiso   1.00
C124   C     0.83232   0.15372   0.60235   0.00000  Uiso   1.00
C125   C     0.78925   0.13326   0.65665   0.00000  Uiso   1.00
C126   C     0.77712   0.09330   0.71847   0.00000  Uiso   1.00
C127   C     0.80750   0.07525   0.72799   0.00000  Uiso   1.00
H128   H     0.07898   0.12613   0.61717   0.00000  Uiso   1.00
H129   H     0.12583   0.20409   0.67948   0.00000  Uiso   1.00
H130   H     0.05430   0.16369   0.96809   0.00000  Uiso   1.00
H131   H     0.01011   0.08593   0.90795   0.00000  Uiso   1.00
H132   H     0.18519   0.21274   0.94514   0.00000  Uiso   1.00
H133   H     0.13627   0.19364   1.02685   0.00000  Uiso   1.00
H134   H     0.21999   0.29289   1.03289   0.00000  Uiso   1.00
H135   H     0.17066   0.26898   1.11689   0.00000  Uiso   1.00
H136   H     0.24358   0.23806   1.09753   0.00000  Uiso   1.00
H137   H     0.19151   0.20714   1.17131   0.00000  Uiso   1.00
H138   H     0.26491   0.30923   1.21160   0.00000  Uiso   1.00
H139   H     0.21559   0.27395   1.28911   0.00000  Uiso   1.00
H140   H     0.30146   0.26317   1.25677   0.00000  Uiso   1.00
H141   H     0.28723   0.28328   1.37023   0.00000  Uiso   1.00
H142   H     0.27209   0.20308   1.39507   0.00000  Uiso   1.00
H143   H     0.23659   0.18359   1.28396   0.00000  Uiso   1.00
H144   H     0.17473   0.17480   1.38308   0.00000  Uiso   1.00
H145   H     0.17982   0.20365   1.54954   0.00000  Uiso   1.00
H146   H     0.23932   0.23454   1.54204   0.00000  Uiso   1.00
H147   H     0.13640   0.30102   0.98209   0.00000  Uiso   1.00
H148   H     0.08404   0.24709   0.99968   0.00000  Uiso   1.00
H149   H     0.09425   0.27842   0.88114   0.00000  Uiso   1.00
H150   H     0.20404   0.31035   0.84812   0.00000  Uiso   1.00
H151   H     0.19864   0.26255   0.77409   0.00000  Uiso   1.00
H152   H     0.16350   0.28782   0.74368   0.00000  Uiso   1.00
H153   H     0.95776   0.05709   0.55731   0.00000  Uiso   1.00
H154   H     0.90591   0.08721   0.53260   0.00000  Uiso   1.00
H155   H     0.87110   0.06601   0.85298   0.00000  Uiso   1.00
H156   H     0.92125   0.03406   0.87585   0.00000  Uiso   1.00
H157   H     0.89375   0.15206   0.57258   0.00000  Uiso   1.00
H158   H     0.84234   0.18234   0.55565   0.00000  Uiso   1.00
H159   H     0.74600   0.07694   0.75798   0.00000  Uiso   1.00
H160   H     0.79696   0.04608   0.77310   0.00000  Uiso   1.00
C161   C     0.30316   0.61713   0.43211   0.00000  Uiso   1.00
C162   C     0.35233   0.63705   0.43285   0.00000  Uiso   1.00
C163   C     0.27340   0.56802   0.42698   0.00000  Uiso   1.00
C164   C     0.23604   0.54800   0.35447   0.00000  Uiso   1.00
C165   C     0.20738   0.49925   0.34573   0.00000  Uiso   1.00
C166   C     0.21529   0.46881   0.40910   0.00000  Uiso   1.00
C167   C     0.25201   0.48853   0.48253   0.00000  Uiso   1.00
C168   C     0.28052   0.53735   0.49170   0.00000  Uiso   1.00
N169   N     0.19067   0.42149   0.40254   0.00000  Uiso   1.00
C170   C     0.15177   0.39279   0.34722   0.00000  Uiso   1.00
C171   C     0.02109   0.04950   0.27129   0.00000  Uiso   1.00
C172   C     0.97146   0.02108   0.26608   0.00000  Uiso   1.00
H173   H     0.36624   0.61543   0.43252   0.00000  Uiso   1.00
H174   H     0.22965   0.56877   0.30581   0.00000  Uiso   1.00
H175   H     0.30669   0.55030   0.54624   0.00000  Uiso   1.00
H176   H     0.13552   0.40696   0.30533   0.00000  Uiso   1.00
H177   H     0.18119   0.48650   0.29157   0.00000  Uiso   1.00
H178   H     0.25842   0.46738   0.52989   0.00000  Uiso   1.00
C179   C     0.90208   0.94414   0.75819   0.00000  Uiso   1.00
C180   C     0.86626   0.94039   0.69167   0.00000  Uiso   1.00
C181   C     0.82029   0.92222   0.72919   0.00000  Uiso   1.00
C182   C     0.80897   0.90705   0.83405   0.00000  Uiso   1.00
C183   C     0.84347   0.90458   0.89474   0.00000  Uiso   1.00
C184   C     0.88950   0.92373   0.85846   0.00000  Uiso   1.00
Si185  Si    0.75942   0.89664   0.89116   0.00000  Uiso   1.00
C186   C     0.77594   0.93934   0.98558   0.00000  Uiso   1.00
C187   C     0.73927   0.93254   1.06997   0.00000  Uiso   1.00
C188   C     0.75824   0.97587   1.14307   0.00000  Uiso   1.00
C189   C     0.72653   0.96857   1.23891   0.00000  Uiso   1.00
C190   C     0.74117   0.01338   1.30496   0.00000  Uiso   1.00
C191   C     0.79189   0.03893   1.34903   0.00000  Uiso   1.00
C192   C     0.80384   0.01004   1.41283   0.00000  Uiso   1.00
C193   C     0.78712   0.99588   1.50928   0.00000  Uiso   1.00
C194   C     0.73094   0.84156   0.94320   0.00000  Uiso   1.00
C195   C     0.72147   0.90094   0.80693   0.00000  Uiso   1.00
C196   C     0.95770   0.90140   0.71840   0.00000  Uiso   1.00
C197   C     0.94120   0.88058   0.61978   0.00000  Uiso   1.00
C198   C     0.92332   0.83233   0.60577   0.00000  Uiso   1.00
C199   C     0.92064   0.80335   0.69018   0.00000  Uiso   1.00
C200   C     0.93600   0.82462   0.78942   0.00000  Uiso   1.00
C201   C     0.95444   0.87287   0.80354   0.00000  Uiso   1.00
C202   C     0.90344   0.75483   0.67667   0.00000  Uiso   1.00
C203   C     0.86432   0.72706   0.61222   0.00000  Uiso   1.00
C204   C     0.84628   0.67860   0.60235   0.00000  Uiso   1.00
C205   C     0.86674   0.65599   0.65665   0.00000  Uiso   1.00
C206   C     0.90670   0.68382   0.71847   0.00000  Uiso   1.00
C207   C     0.92475   0.73225   0.72799   0.00000  Uiso   1.00
H208   H     0.87387   0.95285   0.61717   0.00000  Uiso   1.00
H209   H     0.79591   0.92174   0.67948   0.00000  Uiso   1.00
H210   H     0.83631   0.89061   0.96809   0.00000  Uiso   1.00
H211   H     0.91407   0.92418   0.90795   0.00000  Uiso   1.00
H212   H     0.78726   0.97245   0.94514   0.00000  Uiso   1.00
H213   H     0.80636   0.94263   1.02685   0.00000  Uiso   1.00
H214   H     0.70711   0.92710   1.03289   0.00000  Uiso   1.00
H215   H     0.73102   0.90168   1.11689   0.00000  Uiso   1.00
H216   H     0.76194   0.00552   1.09753   0.00000  Uiso   1.00
H217   H     0.79286   0.98437   1.17131   0.00000  Uiso   1.00
H218   H     0.69077   0.95568   1.21160   0.00000  Uiso   1.00
H219   H     0.72605   0.94164   1.28911   0.00000  Uiso   1.00
H220   H     0.73683   0.03829   1.25677   0.00000  Uiso   1.00
H221   H     0.71672   0.00395   1.37023   0.00000  Uiso   1.00
H222   H     0.79692   0.06901   1.39507   0.00000  Uiso   1.00
H223   H     0.81641   0.05300   1.28396   0.00000  Uiso   1.00
H224   H     0.82520   0.99993   1.38308   0.00000  Uiso   1.00
H225   H     0.79635   0.97617   1.54954   0.00000  Uiso   1.00
H226   H     0.76546   0.00478   1.54204   0.00000  Uiso   1.00
H227   H     0.69898   0.83538   0.98209   0.00000  Uiso   1.00
H228   H     0.75291   0.83695   0.99968   0.00000  Uiso   1.00
H229   H     0.72158   0.81583   0.88114   0.00000  Uiso   1.00
H230   H     0.68965   0.89369   0.84812   0.00000  Uiso   1.00
H231   H     0.73745   0.93609   0.77409   0.00000  Uiso   1.00
H232   H     0.71218   0.87568   0.74368   0.00000  Uiso   1.00
H233   H     0.94291   0.90067   0.55731   0.00000  Uiso   1.00
H234   H     0.91279   0.81870   0.53260   0.00000  Uiso   1.00
H235   H     0.93399   0.80509   0.85298   0.00000  Uiso   1.00
H236   H     0.96594   0.88719   0.87585   0.00000  Uiso   1.00
H237   H     0.84794   0.74169   0.57258   0.00000  Uiso   1.00
H238   H     0.81766   0.66000   0.55565   0.00000  Uiso   1.00
H239   H     0.92306   0.66906   0.75798   0.00000  Uiso   1.00
H240   H     0.95392   0.75088   0.77310   0.00000  Uiso   1.00
C241   C     0.61713   0.31397   0.56789   0.00000  Uiso   1.00
C242   C     0.63705   0.28472   0.56715   0.00000  Uiso   1.00
C243   C     0.56802   0.29462   0.57302   0.00000  Uiso   1.00
C244   C     0.54800   0.31196   0.64553   0.00000  Uiso   1.00
C245   C     0.49925   0.29187   0.65427   0.00000  Uiso   1.00
C246   C     0.46881   0.25352   0.59090   0.00000  Uiso   1.00
C247   C     0.48853   0.23652   0.51747   0.00000  Uiso   1.00
C248   C     0.53735   0.25683   0.50830   0.00000  Uiso   1.00
N249   N     0.42149   0.23082   0.59746   0.00000  Uiso   1.00
C250   C     0.39279   0.24102   0.65278   0.00000  Uiso   1.00
C251   C     0.04950   0.02841   0.72871   0.00000  Uiso   1.00
C252   C     0.02108   0.04962   0.73392   0.00000  Uiso   1.00
H253   H     0.61543   0.24919   0.56748   0.00000  Uiso   1.00
H254   H     0.56877   0.33912   0.69419   0.00000  Uiso   1.00
H255   H     0.55030   0.24361   0.45376   0.00000  Uiso   1.00
H256   H     0.40696   0.27144   0.69467   0.00000  Uiso   1.00
H257   H     0.48650   0.30531   0.70843   0.00000  Uiso   1.00
H258   H     0.46738   0.20896   0.47011   0.00000  Uiso   1.00
C259   C     0.94414   0.04206   0.24181   0.00000  Uiso   1.00
C260   C     0.94039   0.07413   0.30833   0.00000  Uiso   1.00
C261   C     0.92222   0.10193   0.27081   0.00000  Uiso   1.00
C262   C     0.90705   0.09808   0.16595   0.00000  Uiso   1.00
C263   C     0.90458   0.06111   0.10526   0.00000  Uiso   1.00
C264   C     0.92373   0.03423   0.14154   0.00000  Uiso   1.00
Si265  Si    0.89664   0.13722   0.10884   0.00000  Uiso   1.00
C266   C     0.93934   0.16340   0.01442   0.00000  Uiso   1.00
C267   C     0.93254   0.19327  -0.06997   0.00000  Uiso   1.00
C268   C     0.97587   0.21763  -0.14307   0.00000  Uiso   1.00
C269   C     0.96857   0.24204  -0.23891   0.00000  Uiso   1.00
C270   C     0.01338   0.27221  -0.30496   0.00000  Uiso   1.00
C271   C     0.03893   0.24704  -0.34903   0.00000  Uiso   1.00
C272   C     0.01004   0.20620  -0.41283   0.00000  Uiso   1.00
C273   C     0.99588   0.20876  -0.50928   0.00000  Uiso   1.00
C274   C     0.84156   0.11062   0.05680   0.00000  Uiso   1.00
C275   C     0.90094   0.17947   0.19307   0.00000  Uiso   1.00
C276   C     0.90140   0.94370   0.28160   0.00000  Uiso   1.00
C277   C     0.88058   0.93938   0.38022   0.00000  Uiso   1.00
C278   C     0.83233   0.90901   0.39423   0.00000  Uiso   1.00
C279   C     0.80335   0.88271   0.30982   0.00000  Uiso   1.00
C280   C     0.82462   0.88862   0.21058   0.00000  Uiso   1.00
C281   C     0.87287   0.91843   0.19646   0.00000  Uiso   1.00
C282   C     0.75483   0.85139   0.32333   0.00000  Uiso   1.00
C283   C     0.72706   0.86274   0.38778   0.00000  Uiso   1.00
C284   C     0.67860   0.83232   0.39765   0.00000  Uiso   1.00
C285   C     0.65599   0.78925   0.34335   0.00000  Uiso   1.00
C286   C     0.68382   0.77712   0.28153   0.00000  Uiso   1.00
C287   C     0.73225   0.80750   0.27201   0.00000  Uiso   1.00
H288   H     0.95285   0.07898   0.38283   0.00000  Uiso   1.00
H289   H     0.92174   0.12583   0.32052   0.00000  Uiso   1.00
H290   H     0.89061   0.05430   0.03191   0.00000  Uiso   1.00
H291   H     0.92418   0.01011   0.09205   0.00000  Uiso   1.00
H292   H     0.97245   0.18519   0.05486   0.00000  Uiso   1.00
H293   H     0.94263   0.13627  -0.02685   0.00000  Uiso   1.00
H294   H     0.92710   0.21999  -0.03289   0.00000  Uiso   1.00
H295   H     0.90168   0.17066  -0.11689   0.00000  Uiso   1.00
H296   H     0.00552   0.24358  -0.09753   0.00000  Uiso   1.00
H297   H     0.98437   0.19151  -0.17131   0.00000  Uiso   1.00
H298   H     0.95568   0.26491  -0.21160   0.00000  Uiso   1.00
H299   H     0.94164   0.21559  -0.28911   0.00000  Uiso   1.00
H300   H     0.03829   0.30146  -0.25677   0.00000  Uiso   1.00
H301   H     0.00395   0.28723  -0.37023   0.00000  Uiso   1.00
H302   H     0.06901   0.27209  -0.39507   0.00000  Uiso   1.00
H303   H     0.05300   0.23659  -0.28396   0.00000  Uiso   1.00
H304   H     0.99993   0.17473  -0.38308   0.00000  Uiso   1.00
H305   H     0.97617   0.17982  -0.54954   0.00000  Uiso   1.00
H306   H     0.00478   0.23932  -0.54204   0.00000  Uiso   1.00
H307   H     0.83538   0.13640   0.01791   0.00000  Uiso   1.00
H308   H     0.83695   0.08404   0.00032   0.00000  Uiso   1.00
H309   H     0.81583   0.09425   0.11886   0.00000  Uiso   1.00
H310   H     0.89369   0.20404   0.15188   0.00000  Uiso   1.00
H311   H     0.93609   0.19864   0.22591   0.00000  Uiso   1.00
H312   H     0.87568   0.16350   0.25632   0.00000  Uiso   1.00
H313   H     0.90067   0.95776   0.44269   0.00000  Uiso   1.00
H314   H     0.81870   0.90591   0.46740   0.00000  Uiso   1.00
H315   H     0.80509   0.87110   0.14702   0.00000  Uiso   1.00
H316   H     0.88719   0.92125   0.12415   0.00000  Uiso   1.00
H317   H     0.74169   0.89375   0.42742   0.00000  Uiso   1.00
H318   H     0.66000   0.84234   0.44435   0.00000  Uiso   1.00
H319   H     0.66906   0.74600   0.24202   0.00000  Uiso   1.00
H320   H     0.75088   0.79696   0.22690   0.00000  Uiso   1.00
C321   C     0.68603   0.30316   0.56789   0.00000  Uiso   1.00
C322   C     0.71528   0.35233   0.56715   0.00000  Uiso   1.00
C323   C     0.70538   0.27340   0.57302   0.00000  Uiso   1.00
C324   C     0.68804   0.23604   0.64553   0.00000  Uiso   1.00
C325   C     0.70813   0.20738   0.65427   0.00000  Uiso   1.00
C326   C     0.74648   0.21529   0.59090   0.00000  Uiso   1.00
C327   C     0.76348   0.25201   0.51747   0.00000  Uiso   1.00
C328   C     0.74317   0.28052   0.50830   0.00000  Uiso   1.00
N329   N     0.76918   0.19067   0.59746   0.00000  Uiso   1.00
C330   C     0.75898   0.15177   0.65278   0.00000  Uiso   1.00
C331   C     0.97159   0.02109   0.72871   0.00000  Uiso   1.00
C332   C     0.95038   0.97146   0.73392   0.00000  Uiso   1.00
H333   H     0.75081   0.36624   0.56748   0.00000  Uiso   1.00
H334   H     0.66088   0.22965   0.69419   0.00000  Uiso   1.00
H335   H     0.75639   0.30669   0.45376   0.00000  Uiso   1.00
H336   H     0.72856   0.13552   0.69467   0.00000  Uiso   1.00
H337   H     0.69469   0.18119   0.70843   0.00000  Uiso   1.00
H338   H     0.79104   0.25842   0.47011   0.00000  Uiso   1.00
C339   C     0.95794   0.90208   0.24181   0.00000  Uiso   1.00
C340   C     0.92587   0.86626   0.30833   0.00000  Uiso   1.00
C341   C     0.89807   0.82029   0.27081   0.00000  Uiso   1.00
C342   C     0.90192   0.80897   0.16595   0.00000  Uiso   1.00
C343   C     0.93889   0.84347   0.10526   0.00000  Uiso   1.00
C344   C     0.96577   0.88950   0.14154   0.00000  Uiso   1.00
Si345  Si    0.86278   0.75942   0.10884   0.00000  Uiso   1.00
C346   C     0.83660   0.77594   0.01442   0.00000  Uiso   1.00
C347   C     0.80673   0.73927  -0.06997   0.00000  Uiso   1.00
C348   C     0.78237   0.75824  -0.14307   0.00000  Uiso   1.00
C349   C     0.75796   0.72653  -0.23891   0.00000  Uiso   1.00
C350   C     0.72779   0.74117  -0.30496   0.00000  Uiso   1.00
C351   C     0.75296   0.79189  -0.34903   0.00000  Uiso   1.00
C352   C     0.79380   0.80384  -0.41283   0.00000  Uiso   1.00
C353   C     0.79124   0.78712  -0.50928   0.00000  Uiso   1.00
C354   C     0.88938   0.73094   0.05680   0.00000  Uiso   1.00
C355   C     0.82053   0.72147   0.19307   0.00000  Uiso   1.00
C356   C     0.05630   0.95770   0.28160   0.00000  Uiso   1.00
C357   C     0.06062   0.94120   0.38022   0.00000  Uiso   1.00
C358   C     0.09099   0.92332   0.39423   0.00000  Uiso   1.00
C359   C     0.11729   0.92064   0.30982   0.00000  Uiso   1.00
C360   C     0.11138   0.93600   0.21058   0.00000  Uiso   1.00
C361   C     0.08157   0.95444   0.19646   0.00000  Uiso   1.00
C362   C     0.14861   0.90344   0.32333   0.00000  Uiso   1.00
C363   C     0.13726   0.86432   0.38778   0.00000  Uiso   1.00
C364   C     0.16768   0.84628   0.39765   0.00000  Uiso   1.00
C365   C     0.21075   0.86674   0.34335   0.00000  Uiso   1.00
C366   C     0.22288   0.90670   0.28153   0.00000  Uiso   1.00
C367   C     0.19250   0.92475   0.27201   0.00000  Uiso   1.00
H368   H     0.92102   0.87387   0.38283   0.00000  Uiso   1.00
H369   H     0.87417   0.79591   0.32052   0.00000  Uiso   1.00
H370   H     0.94570   0.83631   0.03191   0.00000  Uiso   1.00
H371   H     0.98989   0.91407   0.09205   0.00000  Uiso   1.00
H372   H     0.81481   0.78726   0.05486   0.00000  Uiso   1.00
H373   H     0.86373   0.80636  -0.02685   0.00000  Uiso   1.00
H374   H     0.78001   0.70711  -0.03289   0.00000  Uiso   1.00
H375   H     0.82934   0.73102  -0.11689   0.00000  Uiso   1.00
H376   H     0.75642   0.76194  -0.09753   0.00000  Uiso   1.00
H377   H     0.80849   0.79286  -0.17131   0.00000  Uiso   1.00
H378   H     0.73509   0.69077  -0.21160   0.00000  Uiso   1.00
H379   H     0.78441   0.72605  -0.28911   0.00000  Uiso   1.00
H380   H     0.69854   0.73683  -0.25677   0.00000  Uiso   1.00
H381   H     0.71277   0.71672  -0.37023   0.00000  Uiso   1.00
H382   H     0.72791   0.79692  -0.39507   0.00000  Uiso   1.00
H383   H     0.76341   0.81641  -0.28396   0.00000  Uiso   1.00
H384   H     0.82527   0.82520  -0.38308   0.00000  Uiso   1.00
H385   H     0.82018   0.79635  -0.54954   0.00000  Uiso   1.00
H386   H     0.76068   0.76546  -0.54204   0.00000  Uiso   1.00
H387   H     0.86360   0.69898   0.01791   0.00000  Uiso   1.00
H388   H     0.91596   0.75291   0.00032   0.00000  Uiso   1.00
H389   H     0.90575   0.72158   0.11886   0.00000  Uiso   1.00
H390   H     0.79596   0.68965   0.15188   0.00000  Uiso   1.00
H391   H     0.80136   0.73745   0.22591   0.00000  Uiso   1.00
H392   H     0.83650   0.71218   0.25632   0.00000  Uiso   1.00
H393   H     0.04224   0.94291   0.44269   0.00000  Uiso   1.00
H394   H     0.09409   0.91279   0.46740   0.00000  Uiso   1.00
H395   H     0.12890   0.93399   0.14702   0.00000  Uiso   1.00
H396   H     0.07875   0.96594   0.12415   0.00000  Uiso   1.00
H397   H     0.10625   0.84794   0.42742   0.00000  Uiso   1.00
H398   H     0.15766   0.81766   0.44435   0.00000  Uiso   1.00
H399   H     0.25400   0.92306   0.24202   0.00000  Uiso   1.00
H400   H     0.20304   0.95392   0.22690   0.00000  Uiso   1.00
C401   C     0.69684   0.38287   0.56789   0.00000  Uiso   1.00
C402   C     0.64767   0.36295   0.56715   0.00000  Uiso   1.00
C403   C     0.72660   0.43198   0.57302   0.00000  Uiso   1.00
C404   C     0.76396   0.45200   0.64553   0.00000  Uiso   1.00
C405   C     0.79262   0.50075   0.65427   0.00000  Uiso   1.00
C406   C     0.78471   0.53119   0.59090   0.00000  Uiso   1.00
C407   C     0.74799   0.51147   0.51747   0.00000  Uiso   1.00
C408   C     0.71948   0.46265   0.50830   0.00000  Uiso   1.00
N409   N     0.80933   0.57851   0.59746   0.00000  Uiso   1.00
C410   C     0.84823   0.60721   0.65278   0.00000  Uiso   1.00
C411   C     0.97891   0.95050   0.72871   0.00000  Uiso   1.00
C412   C     0.02854   0.97892   0.73392   0.00000  Uiso   1.00
H413   H     0.63376   0.38457   0.56748   0.00000  Uiso   1.00
H414   H     0.77035   0.43123   0.69419   0.00000  Uiso   1.00
H415   H     0.69331   0.44970   0.45376   0.00000  Uiso   1.00
H416   H     0.86448   0.59304   0.69467   0.00000  Uiso   1.00
H417   H     0.81881   0.51350   0.70843   0.00000  Uiso   1.00
H418   H     0.74158   0.53262   0.47011   0.00000  Uiso   1.00
C419   C     0.09792   0.05586   0.24181   0.00000  Uiso   1.00
C420   C     0.13374   0.05961   0.30833   0.00000  Uiso   1.00
C421   C     0.17971   0.07778   0.27081   0.00000  Uiso   1.00
C422   C     0.19103   0.09295   0.16595   0.00000  Uiso   1.00
C423   C     0.15653   0.09542   0.10526   0.00000  Uiso   1.00
C424   C     0.11050   0.07627   0.14154   0.00000  Uiso   1.00
Si425  Si    0.24058   0.10336   0.10884   0.00000  Uiso   1.00
C426   C     0.22406   0.06066   0.01442   0.00000  Uiso   1.00
C427   C     0.26073   0.06746  -0.06997   0.00000  Uiso   1.00
C428   C     0.24176   0.02413  -0.14307   0.00000  Uiso   1.00
C429   C     0.27347   0.03143  -0.23891   0.00000  Uiso   1.00
C430   C     0.25883   0.98662  -0.30496   0.00000  Uiso   1.00
C431   C     0.20811   0.96107  -0.34903   0.00000  Uiso   1.00
C432   C     0.19616   0.98996  -0.41283   0.00000  Uiso   1.00
C433   C     0.21288   0.00412  -0.50928   0.00000  Uiso   1.00
C434   C     0.26906   0.15844   0.05680   0.00000  Uiso   1.00
C435   C     0.27853   0.09906   0.19307   0.00000  Uiso   1.00
C436   C     0.04230   0.09860   0.28160   0.00000  Uiso   1.00
C437   C     0.05880   0.11942   0.38022   0.00000  Uiso   1.00
C438   C     0.07668   0.16767   0.39423   0.00000  Uiso   1.00
C439   C     0.07936   0.19665   0.30982   0.00000  Uiso   1.00
C440   C     0.06400   0.17538   0.21058   0.00000  Uiso   1.00
C441   C     0.04556   0.12713   0.19646   0.00000  Uiso   1.00
C442   C     0.09656   0.24517   0.32333   0.00000  Uiso   1.00
C443   C     0.13568   0.27294   0.38778   0.00000  Uiso   1.00
C444   C     0.15372   0.32140   0.39765   0.00000  Uiso   1.00
C445   C     0.13326   0.34401   0.34335   0.00000  Uiso   1.00
C446   C     0.09330   0.31618   0.28153   0.00000  Uiso   1.00
C447   C     0.07525   0.26775   0.27201   0.00000  Uiso   1.00
H448   H     0.12613   0.04715   0.38283   0.00000  Uiso   1.00
H449   H     0.20409   0.07826   0.32052   0.00000  Uiso   1.00
H450   H     0.16369   0.10939   0.03191   0.00000  Uiso   1.00
H451   H     0.08593   0.07582   0.09205   0.00000  Uiso   1.00
H452   H     0.21274   0.02755   0.05486   0.00000  Uiso   1.00
H453   H     0.19364   0.05737  -0.02685   0.00000  Uiso   1.00
H454   H     0.29289   0.07290  -0.03289   0.00000  Uiso   1.00
H455   H     0.26898   0.09832  -0.11689   0.00000  Uiso   1.00
H456   H     0.23806   0.99448  -0.09753   0.00000  Uiso   1.00
H457   H     0.20714   0.01563  -0.17131   0.00000  Uiso   1.00
H458   H     0.30923   0.04432  -0.21160   0.00000  Uiso   1.00
H459   H     0.27395   0.05836  -0.28911   0.00000  Uiso   1.00
H460   H     0.26317   0.96171  -0.25677   0.00000  Uiso   1.00
H461   H     0.28328   0.99605  -0.37023   0.00000  Uiso   1.00
H462   H     0.20308   0.93099  -0.39507   0.00000  Uiso   1.00
H463   H     0.18359   0.94700  -0.28396   0.00000  Uiso   1.00
H464   H     0.17480   0.00007  -0.38308   0.00000  Uiso   1.00
H465   H     0.20365   0.02383  -0.54954   0.00000  Uiso   1.00
H466   H     0.23454   0.99522  -0.54204   0.00000  Uiso   1.00
H467   H     0.30102   0.16462   0.01791   0.00000  Uiso   1.00
H468   H     0.24709   0.16305   0.00032   0.00000  Uiso   1.00
H469   H     0.27842   0.18417   0.11886   0.00000  Uiso   1.00
H470   H     0.31035   0.10631   0.15188   0.00000  Uiso   1.00
H471   H     0.26255   0.06391   0.22591   0.00000  Uiso   1.00
H472   H     0.28782   0.12432   0.25632   0.00000  Uiso   1.00
H473   H     0.05709   0.09933   0.44269   0.00000  Uiso   1.00
H474   H     0.08721   0.18130   0.46740   0.00000  Uiso   1.00
H475   H     0.06601   0.19491   0.14702   0.00000  Uiso   1.00
H476   H     0.03406   0.11281   0.12415   0.00000  Uiso   1.00
H477   H     0.15206   0.25831   0.42742   0.00000  Uiso   1.00
H478   H     0.18234   0.34000   0.44435   0.00000  Uiso   1.00
H479   H     0.07694   0.33094   0.24202   0.00000  Uiso   1.00
H480   H     0.04608   0.24912   0.22690   0.00000  Uiso   1.00
loop_
_geom_bond_atom_site_label_1
_geom_bond_atom_site_label_2
_geom_bond_distance
_geom_bond_site_symmetry_2
_ccdc_geom_bond_type
C1     C2      1.415   .     S
C1     C3      1.417   .     S
C1     C162    1.415   .     D
C2     H13     1.024   .     S
C2     C81     1.415   .     D
C3     C4      1.416   .     D
C3     C8      1.416   .     S
C4     C5      1.406   .     S
C4     H14     1.024   .     S
C5     C6      1.414   .     D
C5     H17     1.021   .     S
C6     C7      1.410   .     S
C6     N9      1.357   .     S
C7     C8      1.408   .     D
C7     H18     1.024   .     S
C8     H15     1.024   .     S
N9     C10     1.354   .     D
C10    H16     1.023   .     S
C10    C285    1.410   .     S
C11    C12     1.426   .     D
C11    C276    1.415   .     S
C11    C172    1.423   1_565 S
C12    C339    1.420   .     S
C12    C91     1.423   1_655 S
C19    C20     1.412   .     S
C19    C24     1.412   .     D
C19    C412    1.420   .     S
C20    C21     1.409   .     D
C20    H48     1.019   .     S
C21    C22     1.416   .     S
C21    H49     1.020   .     S
C22    C23     1.415   .     D
C22    Si25    1.664   .     S
C23    C24     1.402   .     S
C23    H50     1.020   .     S
C24    H51     1.024   .     S
Si25   C26     1.726   .     S
Si25   C34     1.711   .     S
Si25   C35     1.712   .     S
C26    C27     1.553   .     S
C26    H52     1.093   .     S
C26    H53     1.091   .     S
C27    C28     1.556   .     S
C27    H54     1.093   .     S
C27    H55     1.094   .     S
C28    C29     1.552   .     S
C28    H57     1.094   .     S
C28    H56     1.093   1_455 S
C29    H58     1.093   .     S
C29    H59     1.091   .     S
C29    C30     1.557   1_455 S
C30    C31     1.557   .     S
C30    H60     1.094   .     S
C30    H61     1.093   .     S
C30    C29     1.557   1_655 S
C31    C32     1.453   .     S
C31    H62     1.094   .     S
C31    H63     1.091   .     S
C32    C33     1.338   1_655 D
C32    H64     0.995   1_655 S
C33    H65     0.990   .     S
C33    C32     1.338   1_455 D
C33    H66     0.992   1_455 S
C34    H67     1.090   .     S
C34    H68     1.088   .     S
C34    H69     1.089   .     S
C35    H70     1.090   .     S
C35    H71     1.091   .     S
C35    H72     1.091   .     S
C36    C37     1.410   .     S
C36    C41     1.409   .     D
C36    C251    1.415   .     S
C37    C38     1.407   .     D
C37    H73     1.022   .     S
C38    C39     1.417   .     S
C38    H74     1.022   .     S
C39    C40     1.417   .     D
C39    C42     1.418   .     S
C40    C41     1.405   .     S
C40    H75     1.020   .     S
C41    H76     1.022   .     S
C42    C43     1.416   .     D
C42    C47     1.417   .     S
C43    C44     1.407   .     S
C43    H77     1.022   .     S
C44    C45     1.415   .     D
C44    H78     1.024   .     S
C45    C46     1.414   .     S
C45    C250    1.410   .     S
C46    C47     1.406   .     D
C46    H79     1.024   .     S
C47    H80     1.023   .     S
H56    C28     1.093   1_655 S
H64    C32     0.995   1_455 S
H66    C33     0.992   1_655 S
C81    C82     1.415   .     S
C81    C83     1.417   .     S
C82    H93     1.024   .     S
C82    C161    1.415   .     D
C83    C84     1.416   .     D
C83    C88     1.416   .     S
C84    C85     1.406   .     S
C84    H94     1.024   .     S
C85    C86     1.414   .     D
C85    H97     1.021   .     S
C86    C87     1.410   .     S
C86    N89     1.357   .     S
C87    C88     1.408   .     D
C87    H98     1.024   .     S
C88    H95     1.024   .     S
N89    C90     1.354   .     D
C90    H96     1.023   .     S
C90    C365    1.410   .     S
C91    C356    1.415   .     S
C91    C12     1.423   1_455 S
C91    C92     1.426   1_565 D
C92    C171    1.423   .     S
C92    C419    1.420   .     S
C92    C91     1.426   1_545 D
C99    C100    1.412   .     S
C99    C104    1.412   .     D
C99    C252    1.420   .     S
C100   C101    1.409   .     D
C100   H128    1.019   .     S
C101   C102    1.416   .     S
C101   H129    1.020   .     S
C102   C103    1.415   .     D
C102   Si105   1.664   .     S
C103   C104    1.402   .     S
C103   H130    1.020   .     S
C104   H131    1.024   .     S
Si105  C106    1.726   .     S
Si105  C114    1.711   .     S
Si105  C115    1.712   .     S
C106   C107    1.553   .     S
C106   H132    1.093   .     S
C106   H133    1.091   .     S
C107   C108    1.556   .     S
C107   H134    1.093   .     S
C107   H135    1.094   .     S
C108   C109    1.552   .     S
C108   H136    1.093   .     S
C108   H137    1.094   .     S
C109   C110    1.557   .     S
C109   H138    1.093   .     S
C109   H139    1.091   .     S
C110   C111    1.557   .     S
C110   H140    1.094   .     S
C110   H141    1.093   .     S
C111   C112    1.453   .     S
C111   H142    1.094   .     S
C111   H143    1.091   .     S
C112   C113    1.338   .     D
C112   H144    0.995   .     S
C113   H145    0.990   .     S
C113   H146    0.992   .     S
C114   H147    1.090   .     S
C114   H148    1.088   .     S
C114   H149    1.089   .     S
C115   H150    1.090   .     S
C115   H151    1.091   .     S
C115   H152    1.091   .     S
C116   C117    1.410   .     S
C116   C121    1.409   .     D
C116   C331    1.415   .     S
C117   C118    1.407   .     D
C117   H153    1.022   .     S
C118   C119    1.417   .     S
C118   H154    1.022   .     S
C119   C120    1.417   .     D
C119   C122    1.418   .     S
C120   C121    1.405   .     S
C120   H155    1.020   .     S
C121   H156    1.022   .     S
C122   C123    1.416   .     D
C122   C127    1.417   .     S
C123   C124    1.407   .     S
C123   H157    1.022   .     S
C124   C125    1.415   .     D
C124   H158    1.024   .     S
C125   C126    1.414   .     S
C125   C330    1.410   .     S
C126   C127    1.406   .     D
C126   H159    1.024   .     S
C127   H160    1.023   .     S
C161   C162    1.415   .     S
C161   C163    1.417   .     S
C162   H173    1.024   .     S
C163   C164    1.416   .     D
C163   C168    1.416   .     S
C164   C165    1.406   .     S
C164   H174    1.024   .     S
C165   C166    1.414   .     D
C165   H177    1.021   .     S
C166   C167    1.410   .     S
C166   N169    1.357   .     S
C167   C168    1.408   .     D
C167   H178    1.024   .     S
C168   H175    1.024   .     S
N169   C170    1.354   .     D
C170   H176    1.023   .     S
C170   C445    1.410   .     S
C171   C436    1.415   .     S
C171   C172    1.426   1_455 D
C172   C259    1.420   .     S
C172   C11     1.423   1_545 S
C172   C171    1.426   1_655 D
C179   C180    1.412   .     S
C179   C184    1.412   .     D
C179   C332    1.420   .     S
C180   C181    1.409   .     D
C180   H208    1.019   .     S
C181   C182    1.416   .     S
C181   H209    1.020   .     S
C182   C183    1.415   .     D
C182   Si185   1.664   .     S
C183   C184    1.402   .     S
C183   H210    1.020   .     S
C184   H211    1.024   .     S
Si185  C186    1.726   .     S
Si185  C194    1.711   .     S
Si185  C195    1.712   .     S
C186   C187    1.553   .     S
C186   H212    1.093   .     S
C186   H213    1.091   .     S
C187   C188    1.556   .     S
C187   H214    1.093   .     S
C187   H215    1.094   .     S
C188   C189    1.552   .     S
C188   H217    1.094   .     S
C188   H216    1.093   1_565 S
C189   H218    1.093   .     S
C189   H219    1.091   .     S
C189   C190    1.557   1_565 S
C190   C191    1.557   .     S
C190   H220    1.094   .     S
C190   H221    1.093   .     S
C190   C189    1.557   1_545 S
C191   C192    1.453   .     S
C191   H222    1.094   .     S
C191   H223    1.091   .     S
C192   C193    1.338   1_545 D
C192   H224    0.995   1_545 S
C193   H225    0.990   .     S
C193   C192    1.338   1_565 D
C193   H226    0.992   1_565 S
C194   H227    1.090   .     S
C194   H228    1.088   .     S
C194   H229    1.089   .     S
C195   H230    1.090   .     S
C195   H231    1.091   .     S
C195   H232    1.091   .     S
C196   C197    1.410   .     S
C196   C201    1.409   .     D
C196   C411    1.415   .     S
C197   C198    1.407   .     D
C197   H233    1.022   .     S
C198   C199    1.417   .     S
C198   H234    1.022   .     S
C199   C200    1.417   .     D
C199   C202    1.418   .     S
C200   C201    1.405   .     S
C200   H235    1.020   .     S
C201   H236    1.022   .     S
C202   C203    1.416   .     S
C202   C207    1.417   .     D
C203   C204    1.407   .     D
C203   H237    1.022   .     S
C204   C205    1.415   .     S
C204   H238    1.024   .     S
C205   C206    1.414   .     D
C205   C410    1.410   .     S
C206   C207    1.406   .     S
C206   H239    1.024   .     S
C207   H240    1.023   .     S
H216   C188    1.093   1_545 S
H224   C192    0.995   1_565 S
H226   C193    0.992   1_545 S
C241   C242    1.415   .     S
C241   C243    1.417   .     S
C241   C402    1.415   .     D
C242   H253    1.024   .     S
C242   C321    1.415   .     D
C243   C244    1.416   .     D
C243   C248    1.416   .     S
C244   C245    1.406   .     S
C244   H254    1.024   .     S
C245   C246    1.414   .     D
C245   H257    1.021   .     S
C246   C247    1.410   .     S
C246   N249    1.357   .     S
C247   C248    1.408   .     D
C247   H258    1.024   .     S
C248   H255    1.024   .     S
N249   C250    1.354   .     D
C250   H256    1.023   .     S
C251   C252    1.426   .     S
C251   C412    1.423   1_545 D
C252   C331    1.423   1_455 D
C259   C260    1.412   .     S
C259   C264    1.412   .     D
C260   C261    1.409   .     D
C260   H288    1.019   .     S
C261   C262    1.416   .     S
C261   H289    1.020   .     S
C262   C263    1.415   .     D
C262   Si265   1.664   .     S
C263   C264    1.402   .     S
C263   H290    1.020   .     S
C264   H291    1.024   .     S
Si265  C266    1.726   .     S
Si265  C274    1.711   .     S
Si265  C275    1.712   .     S
C266   C267    1.553   .     S
C266   H292    1.093   .     S
C266   H293    1.091   .     S
C267   C268    1.556   .     S
C267   H294    1.093   .     S
C267   H295    1.094   .     S
C268   C269    1.552   .     S
C268   H297    1.094   .     S
C268   H296    1.093   1_655 S
C269   H298    1.093   .     S
C269   H299    1.091   .     S
C269   C270    1.557   1_655 S
C270   C271    1.557   .     S
C270   H300    1.094   .     S
C270   H301    1.093   .     S
C270   C269    1.557   1_455 S
C271   C272    1.453   .     S
C271   H302    1.094   .     S
C271   H303    1.091   .     S
C272   C273    1.338   1_455 D
C272   H304    0.995   1_455 S
C273   H305    0.990   .     S
C273   C272    1.338   1_655 D
C273   H306    0.992   1_655 S
C274   H307    1.090   .     S
C274   H308    1.088   .     S
C274   H309    1.089   .     S
C275   H310    1.090   .     S
C275   H311    1.091   .     S
C275   H312    1.091   .     S
C276   C277    1.410   .     D
C276   C281    1.409   .     S
C277   C278    1.407   .     S
C277   H313    1.022   .     S
C278   C279    1.417   .     D
C278   H314    1.022   .     S
C279   C280    1.417   .     S
C279   C282    1.418   .     S
C280   C281    1.405   .     D
C280   H315    1.020   .     S
C281   H316    1.022   .     S
C282   C283    1.416   .     D
C282   C287    1.417   .     S
C283   C284    1.407   .     S
C283   H317    1.022   .     S
C284   C285    1.415   .     D
C284   H318    1.024   .     S
C285   C286    1.414   .     S
C286   C287    1.406   .     D
C286   H319    1.024   .     S
C287   H320    1.023   .     S
H296   C268    1.093   1_455 S
H304   C272    0.995   1_655 S
H306   C273    0.992   1_455 S
C321   C322    1.415   .     S
C321   C323    1.417   .     S
C322   H333    1.024   .     S
C322   C401    1.415   .     D
C323   C324    1.416   .     D
C323   C328    1.416   .     S
C324   C325    1.406   .     S
C324   H334    1.024   .     S
C325   C326    1.414   .     D
C325   H337    1.021   .     S
C326   C327    1.410   .     S
C326   N329    1.357   .     S
C327   C328    1.408   .     D
C327   H338    1.024   .     S
C328   H335    1.024   .     S
N329   C330    1.354   .     D
C330   H336    1.023   .     S
C331   C252    1.423   1_655 D
C331   C332    1.426   1_545 S
C332   C411    1.423   .     D
C332   C331    1.426   1_565 S
C339   C340    1.412   .     D
C339   C344    1.412   .     S
C340   C341    1.409   .     S
C340   H368    1.019   .     S
C341   C342    1.416   .     D
C341   H369    1.020   .     S
C342   C343    1.415   .     S
C342   Si345   1.664   .     S
C343   C344    1.402   .     D
C343   H370    1.020   .     S
C344   H371    1.024   .     S
Si345  C346    1.726   .     S
Si345  C354    1.711   .     S
Si345  C355    1.712   .     S
C346   C347    1.553   .     S
C346   H372    1.093   .     S
C346   H373    1.091   .     S
C347   C348    1.556   .     S
C347   H374    1.093   .     S
C347   H375    1.094   .     S
C348   C349    1.552   .     S
C348   H376    1.093   .     S
C348   H377    1.094   .     S
C349   C350    1.557   .     S
C349   H378    1.093   .     S
C349   H379    1.091   .     S
C350   C351    1.557   .     S
C350   H380    1.094   .     S
C350   H381    1.093   .     S
C351   C352    1.453   .     S
C351   H382    1.094   .     S
C351   H383    1.091   .     S
C352   C353    1.338   .     D
C352   H384    0.995   .     S
C353   H385    0.990   .     S
C353   H386    0.992   .     S
C354   H387    1.090   .     S
C354   H388    1.088   .     S
C354   H389    1.089   .     S
C355   H390    1.090   .     S
C355   H391    1.091   .     S
C355   H392    1.091   .     S
C356   C357    1.410   .     S
C356   C361    1.409   .     D
C357   C358    1.407   .     D
C357   H393    1.022   .     S
C358   C359    1.417   .     S
C358   H394    1.022   .     S
C359   C360    1.417   .     D
C359   C362    1.418   .     S
C360   C361    1.405   .     S
C360   H395    1.020   .     S
C361   H396    1.022   .     S
C362   C363    1.416   .     S
C362   C367    1.417   .     D
C363   C364    1.407   .     D
C363   H397    1.022   .     S
C364   C365    1.415   .     S
C364   H398    1.024   .     S
C365   C366    1.414   .     D
C366   C367    1.406   .     S
C366   H399    1.024   .     S
C367   H400    1.023   .     S
C401   C402    1.415   .     S
C401   C403    1.417   .     S
C402   H413    1.024   .     S
C403   C404    1.416   .     S
C403   C408    1.416   .     D
C404   C405    1.406   .     D
C404   H414    1.024   .     S
C405   C406    1.414   .     S
C405   H417    1.021   .     S
C406   C407    1.410   .     D
C406   N409    1.357   .     S
C407   C408    1.408   .     S
C407   H418    1.024   .     S
C408   H415    1.024   .     S
N409   C410    1.354   .     D
C410   H416    1.023   .     S
C411   C412    1.426   1_655 S
C412   C251    1.423   1_565 D
C412   C411    1.426   1_455 S
C419   C420    1.412   .     D
C419   C424    1.412   .     S
C420   C421    1.409   .     S
C420   H448    1.019   .     S
C421   C422    1.416   .     D
C421   H449    1.020   .     S
C422   C423    1.415   .     S
C422   Si425   1.664   .     S
C423   C424    1.402   .     D
C423   H450    1.020   .     S
C424   H451    1.024   .     S
Si425  C426    1.726   .     S
Si425  C434    1.711   .     S
Si425  C435    1.712   .     S
C426   C427    1.553   .     S
C426   H452    1.093   .     S
C426   H453    1.091   .     S
C427   C428    1.556   .     S
C427   H454    1.093   .     S
C427   H455    1.094   .     S
C428   C429    1.552   .     S
C428   H457    1.094   .     S
C428   H456    1.093   1_545 S
C429   H458    1.093   .     S
C429   H459    1.091   .     S
C429   C430    1.557   1_545 S
C430   C431    1.557   .     S
C430   H460    1.094   .     S
C430   H461    1.093   .     S
C430   C429    1.557   1_565 S
C431   C432    1.453   .     S
C431   H462    1.094   .     S
C431   H463    1.091   .     S
C432   C433    1.338   1_565 D
C432   H464    0.995   1_565 S
C433   H465    0.990   .     S
C433   C432    1.338   1_545 D
C433   H466    0.992   1_545 S
C434   H467    1.090   .     S
C434   H468    1.088   .     S
C434   H469    1.089   .     S
C435   H470    1.090   .     S
C435   H471    1.091   .     S
C435   H472    1.091   .     S
C436   C437    1.410   .     D
C436   C441    1.409   .     S
C437   C438    1.407   .     S
C437   H473    1.022   .     S
C438   C439    1.417   .     D
C438   H474    1.022   .     S
C439   C440    1.417   .     S
C439   C442    1.418   .     S
C440   C441    1.405   .     D
C440   H475    1.020   .     S
C441   H476    1.022   .     S
C442   C443    1.416   .     S
C442   C447    1.417   .     D
C443   C444    1.407   .     D
C443   H477    1.022   .     S
C444   C445    1.415   .     S
C444   H478    1.024   .     S
C445   C446    1.414   .     D
C446   C447    1.406   .     S
C446   H479    1.024   .     S
C447   H480    1.023   .     S
H456   C428    1.093   1_565 S
H464   C432    0.995   1_545 S
H466   C433    0.992   1_565 S
