data_1140
_audit_creation_date              2023-09-08
_audit_creation_method            'Materials Studio'
_symmetry_space_group_name_H-M    'P1'
_symmetry_Int_Tables_number       1
_symmetry_cell_setting            triclinic
loop_
_symmetry_equiv_pos_as_xyz
  x,y,z
_cell_length_a                    26.4000
_cell_length_b                    39.0000
_cell_length_c                    19.0000
_cell_angle_alpha                 90.0000
_cell_angle_beta                  88.2000
_cell_angle_gamma                 90.0000
loop_
_atom_site_label
_atom_site_type_symbol
_atom_site_fract_x
_atom_site_fract_y
_atom_site_fract_z
_atom_site_U_iso_or_equiv
_atom_site_adp_type
_atom_site_occupancy
N11    N     0.30342   0.35493   0.14458   0.00000  Uiso   1.00
N22    N     0.15220   0.16716   0.15812   0.00000  Uiso   1.00
C33    C     0.33980   0.36165   0.10002   0.00000  Uiso   1.00
C44    C     0.36609   0.39336   0.10807   0.00000  Uiso   1.00
C55    C     0.40996   0.39957   0.06776   0.00000  Uiso   1.00
C66    C     0.43873   0.42823   0.08256   0.00000  Uiso   1.00
C77    C     0.42348   0.44989   0.13799   0.00000  Uiso   1.00
C88    C     0.37889   0.44408   0.17699   0.00000  Uiso   1.00
C99    C     0.35036   0.41563   0.16226   0.00000  Uiso   1.00
C1010  C     0.45178   0.48046   0.15106   0.00000  Uiso   1.00
C1111  C     0.11591   0.16044   0.20284   0.00000  Uiso   1.00
C1212  C     0.08981   0.12863   0.19514   0.00000  Uiso   1.00
C1313  C     0.04598   0.12239   0.23551   0.00000  Uiso   1.00
C1414  C     0.01740   0.09360   0.22101   0.00000  Uiso   1.00
C1515  C     0.03283   0.07185   0.16583   0.00000  Uiso   1.00
C1616  C     0.07740   0.07767   0.12682   0.00000  Uiso   1.00
C1717  C     0.10573   0.10625   0.14126   0.00000  Uiso   1.00
C1818  C     0.00456   0.04128   0.15269   0.00000  Uiso   1.00
Mo1919 Mo    0.15404   0.28705   0.04951   0.00000  Uiso   1.00
Mo2020 Mo    0.13432   0.29634   0.20307   0.00000  Uiso   1.00
Mo2121 Mo    0.24728   0.25180  -0.00211   0.00000  Uiso   1.00
O2222  O     0.12063   0.33231   0.26015   0.00000  Uiso   1.00
O2323  O     0.15815   0.25934   0.13743   0.00000  Uiso   1.00
O2424  O     0.08719   0.28135   0.03707   0.00000  Uiso   1.00
O2525  O     0.13861   0.32585   0.11645   0.00000  Uiso   1.00
O2626  O     0.15734   0.31503  -0.02597   0.00000  Uiso   1.00
O2727  O     0.06748   0.29056   0.19079   0.00000  Uiso   1.00
O2828  O     0.22764   0.28736   0.06903   0.00000  Uiso   1.00
O2929  O     0.17240   0.24724  -0.01276   0.00000  Uiso   1.00
O3030  O     0.25041   0.27981  -0.07746   0.00000  Uiso   1.00
O3131  O     0.26098   0.21582  -0.05911   0.00000  Uiso   1.00
O3232  O     0.24634   0.22588   0.08858   0.00000  Uiso   1.00
O3333  O     0.32158   0.25676   0.01521   0.00000  Uiso   1.00
C3434  C     0.13736   0.22678   0.14096   0.00000  Uiso   1.00
C3535  C     0.21851   0.19586   0.09652   0.00000  Uiso   1.00
C3636  C     0.17815   0.19934   0.15685   0.00000  Uiso   1.00
C3737  C     0.25357   0.31821   0.07256   0.00000  Uiso   1.00
Mo3838 Mo    0.30156   0.23503   0.25305   0.00000  Uiso   1.00
Mo3939 Mo    0.32126   0.22574   0.09949   0.00000  Uiso   1.00
Mo4040 Mo    0.20831   0.27028   0.30467   0.00000  Uiso   1.00
O4141  O     0.33495   0.18976   0.04242   0.00000  Uiso   1.00
O4242  O     0.29744   0.26274   0.16513   0.00000  Uiso   1.00
O4343  O     0.36840   0.24073   0.26547   0.00000  Uiso   1.00
O4444  O     0.31697   0.19623   0.18611   0.00000  Uiso   1.00
O4545  O     0.29825   0.20706   0.32853   0.00000  Uiso   1.00
O4646  O     0.38810   0.23151   0.11177   0.00000  Uiso   1.00
O4747  O     0.22796   0.23473   0.23353   0.00000  Uiso   1.00
O4848  O     0.28319   0.27484   0.31532   0.00000  Uiso   1.00
O4949  O     0.20518   0.24227   0.38002   0.00000  Uiso   1.00
O5050  O     0.19459   0.30626   0.36168   0.00000  Uiso   1.00
O5151  O     0.20925   0.29620   0.21398   0.00000  Uiso   1.00
O5252  O     0.13401   0.26531   0.28735   0.00000  Uiso   1.00
C5353  C     0.31822   0.29529   0.16161   0.00000  Uiso   1.00
C5454  C     0.23706   0.32622   0.20605   0.00000  Uiso   1.00
C5555  C     0.27744   0.32274   0.14574   0.00000  Uiso   1.00
C5656  C     0.20205   0.20389   0.23001   0.00000  Uiso   1.00
Co5757 Co    0.22779   0.26104   0.15128   0.00000  Uiso   1.00
N5858  N     0.65206   0.66736   0.14422   0.00000  Uiso   1.00
N5959  N     0.80324   0.85489   0.15864   0.00000  Uiso   1.00
C6060  C     0.61788   0.66053   0.09941   0.00000  Uiso   1.00
C6161  C     0.59149   0.62871   0.10731   0.00000  Uiso   1.00
C6262  C     0.54948   0.62231   0.06698   0.00000  Uiso   1.00
C6363  C     0.52033   0.59352   0.08172   0.00000  Uiso   1.00
C6464  C     0.53334   0.57193   0.13707   0.00000  Uiso   1.00
C6565  C     0.57613   0.57792   0.17606   0.00000  Uiso   1.00
C6666  C     0.60503   0.60649   0.16139   0.00000  Uiso   1.00
C6767  C     0.50457   0.54135   0.15045   0.00000  Uiso   1.00
C6868  C     0.83744   0.86169   0.20343   0.00000  Uiso   1.00
C6969  C     0.86407   0.89341   0.19538   0.00000  Uiso   1.00
C7070  C     0.90607   0.89971   0.23578   0.00000  Uiso   1.00
C7171  C     0.93551   0.92835   0.22090   0.00000  Uiso   1.00
C7272  C     0.92279   0.94989   0.16533   0.00000  Uiso   1.00
C7373  C     0.88003   0.94400   0.12622   0.00000  Uiso   1.00
C7474  C     0.85085   0.91556   0.14103   0.00000  Uiso   1.00
C7575  C     0.95169   0.98043   0.15215   0.00000  Uiso   1.00
Mo7676 Mo    0.80628   0.73484   0.05040   0.00000  Uiso   1.00
Mo7777 Mo    0.81837   0.72571   0.20411   0.00000  Uiso   1.00
Mo7878 Mo    0.71574   0.77021  -0.00207   0.00000  Uiso   1.00
O7979  O     0.82910   0.68978   0.26135   0.00000  Uiso   1.00
O8080  O     0.79795   0.76267   0.13821   0.00000  Uiso   1.00
O8181  O     0.87375   0.74038   0.03854   0.00000  Uiso   1.00
O8282  O     0.81822   0.69609   0.11753   0.00000  Uiso   1.00
O8383  O     0.80655   0.70676  -0.02503   0.00000  Uiso   1.00
O8484  O     0.88583   0.73133   0.19240   0.00000  Uiso   1.00
O8585  O     0.73173   0.73471   0.06928   0.00000  Uiso   1.00
O8686  O     0.79116   0.77460  -0.01209   0.00000  Uiso   1.00
O8787  O     0.71621   0.74211  -0.07738   0.00000  Uiso   1.00
O8888  O     0.70501   0.80615  -0.05925   0.00000  Uiso   1.00
O8989  O     0.71233   0.79624   0.08855   0.00000  Uiso   1.00
O9090  O     0.64059   0.76541   0.01461   0.00000  Uiso   1.00
C9191  C     0.81869   0.79520   0.14184   0.00000  Uiso   1.00
C9292  C     0.73987   0.82622   0.09666   0.00000  Uiso   1.00
C9393  C     0.77725   0.82274   0.15733   0.00000  Uiso   1.00
C9494  C     0.70549   0.70393   0.07263   0.00000  Uiso   1.00
Mo9595 Mo    0.64898   0.78741   0.25253   0.00000  Uiso   1.00
Mo9696 Mo    0.63688   0.79654   0.09881   0.00000  Uiso   1.00
Mo9797 Mo    0.73952   0.75204   0.30499   0.00000  Uiso   1.00
O9898  O     0.62616   0.83247   0.04157   0.00000  Uiso   1.00
O9999  O     0.65730   0.75958   0.16472   0.00000  Uiso   1.00
O100100 O     0.58151   0.78187   0.26440   0.00000  Uiso   1.00
O101101 O     0.63703   0.82616   0.18540   0.00000  Uiso   1.00
O102102 O     0.64871   0.81549   0.32796   0.00000  Uiso   1.00
O103103 O     0.56943   0.79092   0.11052   0.00000  Uiso   1.00
O104104 O     0.72354   0.78754   0.23365   0.00000  Uiso   1.00
O105105 O     0.66411   0.74765   0.31502   0.00000  Uiso   1.00
O106106 O     0.73905   0.78014   0.38030   0.00000  Uiso   1.00
O107107 O     0.75025   0.71610   0.36216   0.00000  Uiso   1.00
O108108 O     0.74293   0.72602   0.21437   0.00000  Uiso   1.00
O109109 O     0.81467   0.75683   0.28832   0.00000  Uiso   1.00
C110110 C     0.63656   0.72705   0.16107   0.00000  Uiso   1.00
C111111 C     0.71538   0.69604   0.20626   0.00000  Uiso   1.00
C112112 C     0.67801   0.69952   0.14557   0.00000  Uiso   1.00
C113113 C     0.74977   0.81833   0.23029   0.00000  Uiso   1.00
Co114114 Co    0.72763   0.76113   0.15146   0.00000  Uiso   1.00
N115115 N     0.65313   0.35500   0.15934   0.00000  Uiso   1.00
N116116 N     0.80405   0.16715   0.14354   0.00000  Uiso   1.00
C117117 C     0.61672   0.36155   0.20401   0.00000  Uiso   1.00
C118118 C     0.59041   0.39328   0.19670   0.00000  Uiso   1.00
C119119 C     0.54663   0.39933   0.23734   0.00000  Uiso   1.00
C120120 C     0.51784   0.42806   0.22330   0.00000  Uiso   1.00
C121121 C     0.53299   0.44994   0.16829   0.00000  Uiso   1.00
C122122 C     0.57749   0.44429   0.12895   0.00000  Uiso   1.00
C123123 C     0.60604   0.41577   0.14294   0.00000  Uiso   1.00
C124124 C     0.50456   0.48050   0.15575   0.00000  Uiso   1.00
C125125 C     0.84047   0.16059   0.09892   0.00000  Uiso   1.00
C126126 C     0.86661   0.12878   0.10617   0.00000  Uiso   1.00
C127127 C     0.91043   0.12266   0.06567   0.00000  Uiso   1.00
C128128 C     0.93900   0.09382   0.07967   0.00000  Uiso   1.00
C129129 C     0.92357   0.07190   0.13448   0.00000  Uiso   1.00
C130130 C     0.87902   0.07762   0.17365   0.00000  Uiso   1.00
C131131 C     0.85070   0.10625   0.15971   0.00000  Uiso   1.00
C132132 C     0.95185   0.04129   0.14715   0.00000  Uiso   1.00
Mo133133 Mo    0.80208   0.28670   0.25413   0.00000  Uiso   1.00
Mo134134 Mo    0.82230   0.29644   0.10082   0.00000  Uiso   1.00
Mo135135 Mo    0.70860   0.25139   0.30458   0.00000  Uiso   1.00
O136136 O     0.83627   0.33257   0.04441   0.00000  Uiso   1.00
O137137 O     0.79819   0.25927   0.16572   0.00000  Uiso   1.00
O138138 O     0.86886   0.28089   0.26690   0.00000  Uiso   1.00
O139139 O     0.81780   0.32569   0.18791   0.00000  Uiso   1.00
O140140 O     0.79858   0.31445   0.33005   0.00000  Uiso   1.00
O141141 O     0.88908   0.29056   0.11345   0.00000  Uiso   1.00
O142142 O     0.72856   0.28714   0.23413   0.00000  Uiso   1.00
O143143 O     0.78342   0.24672   0.31565   0.00000  Uiso   1.00
O144144 O     0.70528   0.27918   0.38037   0.00000  Uiso   1.00
O145145 O     0.69462   0.21526   0.36095   0.00000  Uiso   1.00
O146146 O     0.70978   0.22574   0.21348   0.00000  Uiso   1.00
O147147 O     0.63438   0.25648   0.28687   0.00000  Uiso   1.00
C148148 C     0.81891   0.22671   0.16180   0.00000  Uiso   1.00
C149149 C     0.73757   0.19571   0.20523   0.00000  Uiso   1.00
C150150 C     0.77814   0.19935   0.14519   0.00000  Uiso   1.00
C151151 C     0.70273   0.31802   0.23095   0.00000  Uiso   1.00
Mo152152 Mo    0.65514   0.23545   0.04878   0.00000  Uiso   1.00
Mo153153 Mo    0.63491   0.22571   0.20208   0.00000  Uiso   1.00
Mo154154 Mo    0.74861   0.27077  -0.00168   0.00000  Uiso   1.00
O155155 O     0.62094   0.18958   0.25849   0.00000  Uiso   1.00
O156156 O     0.65903   0.26289   0.13718   0.00000  Uiso   1.00
O157157 O     0.58835   0.24126   0.03602   0.00000  Uiso   1.00
O158158 O     0.63942   0.19646   0.11500   0.00000  Uiso   1.00
O159159 O     0.65863   0.20770  -0.02714   0.00000  Uiso   1.00
O160160 O     0.56813   0.23159   0.18946   0.00000  Uiso   1.00
O161161 O     0.72865   0.23502   0.06877   0.00000  Uiso   1.00
O162162 O     0.67379   0.27543  -0.01274   0.00000  Uiso   1.00
O163163 O     0.75194   0.24297  -0.07746   0.00000  Uiso   1.00
O164164 O     0.76259   0.30690  -0.05805   0.00000  Uiso   1.00
O165165 O     0.74743   0.29642   0.08942   0.00000  Uiso   1.00
O166166 O     0.82283   0.26568   0.01604   0.00000  Uiso   1.00
C167167 C     0.63830   0.29545   0.14110   0.00000  Uiso   1.00
C168168 C     0.71964   0.32645   0.09767   0.00000  Uiso   1.00
C169169 C     0.67907   0.32281   0.15771   0.00000  Uiso   1.00
C170170 C     0.75448   0.20414   0.07195   0.00000  Uiso   1.00
Co171171 Co    0.72861   0.26108   0.15145   0.00000  Uiso   1.00
N172172 N     0.30398   0.66728   0.15900   0.00000  Uiso   1.00
N173173 N     0.15313   0.85487   0.14279   0.00000  Uiso   1.00
C174174 C     0.33819   0.66071   0.20390   0.00000  Uiso   1.00
C175175 C     0.36463   0.62888   0.19672   0.00000  Uiso   1.00
C176176 C     0.40652   0.62273   0.23740   0.00000  Uiso   1.00
C177177 C     0.43569   0.59386   0.22348   0.00000  Uiso   1.00
C178178 C     0.42278   0.57193   0.16858   0.00000  Uiso   1.00
C179179 C     0.38012   0.57768   0.12920   0.00000  Uiso   1.00
C180180 C     0.35120   0.60634   0.14306   0.00000  Uiso   1.00
C181181 C     0.45163   0.54132   0.15594   0.00000  Uiso   1.00
C182182 C     0.11883   0.86147   0.09803   0.00000  Uiso   1.00
C183183 C     0.09220   0.89320   0.10564   0.00000  Uiso   1.00
C184184 C     0.05024   0.89934   0.06509   0.00000  Uiso   1.00
C185185 C     0.02083   0.92806   0.07947   0.00000  Uiso   1.00
C186186 C     0.03355   0.94984   0.13473   0.00000  Uiso   1.00
C187187 C     0.07626   0.94409   0.17402   0.00000  Uiso   1.00
C188188 C     0.10541   0.91558   0.15969   0.00000  Uiso   1.00
C189189 C     0.00466   0.98043   0.14749   0.00000  Uiso   1.00
Mo190190 Mo    0.15017   0.73526   0.25274   0.00000  Uiso   1.00
Mo191191 Mo    0.13755   0.72554   0.09925   0.00000  Uiso   1.00
Mo192192 Mo    0.24099   0.77075   0.30414   0.00000  Uiso   1.00
O193193 O     0.12652   0.68940   0.04257   0.00000  Uiso   1.00
O194194 O     0.15828   0.76274   0.16452   0.00000  Uiso   1.00
O195195 O     0.08275   0.74091   0.26495   0.00000  Uiso   1.00
O196196 O     0.13790   0.69626   0.18621   0.00000  Uiso   1.00
O197197 O     0.15007   0.70748   0.32853   0.00000  Uiso   1.00
O198198 O     0.07014   0.73127   0.11132   0.00000  Uiso   1.00
O199199 O     0.22466   0.73500   0.23338   0.00000  Uiso   1.00
O200200 O     0.16561   0.77526   0.31459   0.00000  Uiso   1.00
O201201 O     0.24071   0.74294   0.37980   0.00000  Uiso   1.00
O202202 O     0.25203   0.80690   0.36077   0.00000  Uiso   1.00
O203203 O     0.24417   0.79642   0.21316   0.00000  Uiso   1.00
O204204 O     0.31608   0.76582   0.28704   0.00000  Uiso   1.00
C205205 C     0.13762   0.79527   0.16056   0.00000  Uiso   1.00
C206206 C     0.21667   0.82640   0.20482   0.00000  Uiso   1.00
C207207 C     0.17908   0.82271   0.14444   0.00000  Uiso   1.00
C208208 C     0.25079   0.70418   0.23029   0.00000  Uiso   1.00
Mo209209 Mo    0.30696   0.78689   0.04892   0.00000  Uiso   1.00
Mo210210 Mo    0.31959   0.79661   0.20241   0.00000  Uiso   1.00
Mo211211 Mo    0.21615   0.75140  -0.00248   0.00000  Uiso   1.00
O212212 O     0.33063   0.83274   0.25910   0.00000  Uiso   1.00
O213213 O     0.29885   0.75941   0.13714   0.00000  Uiso   1.00
O214214 O     0.37439   0.78124   0.03670   0.00000  Uiso   1.00
O215215 O     0.31924   0.82588   0.11545   0.00000  Uiso   1.00
O216216 O     0.30707   0.81467  -0.02687   0.00000  Uiso   1.00
O217217 O     0.38700   0.79087   0.19034   0.00000  Uiso   1.00
O218218 O     0.23247   0.78716   0.06828   0.00000  Uiso   1.00
O219219 O     0.29152   0.74690  -0.01293   0.00000  Uiso   1.00
O220220 O     0.21643   0.77921  -0.07814   0.00000  Uiso   1.00
O221221 O     0.20512   0.71525  -0.05910   0.00000  Uiso   1.00
O222222 O     0.21298   0.72572   0.08850   0.00000  Uiso   1.00
O223223 O     0.14106   0.75633   0.01462   0.00000  Uiso   1.00
C224224 C     0.31952   0.72688   0.14111   0.00000  Uiso   1.00
C225225 C     0.24048   0.69575   0.09685   0.00000  Uiso   1.00
C226226 C     0.27806   0.69945   0.15725   0.00000  Uiso   1.00
C227227 C     0.20633   0.81799   0.07138   0.00000  Uiso   1.00
Co228228 Co    0.22857   0.76108   0.15083   0.00000  Uiso   1.00
C229229 C     0.42539   0.51087   0.15368   0.00000  Uiso   1.00
C230230 C     0.53088   0.51095   0.15294   0.00000  Uiso   1.00
C231231 C     0.03092   0.01085   0.15029   0.00000  Uiso   1.00
C232232 C     0.92546   0.01086   0.14943   0.00000  Uiso   1.00
N233233 N     0.29459   0.59938   0.63486   0.00000  Uiso   1.00
N234234 N     0.14337   0.41161   0.64837   0.00000  Uiso   1.00
C235235 C     0.33091   0.60610   0.59019   0.00000  Uiso   1.00
C236236 C     0.35699   0.63792   0.59791   0.00000  Uiso   1.00
C237237 C     0.40088   0.64415   0.55767   0.00000  Uiso   1.00
C238238 C     0.42941   0.67297   0.57219   0.00000  Uiso   1.00
C239239 C     0.41386   0.69475   0.62727   0.00000  Uiso   1.00
C240240 C     0.36923   0.68892   0.66615   0.00000  Uiso   1.00
C241241 C     0.34095   0.66032   0.65169   0.00000  Uiso   1.00
C242242 C     0.44207   0.72535   0.64043   0.00000  Uiso   1.00
C243243 C     0.10702   0.40489   0.69297   0.00000  Uiso   1.00
C244244 C     0.08070   0.37319   0.68493   0.00000  Uiso   1.00
C245245 C     0.03689   0.36697   0.72536   0.00000  Uiso   1.00
C246246 C     0.00807   0.33833   0.71057   0.00000  Uiso   1.00
C247247 C     0.02320   0.31671   0.65502   0.00000  Uiso   1.00
C248248 C     0.06774   0.32252   0.61590   0.00000  Uiso   1.00
C249249 C     0.09632   0.35095   0.63063   0.00000  Uiso   1.00
C250250 C    -0.00517   0.28617   0.64195   0.00000  Uiso   1.00
Mo251251 Mo    0.14524   0.53151   0.53992   0.00000  Uiso   1.00
Mo252252 Mo    0.12553   0.54080   0.69349   0.00000  Uiso   1.00
Mo253253 Mo    0.23848   0.49626   0.48829   0.00000  Uiso   1.00
O254254 O     0.11185   0.57678   0.75056   0.00000  Uiso   1.00
O255255 O     0.14935   0.50380   0.62784   0.00000  Uiso   1.00
O256256 O     0.07839   0.52582   0.52750   0.00000  Uiso   1.00
O257257 O     0.12982   0.57031   0.60687   0.00000  Uiso   1.00
O258258 O     0.14854   0.55949   0.46445   0.00000  Uiso   1.00
O259259 O     0.05869   0.53503   0.68120   0.00000  Uiso   1.00
O260260 O     0.21883   0.53181   0.55944   0.00000  Uiso   1.00
O261261 O     0.16360   0.49170   0.47765   0.00000  Uiso   1.00
O262262 O     0.24161   0.52428   0.41294   0.00000  Uiso   1.00
O263263 O     0.25219   0.46029   0.43127   0.00000  Uiso   1.00
O264264 O     0.23754   0.47034   0.57897   0.00000  Uiso   1.00
O265265 O     0.31278   0.50123   0.50561   0.00000  Uiso   1.00
C266266 C     0.12857   0.47124   0.63134   0.00000  Uiso   1.00
C267267 C     0.20973   0.44031   0.58690   0.00000  Uiso   1.00
C268268 C     0.16935   0.44379   0.64721   0.00000  Uiso   1.00
C269269 C     0.24475   0.56265   0.56296   0.00000  Uiso   1.00
Mo270270 Mo    0.29276   0.47948   0.74345   0.00000  Uiso   1.00
Mo271271 Mo    0.31247   0.47020   0.58988   0.00000  Uiso   1.00
Mo272272 Mo    0.19951   0.51473   0.79507   0.00000  Uiso   1.00
O273273 O     0.32616   0.43423   0.53280   0.00000  Uiso   1.00
O274274 O     0.28864   0.50720   0.65553   0.00000  Uiso   1.00
O275275 O     0.35960   0.48518   0.75588   0.00000  Uiso   1.00
O276276 O     0.30818   0.44069   0.67649   0.00000  Uiso   1.00
O277277 O     0.28945   0.45150   0.81892   0.00000  Uiso   1.00
O278278 O     0.37931   0.47598   0.60217   0.00000  Uiso   1.00
O279279 O     0.21916   0.47918   0.72393   0.00000  Uiso   1.00
O280280 O     0.27439   0.51929   0.80572   0.00000  Uiso   1.00
O281281 O     0.19638   0.48672   0.87042   0.00000  Uiso   1.00
O282282 O     0.18581   0.55071   0.85208   0.00000  Uiso   1.00
O283283 O     0.20046   0.54065   0.70439   0.00000  Uiso   1.00
O284284 O     0.12521   0.50978   0.77776   0.00000  Uiso   1.00
C285285 C     0.30943   0.53975   0.65200   0.00000  Uiso   1.00
C286286 C     0.22828   0.57068   0.69645   0.00000  Uiso   1.00
C287287 C     0.26865   0.56719   0.63612   0.00000  Uiso   1.00
C288288 C     0.19323   0.44833   0.72039   0.00000  Uiso   1.00
Co289289 Co    0.21899   0.50549   0.64168   0.00000  Uiso   1.00
N290290 N     0.64320   0.91186   0.63490   0.00000  Uiso   1.00
N291291 N     0.79438   1.09938   0.64929   0.00000  Uiso   1.00
C292292 C     0.60899   0.90505   0.59012   0.00000  Uiso   1.00
C293293 C     0.58235   0.87334   0.59815   0.00000  Uiso   1.00
C294294 C     0.54044   0.86700   0.55762   0.00000  Uiso   1.00
C295295 C     0.51104   0.83833   0.57238   0.00000  Uiso   1.00
C296296 C     0.52370   0.81680   0.62799   0.00000  Uiso   1.00
C297297 C     0.56637   0.82273   0.66726   0.00000  Uiso   1.00
C298298 C     0.59552   0.85119   0.65256   0.00000  Uiso   1.00
C299299 C     0.49483   0.78623   0.64108   0.00000  Uiso   1.00
C300300 C     0.82856   1.10622   0.69410   0.00000  Uiso   1.00
C301301 C     0.85495   1.13803   0.68617   0.00000  Uiso   1.00
C302302 C     0.89704   1.14440   0.72634   0.00000  Uiso   1.00
C303303 C     0.92623   1.17316   0.71148   0.00000  Uiso   1.00
C304304 C     0.91316   1.19475   0.65616   0.00000  Uiso   1.00
C305305 C     0.87028   1.18881   0.61734   0.00000  Uiso   1.00
C306306 C     0.84135   1.16026   0.63214   0.00000  Uiso   1.00
C307307 C     0.94195   1.22532   0.64267   0.00000  Uiso   1.00
Mo308308 Mo    0.79746   0.97933   0.54099   0.00000  Uiso   1.00
Mo309309 Mo    0.80956   0.97020   0.69471   0.00000  Uiso   1.00
Mo310310 Mo    0.70693   1.01469   0.48852   0.00000  Uiso   1.00
O311311 O     0.82029   0.93428   0.75196   0.00000  Uiso   1.00
O312312 O     0.78914   1.00717   0.62880   0.00000  Uiso   1.00
O313313 O     0.86494   0.98487   0.52912   0.00000  Uiso   1.00
O314314 O     0.80942   0.94058   0.60813   0.00000  Uiso   1.00
O315315 O     0.79774   0.95125   0.46556   0.00000  Uiso   1.00
O316316 O     0.87702   0.97582   0.68299   0.00000  Uiso   1.00
O317317 O     0.72291   0.97919   0.55987   0.00000  Uiso   1.00
O318318 O     0.78234   1.01909   0.47849   0.00000  Uiso   1.00
O319319 O     0.70739   0.98659   0.41321   0.00000  Uiso   1.00
O320320 O     0.69620   1.05063   0.43135   0.00000  Uiso   1.00
O321321 O     0.70352   1.04072   0.57914   0.00000  Uiso   1.00
O322322 O     0.63178   1.00990   0.50520   0.00000  Uiso   1.00
C323323 C     0.80989   1.03969   0.63245   0.00000  Uiso   1.00
C324324 C     0.73106   1.07070   0.58726   0.00000  Uiso   1.00
C325325 C     0.76844   1.06722   0.64794   0.00000  Uiso   1.00
C326326 C     0.69667   0.94841   0.56324   0.00000  Uiso   1.00
Mo327327 Mo    0.64017   1.03191   0.74312   0.00000  Uiso   1.00
Mo328328 Mo    0.62808   1.04103   0.58940   0.00000  Uiso   1.00
Mo329329 Mo    0.73070   0.99653   0.79559   0.00000  Uiso   1.00
O330330 O     0.61736   1.07696   0.53215   0.00000  Uiso   1.00
O331331 O     0.64849   1.00407   0.65531   0.00000  Uiso   1.00
O332332 O     0.57270   1.02637   0.75497   0.00000  Uiso   1.00
O333333 O     0.62823   1.07065   0.67598   0.00000  Uiso   1.00
O334334 O     0.63990   1.05998   0.81854   0.00000  Uiso   1.00
O335335 O     0.56062   1.03542   0.60111   0.00000  Uiso   1.00
O336336 O     0.71472   1.03203   0.72424   0.00000  Uiso   1.00
O337337 O     0.65529   0.99214   0.80561   0.00000  Uiso   1.00
O338338 O     0.73024   1.02464   0.87089   0.00000  Uiso   1.00
O339339 O     0.74144   0.96060   0.85277   0.00000  Uiso   1.00
O340340 O     0.73412   0.97051   0.70497   0.00000  Uiso   1.00
O341341 O     0.80586   1.00133   0.77891   0.00000  Uiso   1.00
C342342 C     0.62775   0.97154   0.65168   0.00000  Uiso   1.00
C343343 C     0.70658   0.94052   0.69687   0.00000  Uiso   1.00
C344344 C     0.66919   0.94400   0.63620   0.00000  Uiso   1.00
C345345 C     0.74095   1.06281   0.72089   0.00000  Uiso   1.00
Co346346 Co    0.71882   1.00561   0.64205   0.00000  Uiso   1.00
N347347 N     0.64251   0.59952   0.65018   0.00000  Uiso   1.00
N348348 N     0.79342   0.41167   0.63436   0.00000  Uiso   1.00
C349349 C     0.60610   0.60611   0.69482   0.00000  Uiso   1.00
C350350 C     0.58001   0.63793   0.68757   0.00000  Uiso   1.00
C351351 C     0.53609   0.64403   0.72786   0.00000  Uiso   1.00
C352352 C     0.50752   0.67285   0.71375   0.00000  Uiso   1.00
C353353 C     0.52306   0.69480   0.65903   0.00000  Uiso   1.00
C354354 C     0.56773   0.68911   0.62010   0.00000  Uiso   1.00
C355355 C     0.59604   0.66049   0.63415   0.00000  Uiso   1.00
C356356 C     0.49476   0.72538   0.64619   0.00000  Uiso   1.00
C357357 C     0.82984   0.40515   0.58969   0.00000  Uiso   1.00
C358358 C     0.85620   0.37344   0.59698   0.00000  Uiso   1.00
C359359 C     0.89987   0.36736   0.55614   0.00000  Uiso   1.00
C360360 C     0.92867   0.33862   0.57004   0.00000  Uiso   1.00
C361361 C     0.91364   0.31675   0.62513   0.00000  Uiso   1.00
C362362 C     0.86926   0.32243   0.66471   0.00000  Uiso   1.00
C363363 C     0.84070   0.35097   0.65086   0.00000  Uiso   1.00
C364364 C     0.94205   0.28616   0.63748   0.00000  Uiso   1.00
Mo365365 Mo    0.79140   0.53121   0.74492   0.00000  Uiso   1.00
Mo366366 Mo    0.81163   0.54096   0.59161   0.00000  Uiso   1.00
Mo367367 Mo    0.69792   0.49590   0.79538   0.00000  Uiso   1.00
O368368 O     0.82559   0.57709   0.53520   0.00000  Uiso   1.00
O369369 O     0.78750   0.50378   0.65651   0.00000  Uiso   1.00
O370370 O     0.85818   0.52541   0.75767   0.00000  Uiso   1.00
O371371 O     0.80711   0.57021   0.67870   0.00000  Uiso   1.00
O372372 O     0.78790   0.55896   0.82083   0.00000  Uiso   1.00
O373373 O     0.87840   0.53508   0.60424   0.00000  Uiso   1.00
O374374 O     0.71788   0.53164   0.72493   0.00000  Uiso   1.00
O375375 O     0.77274   0.49124   0.80644   0.00000  Uiso   1.00
O376376 O     0.69460   0.52369   0.87116   0.00000  Uiso   1.00
O377377 O     0.68394   0.45977   0.85174   0.00000  Uiso   1.00
O378378 O     0.69910   0.47025   0.70427   0.00000  Uiso   1.00
O379379 O     0.62371   0.50099   0.77766   0.00000  Uiso   1.00
C380380 C     0.80823   0.47123   0.65260   0.00000  Uiso   1.00
C381381 C     0.72689   0.44022   0.69602   0.00000  Uiso   1.00
C382382 C     0.76747   0.44386   0.63598   0.00000  Uiso   1.00
C383383 C     0.69206   0.56252   0.72175   0.00000  Uiso   1.00
Mo384384 Mo    0.64445   0.47997   0.53956   0.00000  Uiso   1.00
Mo385385 Mo    0.62423   0.47023   0.69287   0.00000  Uiso   1.00
Mo386386 Mo    0.73793   0.51528   0.48911   0.00000  Uiso   1.00
O387387 O     0.61026   0.43410   0.74928   0.00000  Uiso   1.00
O388388 O     0.64834   0.50741   0.62797   0.00000  Uiso   1.00
O389389 O     0.57767   0.48578   0.52679   0.00000  Uiso   1.00
O390390 O     0.62873   0.44098   0.60579   0.00000  Uiso   1.00
O391391 O     0.64794   0.45223   0.46364   0.00000  Uiso   1.00
O392392 O     0.55745   0.47612   0.68025   0.00000  Uiso   1.00
O393393 O     0.71797   0.47953   0.55956   0.00000  Uiso   1.00
O394394 O     0.66311   0.51995   0.47805   0.00000  Uiso   1.00
O395395 O     0.74125   0.48750   0.41333   0.00000  Uiso   1.00
O396396 O     0.75191   0.55142   0.43275   0.00000  Uiso   1.00
O397397 O     0.73675   0.54093   0.58022   0.00000  Uiso   1.00
O398398 O     0.81215   0.51019   0.50683   0.00000  Uiso   1.00
C399399 C     0.62762   0.53997   0.63191   0.00000  Uiso   1.00
C400400 C     0.70896   0.57096   0.58848   0.00000  Uiso   1.00
C401401 C     0.66840   0.56732   0.64852   0.00000  Uiso   1.00
C402402 C     0.74380   0.44865   0.56275   0.00000  Uiso   1.00
Co403403 Co    0.71792   0.50559   0.64224   0.00000  Uiso   1.00
N404404 N     0.29332   0.91174   0.65000   0.00000  Uiso   1.00
N405405 N     0.14248   1.09933   0.63376   0.00000  Uiso   1.00
C406406 C     0.32759   0.90514   0.69479   0.00000  Uiso   1.00
C407407 C     0.35423   0.87340   0.68722   0.00000  Uiso   1.00
C408408 C     0.39614   0.86726   0.72787   0.00000  Uiso   1.00
C409409 C     0.42556   0.83855   0.71355   0.00000  Uiso   1.00
C410410 C     0.41291   0.81677   0.65826   0.00000  Uiso   1.00
C411411 C     0.37024   0.82252   0.61888   0.00000  Uiso   1.00
C412412 C     0.34107   0.85103   0.63314   0.00000  Uiso   1.00
C413413 C     0.44185   0.78620   0.64553   0.00000  Uiso   1.00
C414414 C     0.10824   1.10589   0.58890   0.00000  Uiso   1.00
C415415 C     0.08180   1.13772   0.59609   0.00000  Uiso   1.00
C416416 C     0.03987   1.14386   0.55550   0.00000  Uiso   1.00
C417417 C     0.01071   1.17274   0.56946   0.00000  Uiso   1.00
C418418 C     0.02369   1.19468   0.62431   0.00000  Uiso   1.00
C419419 C     0.06639   1.18893   0.66361   0.00000  Uiso   1.00
C420420 C     0.09528   1.16027   0.64971   0.00000  Uiso   1.00
C421421 C    -0.00511   1.22531   0.63697   0.00000  Uiso   1.00
Mo422422 Mo    0.13950   0.97973   0.74388   0.00000  Uiso   1.00
Mo423423 Mo    0.12687   0.97001   0.59038   0.00000  Uiso   1.00
Mo424424 Mo    0.23031   1.01522   0.79526   0.00000  Uiso   1.00
O425425 O     0.11583   0.93387   0.53370   0.00000  Uiso   1.00
O426426 O     0.14761   1.00721   0.65565   0.00000  Uiso   1.00
O427427 O     0.07208   0.98538   0.75610   0.00000  Uiso   1.00
O428428 O     0.12722   0.94073   0.67735   0.00000  Uiso   1.00
O429429 O     0.13940   0.95195   0.81967   0.00000  Uiso   1.00
O430430 O     0.05946   0.97575   0.60246   0.00000  Uiso   1.00
O431431 O     0.21399   0.97945   0.72451   0.00000  Uiso   1.00
O432432 O     0.15494   1.01972   0.80572   0.00000  Uiso   1.00
O433433 O     0.23004   0.98741   0.87093   0.00000  Uiso   1.00
O434434 O     0.24135   1.05137   0.85188   0.00000  Uiso   1.00
O435435 O     0.23349   1.04089   0.70428   0.00000  Uiso   1.00
O436436 O     0.30541   1.01029   0.77817   0.00000  Uiso   1.00
C437437 C     0.12694   1.03973   0.65168   0.00000  Uiso   1.00
C438438 C     0.20598   1.07087   0.69592   0.00000  Uiso   1.00
C439439 C     0.16840   1.06717   0.63553   0.00000  Uiso   1.00
C440440 C     0.24013   0.94863   0.72141   0.00000  Uiso   1.00
Mo441441 Mo    0.29629   1.03135   0.54004   0.00000  Uiso   1.00
Mo442442 Mo    0.30892   1.04108   0.69353   0.00000  Uiso   1.00
Mo443443 Mo    0.20547   0.99586   0.48865   0.00000  Uiso   1.00
O444444 O     0.31995   1.07722   0.75021   0.00000  Uiso   1.00
O445445 O     0.28818   1.00387   0.62827   0.00000  Uiso   1.00
O446446 O     0.36372   1.02570   0.52783   0.00000  Uiso   1.00
O447447 O     0.30856   1.07035   0.60656   0.00000  Uiso   1.00
O448448 O     0.29639   1.05912   0.46425   0.00000  Uiso   1.00
O449449 O     0.37632   1.03534   0.68146   0.00000  Uiso   1.00
O450450 O     0.22180   1.03162   0.55941   0.00000  Uiso   1.00
O451451 O     0.28085   0.99135   0.47820   0.00000  Uiso   1.00
O452452 O     0.20575   1.02367   0.41299   0.00000  Uiso   1.00
O453453 O     0.19443   0.95971   0.43203   0.00000  Uiso   1.00
O454454 O     0.20229   0.97019   0.57963   0.00000  Uiso   1.00
O455455 O     0.13038   1.00080   0.50575   0.00000  Uiso   1.00
C456456 C     0.30884   0.97134   0.63223   0.00000  Uiso   1.00
C457457 C     0.22979   0.94021   0.58798   0.00000  Uiso   1.00
C458458 C     0.26738   0.94390   0.64835   0.00000  Uiso   1.00
C459459 C     0.19567   1.06244   0.56249   0.00000  Uiso   1.00
Co460460 Co    0.21789   1.00554   0.64196   0.00000  Uiso   1.00
C461461 C     0.41565   0.75576   0.64267   0.00000  Uiso   1.00
C462462 C     0.52110   0.75583   0.64395   0.00000  Uiso   1.00
C463463 C     0.02118   1.25574   0.63918   0.00000  Uiso   1.00
C464464 C     0.91568   1.25573   0.64033   0.00000  Uiso   1.00
H465465 H     0.34993   0.34260   0.05626   0.00000  Uiso   1.00
H466466 H     0.42168   0.38122   0.02345   0.00000  Uiso   1.00
H467467 H     0.47455   0.43404   0.04966   0.00000  Uiso   1.00
H468468 H     0.36652   0.46278   0.22036   0.00000  Uiso   1.00
H469469 H     0.31394   0.41015   0.19409   0.00000  Uiso   1.00
H470470 H     0.10573   0.17955   0.24644   0.00000  Uiso   1.00
H471471 H     0.03414   0.14082   0.27963   0.00000  Uiso   1.00
H472472 H    -0.01840   0.08778   0.25394   0.00000  Uiso   1.00
H473473 H     0.08991   0.05889   0.08368   0.00000  Uiso   1.00
H474474 H     0.14215   0.11175   0.10943   0.00000  Uiso   1.00
H475475 H     0.11960   0.22048   0.08858   0.00000  Uiso   1.00
H476476 H     0.10679   0.22592   0.18464   0.00000  Uiso   1.00
H477477 H     0.24521   0.17385   0.10889   0.00000  Uiso   1.00
H478478 H     0.19856   0.18998   0.04554   0.00000  Uiso   1.00
H479479 H     0.22616   0.34022   0.06332   0.00000  Uiso   1.00
H480480 H     0.28509   0.31877   0.03019   0.00000  Uiso   1.00
H481481 H     0.34905   0.29592   0.11827   0.00000  Uiso   1.00
H482482 H     0.33568   0.30185   0.21408   0.00000  Uiso   1.00
H483483 H     0.25667   0.33211   0.25729   0.00000  Uiso   1.00
H484484 H     0.21054   0.34826   0.19323   0.00000  Uiso   1.00
H485485 H     0.22946   0.18188   0.23923   0.00000  Uiso   1.00
H486486 H     0.17086   0.20357   0.27287   0.00000  Uiso   1.00
H487487 H     0.60973   0.67954   0.05566   0.00000  Uiso   1.00
H488488 H     0.53957   0.64061   0.02272   0.00000  Uiso   1.00
H489489 H     0.48601   0.58757   0.04885   0.00000  Uiso   1.00
H490490 H     0.58673   0.55927   0.21937   0.00000  Uiso   1.00
H491491 H     0.63999   0.61211   0.19320   0.00000  Uiso   1.00
H492492 H     0.84544   0.84272   0.24733   0.00000  Uiso   1.00
H493493 H     0.91575   0.88146   0.28022   0.00000  Uiso   1.00
H494494 H     0.96981   0.93423   0.25385   0.00000  Uiso   1.00
H495495 H     0.86968   0.96260   0.08271   0.00000  Uiso   1.00
H496496 H     0.81591   0.91001   0.10912   0.00000  Uiso   1.00
H497497 H     0.83906   0.80140   0.08961   0.00000  Uiso   1.00
H498498 H     0.84712   0.79606   0.18576   0.00000  Uiso   1.00
H499499 H     0.71266   0.84829   0.10875   0.00000  Uiso   1.00
H500500 H     0.76234   0.83199   0.04584   0.00000  Uiso   1.00
H501501 H     0.73324   0.68185   0.06364   0.00000  Uiso   1.00
H502502 H     0.67605   0.70339   0.03000   0.00000  Uiso   1.00
H503503 H     0.60787   0.72643   0.11746   0.00000  Uiso   1.00
H504504 H     0.61649   0.72058   0.21338   0.00000  Uiso   1.00
H505505 H     0.69321   0.69026   0.25732   0.00000  Uiso   1.00
H506506 H     0.74243   0.67393   0.19373   0.00000  Uiso   1.00
H507507 H     0.72203   0.84041   0.23927   0.00000  Uiso   1.00
H508508 H     0.77887   0.81863   0.27338   0.00000  Uiso   1.00
H509509 H     0.60655   0.34232   0.24735   0.00000  Uiso   1.00
H510510 H     0.53500   0.38080   0.28131   0.00000  Uiso   1.00
H511511 H     0.48209   0.43371   0.25647   0.00000  Uiso   1.00
H512512 H     0.58977   0.46317   0.08592   0.00000  Uiso   1.00
H513513 H     0.64239   0.41042   0.11084   0.00000  Uiso   1.00
H514514 H     0.85078   0.17985   0.05569   0.00000  Uiso   1.00
H515515 H     0.92227   0.14121   0.02185   0.00000  Uiso   1.00
H516516 H     0.97479   0.08810   0.04663   0.00000  Uiso   1.00
H517517 H     0.86652   0.05872   0.21651   0.00000  Uiso   1.00
H518518 H     0.81431   0.11166   0.19167   0.00000  Uiso   1.00
H519519 H     0.83648   0.22023   0.21421   0.00000  Uiso   1.00
H520520 H     0.84963   0.22596   0.11831   0.00000  Uiso   1.00
H521521 H     0.71087   0.17376   0.19234   0.00000  Uiso   1.00
H522522 H     0.75734   0.18967   0.25625   0.00000  Uiso   1.00
H523523 H     0.73016   0.33997   0.24069   0.00000  Uiso   1.00
H524524 H     0.67109   0.31848   0.27315   0.00000  Uiso   1.00
H525525 H     0.60733   0.29596   0.18426   0.00000  Uiso   1.00
H526526 H     0.62104   0.30219   0.08862   0.00000  Uiso   1.00
H527527 H     0.70019   0.33250   0.04640   0.00000  Uiso   1.00
H528528 H     0.74616   0.34843   0.11099   0.00000  Uiso   1.00
H529529 H     0.72705   0.18218   0.06221   0.00000  Uiso   1.00
H530530 H     0.78580   0.20393   0.02927   0.00000  Uiso   1.00
H531531 H     0.34639   0.67997   0.24726   0.00000  Uiso   1.00
H532532 H     0.41633   0.64130   0.28131   0.00000  Uiso   1.00
H533533 H     0.46991   0.58813   0.25666   0.00000  Uiso   1.00
H534534 H     0.36962   0.55878   0.08624   0.00000  Uiso   1.00
H535535 H     0.31634   0.61177   0.11094   0.00000  Uiso   1.00
H536536 H     0.11072   0.84230   0.05447   0.00000  Uiso   1.00
H537537 H     0.04055   0.88090   0.02091   0.00000  Uiso   1.00
H538538 H    -0.01344   0.93380   0.04639   0.00000  Uiso   1.00
H539539 H     0.08661   0.96286   0.21729   0.00000  Uiso   1.00
H540540 H     0.14030   0.91015   0.19176   0.00000  Uiso   1.00
H541541 H     0.11744   0.80169   0.21284   0.00000  Uiso   1.00
H542542 H     0.10904   0.79597   0.11682   0.00000  Uiso   1.00
H543543 H     0.24391   0.84840   0.19226   0.00000  Uiso   1.00
H544544 H     0.19437   0.83239   0.25569   0.00000  Uiso   1.00
H545545 H     0.22300   0.68216   0.23973   0.00000  Uiso   1.00
H546546 H     0.28036   0.70378   0.27274   0.00000  Uiso   1.00
H547547 H     0.34836   0.72642   0.18453   0.00000  Uiso   1.00
H548548 H     0.33940   0.72019   0.08877   0.00000  Uiso   1.00
H549549 H     0.26248   0.68975   0.04574   0.00000  Uiso   1.00
H550550 H     0.21341   0.67371   0.10983   0.00000  Uiso   1.00
H551551 H     0.23411   0.84001   0.06193   0.00000  Uiso   1.00
H552552 H     0.17710   0.81814   0.02846   0.00000  Uiso   1.00
H553553 H     0.38220   0.51068   0.15395   0.00000  Uiso   1.00
H554554 H     0.57407   0.51115   0.15266   0.00000  Uiso   1.00
H555555 H     0.07409   0.01102   0.15064   0.00000  Uiso   1.00
H556556 H     0.88229   0.01102   0.14907   0.00000  Uiso   1.00
H557557 H     0.34115   0.58698   0.54663   0.00000  Uiso   1.00
H558558 H     0.41281   0.62571   0.51363   0.00000  Uiso   1.00
H559559 H     0.46526   0.67879   0.53937   0.00000  Uiso   1.00
H560560 H     0.35662   0.70772   0.70920   0.00000  Uiso   1.00
H561561 H     0.30449   0.65483   0.68341   0.00000  Uiso   1.00
H562562 H     0.09694   0.42392   0.73677   0.00000  Uiso   1.00
H563563 H     0.02526   0.38529   0.76976   0.00000  Uiso   1.00
H564564 H    -0.02771   0.33252   0.74356   0.00000  Uiso   1.00
H565565 H     0.08001   0.30385   0.57243   0.00000  Uiso   1.00
H566566 H     0.13269   0.35644   0.59870   0.00000  Uiso   1.00
H567567 H     0.11080   0.46495   0.57896   0.00000  Uiso   1.00
H568568 H     0.09800   0.47037   0.67502   0.00000  Uiso   1.00
H569569 H     0.23643   0.41831   0.59927   0.00000  Uiso   1.00
H570570 H     0.18979   0.43444   0.53590   0.00000  Uiso   1.00
H571571 H     0.21735   0.58466   0.55373   0.00000  Uiso   1.00
H572572 H     0.27627   0.56321   0.52057   0.00000  Uiso   1.00
H573573 H     0.34025   0.54037   0.60865   0.00000  Uiso   1.00
H574574 H     0.32689   0.54631   0.70446   0.00000  Uiso   1.00
H575575 H     0.24791   0.57656   0.74768   0.00000  Uiso   1.00
H576576 H     0.20177   0.59272   0.68365   0.00000  Uiso   1.00
H577577 H     0.22063   0.42631   0.72962   0.00000  Uiso   1.00
H578578 H     0.16203   0.44800   0.76324   0.00000  Uiso   1.00
H579579 H     0.60098   0.92403   0.54623   0.00000  Uiso   1.00
H580580 H     0.53080   0.88525   0.51314   0.00000  Uiso   1.00
H581581 H     0.47680   0.83243   0.53932   0.00000  Uiso   1.00
H582582 H     0.57668   0.80415   0.71082   0.00000  Uiso   1.00
H583583 H     0.63039   0.85678   0.68460   0.00000  Uiso   1.00
H584584 H     0.83670   1.08721   0.73787   0.00000  Uiso   1.00
H585585 H     0.90700   1.12611   0.77059   0.00000  Uiso   1.00
H586586 H     0.96062   1.17910   0.74423   0.00000  Uiso   1.00
H587587 H     0.85963   1.20746   0.57407   0.00000  Uiso   1.00
H588588 H     0.80631   1.15467   0.60047   0.00000  Uiso   1.00
H589589 H     0.83025   1.04590   0.58022   0.00000  Uiso   1.00
H590590 H     0.83831   1.04055   0.67638   0.00000  Uiso   1.00
H591591 H     0.70386   1.09278   0.59934   0.00000  Uiso   1.00
H592592 H     0.75355   1.07647   0.53644   0.00000  Uiso   1.00
H593593 H     0.72441   0.92632   0.55426   0.00000  Uiso   1.00
H594594 H     0.66722   0.94787   0.52062   0.00000  Uiso   1.00
H595595 H     0.59906   0.97092   0.60808   0.00000  Uiso   1.00
H596596 H     0.60769   0.96509   0.70400   0.00000  Uiso   1.00
H597597 H     0.68441   0.93474   0.74794   0.00000  Uiso   1.00
H598598 H     0.73363   0.91841   0.68434   0.00000  Uiso   1.00
H599599 H     0.71321   1.08489   0.72987   0.00000  Uiso   1.00
H600600 H     0.77005   1.06311   0.76398   0.00000  Uiso   1.00
H601601 H     0.59577   0.58685   0.73804   0.00000  Uiso   1.00
H602602 H     0.52415   0.62545   0.77162   0.00000  Uiso   1.00
H603603 H     0.47165   0.67855   0.74663   0.00000  Uiso   1.00
H604604 H     0.58033   0.70804   0.57734   0.00000  Uiso   1.00
H605605 H     0.63253   0.65512   0.60238   0.00000  Uiso   1.00
H606606 H     0.83999   0.42438   0.54635   0.00000  Uiso   1.00
H607607 H     0.91141   0.38588   0.51210   0.00000  Uiso   1.00
H608608 H     0.96434   0.33295   0.53670   0.00000  Uiso   1.00
H609609 H     0.85709   0.30358   0.70783   0.00000  Uiso   1.00
H610610 H     0.80445   0.35635   0.68315   0.00000  Uiso   1.00
H611611 H     0.82579   0.46475   0.70501   0.00000  Uiso   1.00
H612612 H     0.83895   0.47048   0.60911   0.00000  Uiso   1.00
H613613 H     0.70019   0.41827   0.68313   0.00000  Uiso   1.00
H614614 H     0.74666   0.43418   0.74704   0.00000  Uiso   1.00
H615615 H     0.71949   0.58448   0.73150   0.00000  Uiso   1.00
H616616 H     0.66041   0.56298   0.76396   0.00000  Uiso   1.00
H617617 H     0.59666   0.54048   0.67507   0.00000  Uiso   1.00
H618618 H     0.61036   0.54671   0.57944   0.00000  Uiso   1.00
H619619 H     0.68951   0.57701   0.53722   0.00000  Uiso   1.00
H620620 H     0.73548   0.59294   0.60179   0.00000  Uiso   1.00
H621621 H     0.71637   0.42670   0.55301   0.00000  Uiso   1.00
H622622 H     0.77511   0.44844   0.52006   0.00000  Uiso   1.00
H623623 H     0.33568   0.92430   0.73837   0.00000  Uiso   1.00
H624624 H     0.40576   0.88570   0.77208   0.00000  Uiso   1.00
H625625 H     0.45979   0.83281   0.74671   0.00000  Uiso   1.00
H626626 H     0.35994   0.80374   0.57558   0.00000  Uiso   1.00
H627627 H     0.30622   0.85645   0.60101   0.00000  Uiso   1.00
H628628 H     0.10003   1.08663   0.54555   0.00000  Uiso   1.00
H629629 H     0.03000   1.12529   0.51163   0.00000  Uiso   1.00
H630630 H    -0.02355   1.17847   0.53635   0.00000  Uiso   1.00
H631631 H     0.07694   1.20784   0.70653   0.00000  Uiso   1.00
H632632 H     0.13018   1.15484   0.68176   0.00000  Uiso   1.00
H633633 H     0.10677   1.04616   0.70395   0.00000  Uiso   1.00
H634634 H     0.09836   1.04043   0.60794   0.00000  Uiso   1.00
H635635 H     0.23322   1.09287   0.68337   0.00000  Uiso   1.00
H636636 H     0.18368   1.07686   0.74678   0.00000  Uiso   1.00
H637637 H     0.21234   0.92661   0.73086   0.00000  Uiso   1.00
H638638 H     0.26972   0.94823   0.76385   0.00000  Uiso   1.00
H639639 H     0.33768   0.97088   0.67565   0.00000  Uiso   1.00
H640640 H     0.32872   0.96466   0.57988   0.00000  Uiso   1.00
H641641 H     0.25177   0.93421   0.53686   0.00000  Uiso   1.00
H642642 H     0.20271   0.91817   0.60097   0.00000  Uiso   1.00
H643643 H     0.22346   1.08445   0.55304   0.00000  Uiso   1.00
H644644 H     0.16645   1.06258   0.51955   0.00000  Uiso   1.00
H645645 H     0.37249   0.75556   0.64214   0.00000  Uiso   1.00
H646646 H     0.56427   0.75603   0.64446   0.00000  Uiso   1.00
H647647 H     0.06437   1.25557   0.63869   0.00000  Uiso   1.00
H648648 H     0.87249   1.25556   0.64077   0.00000  Uiso   1.00
loop_
_geom_bond_atom_site_label_1
_geom_bond_atom_site_label_2
_geom_bond_distance
_geom_bond_site_symmetry_2
_ccdc_geom_bond_type
N11    C33     1.287   .     D
N11    C5555   1.430   .     S
N22    C1111   1.287   .     D
N22    C3636   1.430   .     S
C33    C44     1.429   .     S
C33    H465465  1.141   .     S
C44    C55     1.390   .     D
C44    C99     1.400   .     S
C55    C66     1.385   .     S
C55    H466466  1.140   .     S
C66    C77     1.399   .     D
C66    H467467  1.140   .     S
C77    C88     1.390   .     S
C77    C1010   1.433   .     S
C88    C99     1.375   .     D
C88    H468468  1.140   .     S
C99    H469469  1.140   .     S
C1010  C124124  1.399   .     S
C1010  C229229  1.376   .     D
C1111  C1212   1.429   .     S
C1111  H470470  1.140   .     S
C1212  C1313   1.390   .     D
C1212  C1717   1.400   .     S
C1313  C1414   1.385   .     S
C1313  H471471  1.140   .     S
C1414  C1515   1.399   .     D
C1414  H472472  1.140   .     S
C1515  C1616   1.389   .     S
C1515  C1818   1.433   .     S
C1616  C1717   1.375   .     D
C1616  H473473  1.140   .     S
C1717  H474474  1.140   .     S
C1818  C231231  1.376   .     S
C1818  C132132  1.399   1_455 D
Mo1919 Mo2020  2.970   .     S
Mo1919 Mo2121  2.960   .     S
Mo1919 O2323   1.995   .     S
Mo1919 O2424   1.802   .     S
Mo1919 O2525   2.010   .     S
Mo1919 O2626   1.802   .     S
Mo1919 O2828   1.990   .     S
Mo1919 O2929   2.002   .     S
Mo2020 O2222   1.803   .     S
Mo2020 O2323   1.996   .     S
Mo2020 O2525   2.009   .     S
Mo2020 O2727   1.801   .     S
Mo2020 Mo4040  2.968   .     S
Mo2020 O5151   1.995   .     S
Mo2020 O5252   2.007   .     S
Mo2121 O2828   1.994   .     S
Mo2121 O2929   2.001   .     S
Mo2121 O3030   1.801   .     S
Mo2121 O3131   1.802   .     S
Mo2121 O3232   1.997   .     S
Mo2121 O3333   2.008   .     S
Mo2121 Mo3939  2.968   .     S
O2323  C3434   1.384   .     S
O2323  Co5757  1.867   .     S
O2828  C3737   1.387   .     S
O2828  Co5757  1.870   .     S
O3232  C3535   1.388   .     S
O3232  Mo3939  1.995   .     S
O3232  Co5757  1.872   .     S
O3333  Mo3939  2.007   .     S
C3434  C3636   1.554   .     S
C3434  H475475  1.140   .     S
C3434  H476476  1.140   .     S
C3535  C3636   1.546   .     S
C3535  H477477  1.140   .     S
C3535  H478478  1.140   .     S
C3636  C5656   1.555   .     S
C3737  C5555   1.555   .     S
C3737  H479479  1.140   .     S
C3737  H480480  1.140   .     S
Mo3838 Mo3939  2.970   .     S
Mo3838 Mo4040  2.960   .     S
Mo3838 O4242   1.995   .     S
Mo3838 O4343   1.801   .     S
Mo3838 O4444   2.010   .     S
Mo3838 O4545   1.802   .     S
Mo3838 O4747   1.990   .     S
Mo3838 O4848   2.002   .     S
Mo3939 O4141   1.803   .     S
Mo3939 O4242   1.996   .     S
Mo3939 O4444   2.009   .     S
Mo3939 O4646   1.801   .     S
Mo4040 O4747   1.994   .     S
Mo4040 O4848   2.001   .     S
Mo4040 O4949   1.801   .     S
Mo4040 O5050   1.802   .     S
Mo4040 O5151   1.997   .     S
Mo4040 O5252   2.008   .     S
O4242  C5353   1.384   .     S
O4242  Co5757  1.867   .     S
O4747  C5656   1.386   .     S
O4747  Co5757  1.870   .     S
O5151  C5454   1.388   .     S
O5151  Co5757  1.871   .     S
C5353  C5555   1.554   .     S
C5353  H481481  1.140   .     S
C5353  H482482  1.140   .     S
C5454  C5555   1.546   .     S
C5454  H483483  1.140   .     S
C5454  H484484  1.140   .     S
C5656  H485485  1.140   .     S
C5656  H486486  1.140   .     S
N5858  C6060   1.288   .     D
N5858  C112112  1.430   .     S
N5959  C6868   1.288   .     D
N5959  C9393   1.430   .     S
C6060  C6161   1.429   .     S
C6060  H487487  1.139   .     S
C6161  C6262   1.390   .     D
C6161  C6666   1.399   .     S
C6262  C6363   1.385   .     S
C6262  H488488  1.140   .     S
C6363  C6464   1.398   .     D
C6363  H489489  1.140   .     S
C6464  C6565   1.390   .     S
C6464  C6767   1.432   .     S
C6565  C6666   1.374   .     D
C6565  H490490  1.140   .     S
C6666  H491491  1.140   .     S
C6767  C181181  1.398   .     D
C6767  C230230  1.376   .     S
C6868  C6969   1.429   .     S
C6868  H492492  1.140   .     S
C6969  C7070   1.390   .     S
C6969  C7474   1.399   .     D
C7070  C7171   1.385   .     D
C7070  H493493  1.139   .     S
C7171  C7272   1.398   .     S
C7171  H494494  1.140   .     S
C7272  C7373   1.390   .     D
C7272  C7575   1.432   .     S
C7373  C7474   1.374   .     S
C7373  H495495  1.140   .     S
C7474  H496496  1.140   .     S
C7575  C189189  1.398   1_655 S
C7575  C232232  1.376   1_565 D
Mo7676 Mo7777  2.969   .     S
Mo7676 Mo7878  2.960   .     S
Mo7676 O8080   1.997   .     S
Mo7676 O8181   1.801   .     S
Mo7676 O8282   2.009   .     S
Mo7676 O8383   1.804   .     S
Mo7676 O8585   1.989   .     S
Mo7676 O8686   2.001   .     S
Mo7777 O7979   1.802   .     S
Mo7777 O8080   1.995   .     S
Mo7777 O8282   2.010   .     S
Mo7777 O8484   1.801   .     S
Mo7777 Mo9797  2.968   .     S
Mo7777 O108108  1.995   .     S
Mo7777 O109109  2.008   .     S
Mo7878 O8585   1.992   .     S
Mo7878 O8686   2.002   .     S
Mo7878 O8787   1.802   .     S
Mo7878 O8888   1.801   .     S
Mo7878 O8989   1.998   .     S
Mo7878 O9090   2.008   .     S
Mo7878 Mo9696  2.968   .     S
O8080  C9191   1.384   .     S
O8080  Co114114  1.867   .     S
O8585  C9494   1.386   .     S
O8585  Co114114  1.871   .     S
O8989  C9292   1.388   .     S
O8989  Mo9696  1.995   .     S
O8989  Co114114  1.870   .     S
O9090  Mo9696  2.008   .     S
C9191  C9393   1.555   .     S
C9191  H497497  1.140   .     S
C9191  H498498  1.140   .     S
C9292  C9393   1.547   .     S
C9292  H499499  1.140   .     S
C9292  H500500  1.140   .     S
C9393  C113113  1.554   .     S
C9494  C112112  1.553   .     S
C9494  H501501  1.140   .     S
C9494  H502502  1.140   .     S
Mo9595 Mo9696  2.969   .     S
Mo9595 Mo9797  2.960   .     S
Mo9595 O9999   1.997   .     S
Mo9595 O100100  1.801   .     S
Mo9595 O101101  2.009   .     S
Mo9595 O102102  1.804   .     S
Mo9595 O104104  1.990   .     S
Mo9595 O105105  2.001   .     S
Mo9696 O9898   1.802   .     S
Mo9696 O9999   1.995   .     S
Mo9696 O101101  2.010   .     S
Mo9696 O103103  1.801   .     S
Mo9797 O104104  1.992   .     S
Mo9797 O105105  2.001   .     S
Mo9797 O106106  1.802   .     S
Mo9797 O107107  1.801   .     S
Mo9797 O108108  1.998   .     S
Mo9797 O109109  2.008   .     S
O9999  C110110  1.384   .     S
O9999  Co114114  1.867   .     S
O104104 C113113  1.387   .     S
O104104 Co114114  1.871   .     S
O108108 C111111  1.388   .     S
O108108 Co114114  1.870   .     S
C110110 C112112  1.555   .     S
C110110 H503503  1.140   .     S
C110110 H504504  1.140   .     S
C111111 C112112  1.547   .     S
C111111 H505505  1.140   .     S
C111111 H506506  1.140   .     S
C113113 H507507  1.140   .     S
C113113 H508508  1.140   .     S
N115115 C117117  1.288   .     D
N115115 C169169  1.430   .     S
N116116 C125125  1.287   .     D
N116116 C150150  1.430   .     S
C117117 C118118  1.428   .     S
C117117 H509509  1.140   .     S
C118118 C119119  1.390   .     D
C118118 C123123  1.399   .     S
C119119 C120120  1.385   .     S
C119119 H510510  1.139   .     S
C120120 C121121  1.398   .     D
C120120 H511511  1.140   .     S
C121121 C122122  1.390   .     S
C121121 C124124  1.432   .     S
C122122 C123123  1.374   .     D
C122122 H512512  1.140   .     S
C123123 H513513  1.140   .     S
C124124 C230230  1.376   .     D
C125125 C126126  1.428   .     S
C125125 H514514  1.140   .     S
C126126 C127127  1.390   .     D
C126126 C131131  1.399   .     S
C127127 C128128  1.385   .     S
C127127 H515515  1.139   .     S
C128128 C129129  1.398   .     D
C128128 H516516  1.140   .     S
C129129 C130130  1.390   .     S
C129129 C132132  1.432   .     S
C130130 C131131  1.374   .     D
C130130 H517517  1.140   .     S
C131131 H518518  1.140   .     S
C132132 C232232  1.376   .     S
C132132 C1818   1.399   1_655 D
Mo133133 Mo134134  2.969   .     S
Mo133133 Mo135135  2.959   .     S
Mo133133 O137137  1.997   .     S
Mo133133 O138138  1.801   .     S
Mo133133 O139139  2.009   .     S
Mo133133 O140140  1.803   .     S
Mo133133 O142142  1.990   .     S
Mo133133 O143143  2.001   .     S
Mo134134 O136136  1.801   .     S
Mo134134 O137137  1.994   .     S
Mo134134 O139139  2.010   .     S
Mo134134 O141141  1.801   .     S
Mo134134 Mo154154  2.969   .     S
Mo134134 O165165  1.995   .     S
Mo134134 O166166  2.008   .     S
Mo135135 O142142  1.992   .     S
Mo135135 O143143  2.001   .     S
Mo135135 O144144  1.802   .     S
Mo135135 O145145  1.801   .     S
Mo135135 O146146  1.999   .     S
Mo135135 O147147  2.008   .     S
Mo135135 Mo153153  2.970   .     S
O137137 C148148  1.384   .     S
O137137 Co171171  1.867   .     S
O142142 C151151  1.386   .     S
O142142 Co171171  1.871   .     S
O146146 C149149  1.388   .     S
O146146 Mo153153  1.995   .     S
O146146 Co171171  1.871   .     S
O147147 Mo153153  2.009   .     S
C148148 C150150  1.555   .     S
C148148 H519519  1.140   .     S
C148148 H520520  1.140   .     S
C149149 C150150  1.547   .     S
C149149 H521521  1.140   .     S
C149149 H522522  1.140   .     S
C150150 C170170  1.554   .     S
C151151 C169169  1.554   .     S
C151151 H523523  1.140   .     S
C151151 H524524  1.140   .     S
Mo152152 Mo153153  2.969   .     S
Mo152152 Mo154154  2.959   .     S
Mo152152 O156156  1.997   .     S
Mo152152 O157157  1.802   .     S
Mo152152 O158158  2.009   .     S
Mo152152 O159159  1.803   .     S
Mo152152 O161161  1.989   .     S
Mo152152 O162162  2.001   .     S
Mo153153 O155155  1.801   .     S
Mo153153 O156156  1.995   .     S
Mo153153 O158158  2.010   .     S
Mo153153 O160160  1.801   .     S
Mo154154 O161161  1.992   .     S
Mo154154 O162162  2.001   .     S
Mo154154 O163163  1.802   .     S
Mo154154 O164164  1.801   .     S
Mo154154 O165165  1.999   .     S
Mo154154 O166166  2.008   .     S
O156156 C167167  1.384   .     S
O156156 Co171171  1.867   .     S
O161161 C170170  1.386   .     S
O161161 Co171171  1.871   .     S
O165165 C168168  1.388   .     S
O165165 Co171171  1.870   .     S
C167167 C169169  1.555   .     S
C167167 H525525  1.140   .     S
C167167 H526526  1.140   .     S
C168168 C169169  1.547   .     S
C168168 H527527  1.140   .     S
C168168 H528528  1.140   .     S
C170170 H529529  1.140   .     S
C170170 H530530  1.140   .     S
N172172 C174174  1.287   .     D
N172172 C226226  1.430   .     S
N173173 C182182  1.288   .     D
N173173 C207207  1.430   .     S
C174174 C175175  1.429   .     S
C174174 H531531  1.141   .     S
C175175 C176176  1.390   .     S
C175175 C180180  1.400   .     D
C176176 C177177  1.385   .     D
C176176 H532532  1.141   .     S
C177177 C178178  1.399   .     S
C177177 H533533  1.140   .     S
C178178 C179179  1.390   .     D
C178178 C181181  1.432   .     S
C179179 C180180  1.374   .     S
C179179 H534534  1.140   .     S
C180180 H535535  1.140   .     S
C181181 C229229  1.376   .     S
C182182 C183183  1.428   .     S
C182182 H536536  1.141   .     S
C183183 C184184  1.390   .     S
C183183 C188188  1.400   .     D
C184184 C185185  1.385   .     D
C184184 H537537  1.141   .     S
C185185 C186186  1.400   .     S
C185185 H538538  1.140   .     S
C186186 C187187  1.390   .     D
C186186 C189189  1.433   .     S
C187187 C188188  1.375   .     S
C187187 H539539  1.140   .     S
C188188 H540540  1.140   .     S
C189189 C7575   1.398   1_455 S
C189189 C231231  1.376   1_565 D
Mo190190 Mo191191  2.970   .     S
Mo190190 Mo192192  2.961   .     S
Mo190190 O194194  1.995   .     S
Mo190190 O195195  1.801   .     S
Mo190190 O196196  2.010   .     S
Mo190190 O197197  1.802   .     S
Mo190190 O199199  1.989   .     S
Mo190190 O200200  2.003   .     S
Mo191191 O193193  1.803   .     S
Mo191191 O194194  1.996   .     S
Mo191191 O196196  2.009   .     S
Mo191191 O198198  1.801   .     S
Mo191191 Mo211211  2.968   .     S
Mo191191 O222222  1.995   .     S
Mo191191 O223223  2.007   .     S
Mo192192 O199199  1.993   .     S
Mo192192 O200200  2.001   .     S
Mo192192 O201201  1.801   .     S
Mo192192 O202202  1.803   .     S
Mo192192 O203203  1.997   .     S
Mo192192 O204204  2.008   .     S
Mo192192 Mo210210  2.968   .     S
O194194 C205205  1.384   .     S
O194194 Co228228  1.867   .     S
O199199 C208208  1.386   .     S
O199199 Co228228  1.870   .     S
O203203 C206206  1.388   .     S
O203203 Mo210210  1.995   .     S
O203203 Co228228  1.871   .     S
O204204 Mo210210  2.007   .     S
C205205 C207207  1.554   .     S
C205205 H541541  1.140   .     S
C205205 H542542  1.140   .     S
C206206 C207207  1.547   .     S
C206206 H543543  1.140   .     S
C206206 H544544  1.140   .     S
C207207 C227227  1.554   .     S
C208208 C226226  1.554   .     S
C208208 H545545  1.140   .     S
C208208 H546546  1.140   .     S
Mo209209 Mo210210  2.970   .     S
Mo209209 Mo211211  2.960   .     S
Mo209209 O213213  1.995   .     S
Mo209209 O214214  1.802   .     S
Mo209209 O215215  2.010   .     S
Mo209209 O216216  1.802   .     S
Mo209209 O218218  1.989   .     S
Mo209209 O219219  2.002   .     S
Mo210210 O212212  1.803   .     S
Mo210210 O213213  1.996   .     S
Mo210210 O215215  2.008   .     S
Mo210210 O217217  1.801   .     S
Mo211211 O218218  1.994   .     S
Mo211211 O219219  2.001   .     S
Mo211211 O220220  1.801   .     S
Mo211211 O221221  1.803   .     S
Mo211211 O222222  1.997   .     S
Mo211211 O223223  2.008   .     S
O213213 C224224  1.384   .     S
O213213 Co228228  1.867   .     S
O218218 C227227  1.387   .     S
O218218 Co228228  1.869   .     S
O222222 C225225  1.388   .     S
O222222 Co228228  1.872   .     S
C224224 C226226  1.554   .     S
C224224 H547547  1.140   .     S
C224224 H548548  1.140   .     S
C225225 C226226  1.547   .     S
C225225 H549549  1.140   .     S
C225225 H550550  1.140   .     S
C227227 H551551  1.140   .     S
C227227 H552552  1.140   .     S
C229229 H553553  1.140   .     S
C230230 H554554  1.140   .     S
C231231 H555555  1.140   .     S
C231231 C189189  1.376   1_545 D
C232232 H556556  1.140   .     S
C232232 C7575   1.376   1_545 D
N233233 C235235  1.287   .     D
N233233 C287287  1.430   .     S
N234234 C243243  1.287   .     D
N234234 C268268  1.430   .     S
C235235 C236236  1.429   .     S
C235235 H557557  1.140   .     S
C236236 C237237  1.389   .     D
C236236 C241241  1.400   .     S
C237237 C238238  1.386   .     S
C237237 H558558  1.140   .     S
C238238 C239239  1.399   .     D
C238238 H559559  1.140   .     S
C239239 C240240  1.390   .     S
C239239 C242242  1.433   .     S
C240240 C241241  1.375   .     D
C240240 H560560  1.140   .     S
C241241 H561561  1.140   .     S
C242242 C356356  1.399   .     S
C242242 C461461  1.376   .     D
C243243 C244244  1.429   .     S
C243243 H562562  1.140   .     S
C244244 C245245  1.390   .     S
C244244 C249249  1.400   .     D
C245245 C246246  1.385   .     D
C245245 H563563  1.140   .     S
C246246 C247247  1.399   .     S
C246246 H564564  1.140   .     S
C247247 C248248  1.390   .     D
C247247 C250250  1.433   .     S
C248248 C249249  1.375   .     S
C248248 H565565  1.140   .     S
C249249 H566566  1.140   .     S
C250250 C364364  1.399   1_455 S
C250250 C463463  1.376   1_545 D
Mo251251 Mo252252  2.970   .     S
Mo251251 Mo253253  2.960   .     S
Mo251251 O255255  1.995   .     S
Mo251251 O256256  1.802   .     S
Mo251251 O257257  2.010   .     S
Mo251251 O258258  1.802   .     S
Mo251251 O260260  1.989   .     S
Mo251251 O261261  2.002   .     S
Mo252252 O254254  1.803   .     S
Mo252252 O255255  1.996   .     S
Mo252252 O257257  2.009   .     S
Mo252252 O259259  1.801   .     S
Mo252252 Mo272272  2.968   .     S
Mo252252 O283283  1.995   .     S
Mo252252 O284284  2.007   .     S
Mo253253 O260260  1.994   .     S
Mo253253 O261261  2.001   .     S
Mo253253 O262262  1.801   .     S
Mo253253 O263263  1.802   .     S
Mo253253 O264264  1.997   .     S
Mo253253 O265265  2.008   .     S
Mo253253 Mo271271  2.968   .     S
O255255 C266266  1.384   .     S
O255255 Co289289  1.867   .     S
O260260 C269269  1.386   .     S
O260260 Co289289  1.870   .     S
O264264 C267267  1.388   .     S
O264264 Mo271271  1.995   .     S
O264264 Co289289  1.871   .     S
O265265 Mo271271  2.007   .     S
C266266 C268268  1.554   .     S
C266266 H567567  1.140   .     S
C266266 H568568  1.140   .     S
C267267 C268268  1.546   .     S
C267267 H569569  1.140   .     S
C267267 H570570  1.140   .     S
C268268 C288288  1.555   .     S
C269269 C287287  1.555   .     S
C269269 H571571  1.140   .     S
C269269 H572572  1.140   .     S
Mo270270 Mo271271  2.970   .     S
Mo270270 Mo272272  2.960   .     S
Mo270270 O274274  1.996   .     S
Mo270270 O275275  1.801   .     S
Mo270270 O276276  2.010   .     S
Mo270270 O277277  1.802   .     S
Mo270270 O279279  1.990   .     S
Mo270270 O280280  2.002   .     S
Mo271271 O273273  1.803   .     S
Mo271271 O274274  1.996   .     S
Mo271271 O276276  2.008   .     S
Mo271271 O278278  1.801   .     S
Mo272272 O279279  1.994   .     S
Mo272272 O280280  2.001   .     S
Mo272272 O281281  1.801   .     S
Mo272272 O282282  1.802   .     S
Mo272272 O283283  1.997   .     S
Mo272272 O284284  2.008   .     S
O274274 C285285  1.384   .     S
O274274 Co289289  1.867   .     S
O279279 C288288  1.387   .     S
O279279 Co289289  1.870   .     S
O283283 C286286  1.388   .     S
O283283 Co289289  1.872   .     S
C285285 C287287  1.554   .     S
C285285 H573573  1.140   .     S
C285285 H574574  1.140   .     S
C286286 C287287  1.546   .     S
C286286 H575575  1.140   .     S
C286286 H576576  1.140   .     S
C288288 H577577  1.140   .     S
C288288 H578578  1.140   .     S
N290290 C292292  1.288   .     D
N290290 C344344  1.430   .     S
N291291 C300300  1.288   .     D
N291291 C325325  1.430   .     S
C292292 C293293  1.428   .     S
C292292 H579579  1.140   .     S
C293293 C294294  1.390   .     D
C293293 C298298  1.399   .     S
C294294 C295295  1.385   .     S
C294294 H580580  1.140   .     S
C295295 C296296  1.398   .     D
C295295 H581581  1.140   .     S
C296296 C297297  1.390   .     S
C296296 C299299  1.433   .     S
C297297 C298298  1.374   .     D
C297297 H582582  1.139   .     S
C298298 H583583  1.141   .     S
C299299 C413413  1.399   .     D
C299299 C462462  1.375   .     S
C300300 C301301  1.428   .     S
C300300 H584584  1.140   .     S
C301301 C302302  1.390   .     S
C301301 C306306  1.399   .     D
C302302 C303303  1.385   .     D
C302302 H585585  1.140   .     S
C303303 C304304  1.398   .     S
C303303 H586586  1.140   .     S
C304304 C305305  1.390   .     D
C304304 C307307  1.433   .     S
C305305 C306306  1.374   .     S
C305305 H587587  1.140   .     S
C306306 H588588  1.140   .     S
C307307 C464464  1.375   .     S
C307307 C421421  1.398   1_655 D
Mo308308 Mo309309  2.969   .     S
Mo308308 Mo310310  2.959   .     S
Mo308308 O312312  1.997   .     S
Mo308308 O313313  1.802   .     S
Mo308308 O314314  2.009   .     S
Mo308308 O315315  1.804   .     S
Mo308308 O317317  1.989   .     S
Mo308308 O318318  2.001   .     S
Mo309309 O311311  1.801   .     S
Mo309309 O312312  1.995   .     S
Mo309309 O314314  2.010   .     S
Mo309309 O316316  1.801   .     S
Mo309309 Mo329329  2.968   .     S
Mo309309 O340340  1.995   .     S
Mo309309 O341341  2.008   .     S
Mo310310 O317317  1.992   .     S
Mo310310 O318318  2.001   .     S
Mo310310 O319319  1.802   .     S
Mo310310 O320320  1.801   .     S
Mo310310 O321321  1.998   .     S
Mo310310 O322322  2.008   .     S
Mo310310 Mo328328  2.968   .     S
O312312 C323323  1.384   .     S
O312312 Co346346  1.867   .     S
O317317 C326326  1.386   .     S
O317317 Co346346  1.871   .     S
O321321 C324324  1.388   .     S
O321321 Mo328328  1.995   .     S
O321321 Co346346  1.870   .     S
O322322 Mo328328  2.008   .     S
C323323 C325325  1.555   .     S
C323323 H589589  1.140   .     S
C323323 H590590  1.140   .     S
C324324 C325325  1.547   .     S
C324324 H591591  1.140   .     S
C324324 H592592  1.140   .     S
C325325 C345345  1.554   .     S
C326326 C344344  1.554   .     S
C326326 H593593  1.140   .     S
C326326 H594594  1.140   .     S
Mo327327 Mo328328  2.969   .     S
Mo327327 Mo329329  2.960   .     S
Mo327327 O331331  1.997   .     S
Mo327327 O332332  1.801   .     S
Mo327327 O333333  2.009   .     S
Mo327327 O334334  1.803   .     S
Mo327327 O336336  1.989   .     S
Mo327327 O337337  2.001   .     S
Mo328328 O330330  1.802   .     S
Mo328328 O331331  1.995   .     S
Mo328328 O333333  2.010   .     S
Mo328328 O335335  1.801   .     S
Mo329329 O336336  1.992   .     S
Mo329329 O337337  2.001   .     S
Mo329329 O338338  1.802   .     S
Mo329329 O339339  1.801   .     S
Mo329329 O340340  1.998   .     S
Mo329329 O341341  2.008   .     S
O331331 C342342  1.384   .     S
O331331 Co346346  1.867   .     S
O336336 C345345  1.386   .     S
O336336 Co346346  1.871   .     S
O340340 C343343  1.388   .     S
O340340 Co346346  1.870   .     S
C342342 C344344  1.555   .     S
C342342 H595595  1.140   .     S
C342342 H596596  1.140   .     S
C343343 C344344  1.547   .     S
C343343 H597597  1.140   .     S
C343343 H598598  1.140   .     S
C345345 H599599  1.140   .     S
C345345 H600600  1.140   .     S
N347347 C349349  1.288   .     D
N347347 C401401  1.430   .     S
N348348 C357357  1.288   .     D
N348348 C382382  1.430   .     S
C349349 C350350  1.428   .     S
C349349 H601601  1.140   .     S
C350350 C351351  1.390   .     D
C350350 C355355  1.399   .     S
C351351 C352352  1.384   .     S
C351351 H602602  1.140   .     S
C352352 C353353  1.398   .     D
C352352 H603603  1.140   .     S
C353353 C354354  1.390   .     S
C353353 C356356  1.432   .     S
C354354 C355355  1.374   .     D
C354354 H604604  1.140   .     S
C355355 H605605  1.140   .     S
C356356 C462462  1.376   .     D
C357357 C358358  1.428   .     S
C357357 H606606  1.140   .     S
C358358 C359359  1.390   .     D
C358358 C363363  1.399   .     S
C359359 C360360  1.384   .     S
C359359 H607607  1.140   .     S
C360360 C361361  1.398   .     D
C360360 H608608  1.140   .     S
C361361 C362362  1.390   .     S
C361361 C364364  1.432   .     S
C362362 C363363  1.374   .     D
C362362 H609609  1.139   .     S
C363363 H610610  1.140   .     S
C364364 C250250  1.399   1_655 S
C364364 C464464  1.376   1_545 D
Mo365365 Mo366366  2.969   .     S
Mo365365 Mo367367  2.959   .     S
Mo365365 O369369  1.997   .     S
Mo365365 O370370  1.801   .     S
Mo365365 O371371  2.009   .     S
Mo365365 O372372  1.803   .     S
Mo365365 O374374  1.989   .     S
Mo365365 O375375  2.001   .     S
Mo366366 O368368  1.801   .     S
Mo366366 O369369  1.995   .     S
Mo366366 O371371  2.010   .     S
Mo366366 O373373  1.801   .     S
Mo366366 Mo386386  2.970   .     S
Mo366366 O397397  1.995   .     S
Mo366366 O398398  2.008   .     S
Mo367367 O374374  1.992   .     S
Mo367367 O375375  2.001   .     S
Mo367367 O376376  1.802   .     S
Mo367367 O377377  1.801   .     S
Mo367367 O378378  1.999   .     S
Mo367367 O379379  2.008   .     S
Mo367367 Mo385385  2.970   .     S
O369369 C380380  1.383   .     S
O369369 Co403403  1.867   .     S
O374374 C383383  1.386   .     S
O374374 Co403403  1.871   .     S
O378378 C381381  1.388   .     S
O378378 Mo385385  1.995   .     S
O378378 Co403403  1.870   .     S
O379379 Mo385385  2.008   .     S
C380380 C382382  1.555   .     S
C380380 H611611  1.140   .     S
C380380 H612612  1.140   .     S
C381381 C382382  1.547   .     S
C381381 H613613  1.140   .     S
C381381 H614614  1.140   .     S
C382382 C402402  1.554   .     S
C383383 C401401  1.554   .     S
C383383 H615615  1.140   .     S
C383383 H616616  1.140   .     S
Mo384384 Mo385385  2.969   .     S
Mo384384 Mo386386  2.959   .     S
Mo384384 O388388  1.997   .     S
Mo384384 O389389  1.801   .     S
Mo384384 O390390  2.009   .     S
Mo384384 O391391  1.803   .     S
Mo384384 O393393  1.990   .     S
Mo384384 O394394  2.001   .     S
Mo385385 O387387  1.801   .     S
Mo385385 O388388  1.995   .     S
Mo385385 O390390  2.010   .     S
Mo385385 O392392  1.801   .     S
Mo386386 O393393  1.992   .     S
Mo386386 O394394  2.001   .     S
Mo386386 O395395  1.802   .     S
Mo386386 O396396  1.801   .     S
Mo386386 O397397  1.999   .     S
Mo386386 O398398  2.008   .     S
O388388 C399399  1.384   .     S
O388388 Co403403  1.867   .     S
O393393 C402402  1.386   .     S
O393393 Co403403  1.871   .     S
O397397 C400400  1.388   .     S
O397397 Co403403  1.870   .     S
C399399 C401401  1.555   .     S
C399399 H617617  1.140   .     S
C399399 H618618  1.140   .     S
C400400 C401401  1.546   .     S
C400400 H619619  1.140   .     S
C400400 H620620  1.140   .     S
C402402 H621621  1.140   .     S
C402402 H622622  1.140   .     S
N404404 C406406  1.287   .     D
N404404 C458458  1.430   .     S
N405405 C414414  1.287   .     D
N405405 C439439  1.430   .     S
C406406 C407407  1.429   .     S
C406406 H623623  1.140   .     S
C407407 C408408  1.390   .     S
C407407 C412412  1.400   .     D
C408408 C409409  1.385   .     D
C408408 H624624  1.140   .     S
C409409 C410410  1.400   .     S
C409409 H625625  1.140   .     S
C410410 C411411  1.390   .     D
C410410 C413413  1.432   .     S
C411411 C412412  1.375   .     S
C411411 H626626  1.141   .     S
C412412 H627627  1.140   .     S
C413413 C461461  1.376   .     S
C414414 C415415  1.429   .     S
C414414 H628628  1.141   .     S
C415415 C416416  1.390   .     D
C415415 C420420  1.400   .     S
C416416 C417417  1.385   .     S
C416416 H629629  1.141   .     S
C417417 C418418  1.399   .     D
C417417 H630630  1.140   .     S
C418418 C419419  1.390   .     S
C418418 C421421  1.432   .     S
C419419 C420420  1.374   .     D
C419419 H631631  1.141   .     S
C420420 H632632  1.140   .     S
C421421 C463463  1.376   .     S
C421421 C307307  1.398   1_455 D
Mo422422 Mo423423  2.970   .     S
Mo422422 Mo424424  2.960   .     S
Mo422422 O426426  1.996   .     S
Mo422422 O427427  1.801   .     S
Mo422422 O428428  2.011   .     S
Mo422422 O429429  1.802   .     S
Mo422422 O431431  1.989   .     S
Mo422422 O432432  2.002   .     S
Mo423423 O425425  1.803   .     S
Mo423423 O426426  1.996   .     S
Mo423423 O428428  2.009   .     S
Mo423423 O430430  1.801   .     S
Mo423423 Mo443443  2.968   .     S
Mo423423 O454454  1.995   .     S
Mo423423 O455455  2.007   .     S
Mo424424 O431431  1.994   .     S
Mo424424 O432432  2.001   .     S
Mo424424 O433433  1.801   .     S
Mo424424 O434434  1.803   .     S
Mo424424 O435435  1.997   .     S
Mo424424 O436436  2.008   .     S
Mo424424 Mo442442  2.968   .     S
O426426 C437437  1.384   .     S
O426426 Co460460  1.867   .     S
O431431 C440440  1.386   .     S
O431431 Co460460  1.870   .     S
O435435 C438438  1.388   .     S
O435435 Mo442442  1.995   .     S
O435435 Co460460  1.872   .     S
O436436 Mo442442  2.007   .     S
C437437 C439439  1.554   .     S
C437437 H633633  1.140   .     S
C437437 H634634  1.140   .     S
C438438 C439439  1.547   .     S
C438438 H635635  1.140   .     S
C438438 H636636  1.140   .     S
C439439 C459459  1.554   .     S
C440440 C458458  1.554   .     S
C440440 H637637  1.140   .     S
C440440 H638638  1.140   .     S
Mo441441 Mo442442  2.970   .     S
Mo441441 Mo443443  2.961   .     S
Mo441441 O445445  1.996   .     S
Mo441441 O446446  1.801   .     S
Mo441441 O447447  2.010   .     S
Mo441441 O448448  1.802   .     S
Mo441441 O450450  1.989   .     S
Mo441441 O451451  2.003   .     S
Mo442442 O444444  1.803   .     S
Mo442442 O445445  1.996   .     S
Mo442442 O447447  2.009   .     S
Mo442442 O449449  1.801   .     S
Mo443443 O450450  1.994   .     S
Mo443443 O451451  2.001   .     S
Mo443443 O452452  1.801   .     S
Mo443443 O453453  1.803   .     S
Mo443443 O454454  1.997   .     S
Mo443443 O455455  2.008   .     S
O445445 C456456  1.384   .     S
O445445 Co460460  1.867   .     S
O450450 C459459  1.386   .     S
O450450 Co460460  1.870   .     S
O454454 C457457  1.388   .     S
O454454 Co460460  1.872   .     S
C456456 C458458  1.554   .     S
C456456 H639639  1.140   .     S
C456456 H640640  1.140   .     S
C457457 C458458  1.547   .     S
C457457 H641641  1.140   .     S
C457457 H642642  1.140   .     S
C459459 H643643  1.140   .     S
C459459 H644644  1.140   .     S
C461461 H645645  1.140   .     S
C462462 H646646  1.140   .     S
C463463 H647647  1.140   .     S
C463463 C250250  1.376   1_565 D
C464464 H648648  1.140   .     S
C464464 C364364  1.376   1_565 D
