data_1142
_audit_creation_date              2023-09-08
_audit_creation_method            'Materials Studio'
_symmetry_space_group_name_H-M    'P1'
_symmetry_Int_Tables_number       1
_symmetry_cell_setting            triclinic
loop_
_symmetry_equiv_pos_as_xyz
  x,y,z
_cell_length_a                    35.0000
_cell_length_b                    28.3000
_cell_length_c                    19.0000
_cell_angle_alpha                 90.0000
_cell_angle_beta                  87.4000
_cell_angle_gamma                 90.0000
loop_
_atom_site_label
_atom_site_type_symbol
_atom_site_fract_x
_atom_site_fract_y
_atom_site_fract_z
_atom_site_U_iso_or_equiv
_atom_site_adp_type
_atom_site_occupancy
N1     N     0.27381   0.83774   0.25492   0.00000  Uiso   1.00
C2     C     0.26799   0.87869   0.27988   0.00000  Uiso   1.00
C3     C     0.48153   0.63125   0.24268   0.00000  Uiso   1.00
C4     C     0.59081   0.55280   0.25529   0.00000  Uiso   1.00
C5     C     0.55655   0.53080   0.29288   0.00000  Uiso   1.00
C6     C     0.51839   0.55439   0.29236   0.00000  Uiso   1.00
C7     C     0.51415   0.59993   0.25339   0.00000  Uiso   1.00
C8     C     0.54814   0.62193   0.21535   0.00000  Uiso   1.00
C9     C     0.58638   0.59850   0.21638   0.00000  Uiso   1.00
C10    C     0.23286   0.90429   0.27164   0.00000  Uiso   1.00
C11    C     0.23109   0.94687   0.23785   0.00000  Uiso   1.00
C12    C     0.19694   0.96910   0.23143   0.00000  Uiso   1.00
C13    C     0.16399   0.94909   0.25870   0.00000  Uiso   1.00
C14    C     0.16561   0.90665   0.29246   0.00000  Uiso   1.00
C15    C     0.19975   0.88441   0.29890   0.00000  Uiso   1.00
Mo16   Mo    0.33553   0.69148   0.39568   0.00000  Uiso   1.00
Mo17   Mo    0.36547   0.72465   0.09658   0.00000  Uiso   1.00
Mo18   Mo    0.32614   0.66170   0.22666   0.00000  Uiso   1.00
O19    O     0.33353   0.74005   0.20755   0.00000  Uiso   1.00
O20    O     0.37526   0.69041   0.29245   0.00000  Uiso   1.00
O21    O     0.30056   0.70531   0.45403   0.00000  Uiso   1.00
O22    O     0.30642   0.68449   0.31498   0.00000  Uiso   1.00
O23    O     0.39863   0.70735   0.03586   0.00000  Uiso   1.00
O24    O     0.36300   0.67014   0.15299   0.00000  Uiso   1.00
O25    O     0.33601   0.60622   0.24806   0.00000  Uiso   1.00
O26    O     0.34630   0.63610   0.41380   0.00000  Uiso   1.00
O27    O     0.32507   0.72228   0.05389   0.00000  Uiso   1.00
O28    O     0.28623   0.65972   0.18151   0.00000  Uiso   1.00
C29    C     0.41123   0.66863   0.29130   0.00000  Uiso   1.00
C30    C     0.30209   0.77139   0.20899   0.00000  Uiso   1.00
Mo31   Mo    0.38426   0.78454   0.43434   0.00000  Uiso   1.00
Mo32   Mo    0.41420   0.81771   0.13523   0.00000  Uiso   1.00
Mo33   Mo    0.42350   0.84763   0.30390   0.00000  Uiso   1.00
O34    O     0.37459   0.81847   0.24012   0.00000  Uiso   1.00
O35    O     0.41625   0.76869   0.32496   0.00000  Uiso   1.00
O36    O     0.35145   0.80249   0.49440   0.00000  Uiso   1.00
O37    O     0.38712   0.83862   0.37901   0.00000  Uiso   1.00
O38    O     0.44895   0.80345   0.07577   0.00000  Uiso   1.00
O39    O     0.44363   0.82414   0.21696   0.00000  Uiso   1.00
O40    O     0.46372   0.85010   0.34937   0.00000  Uiso   1.00
O41    O     0.42524   0.78685   0.47642   0.00000  Uiso   1.00
O42    O     0.40380   0.87263   0.11635   0.00000  Uiso   1.00
O43    O     0.41337   0.90253   0.28237   0.00000  Uiso   1.00
C44    C     0.44742   0.73773   0.32000   0.00000  Uiso   1.00
C45    C     0.33870   0.84130   0.23803   0.00000  Uiso   1.00
Co46   Co    0.37507   0.75435   0.26586   0.00000  Uiso   1.00
O47    O     0.34099   0.76537   0.35131   0.00000  Uiso   1.00
O48    O     0.40946   0.74312   0.18023   0.00000  Uiso   1.00
O49    O     0.37810   0.71982   0.43370   0.00000  Uiso   1.00
O50    O     0.37065   0.78985   0.09883   0.00000  Uiso   1.00
N51    N     0.47697   0.67179   0.26976   0.00000  Uiso   1.00
C52    C     0.44331   0.69920   0.26774   0.00000  Uiso   1.00
C53    C     0.44154   0.71537   0.19063   0.00000  Uiso   1.00
C54    C     0.30664   0.80978   0.26331   0.00000  Uiso   1.00
C55    C     0.30861   0.79392   0.33801   0.00000  Uiso   1.00
N56    N     0.48152   0.33774   0.25159   0.00000  Uiso   1.00
N57    N     0.27841   0.17183   0.23676   0.00000  Uiso   1.00
C58    C     0.48734   0.37869   0.22663   0.00000  Uiso   1.00
C59    C     0.52338   0.40234   0.23428   0.00000  Uiso   1.00
C60    C     0.27380   0.13125   0.26384   0.00000  Uiso   1.00
C61    C     0.52871   0.44590   0.20457   0.00000  Uiso   1.00
C62    C     0.56241   0.46910   0.21127   0.00000  Uiso   1.00
C63    C     0.59135   0.44909   0.24782   0.00000  Uiso   1.00
C64    C     0.58617   0.40565   0.27750   0.00000  Uiso   1.00
C65    C     0.55248   0.38245   0.27081   0.00000  Uiso   1.00
C66    C     0.16452   0.05280   0.25123   0.00000  Uiso   1.00
C67    C     0.19801   0.03146   0.28699   0.00000  Uiso   1.00
C68    C     0.23484   0.05781   0.29058   0.00000  Uiso   1.00
C69    C     0.23826   0.10600   0.25917   0.00000  Uiso   1.00
C70    C     0.20489   0.12765   0.22384   0.00000  Uiso   1.00
C71    C     0.16814   0.10111   0.21975   0.00000  Uiso   1.00
Mo72   Mo    0.38777   0.22376   0.41163   0.00000  Uiso   1.00
Mo73   Mo    0.41950   0.19314   0.11240   0.00000  Uiso   1.00
Mo74   Mo    0.42821   0.16213   0.28075   0.00000  Uiso   1.00
O75    O     0.37938   0.19112   0.21658   0.00000  Uiso   1.00
O76    O     0.42015   0.24081   0.30310   0.00000  Uiso   1.00
O77    O     0.35483   0.20495   0.47079   0.00000  Uiso   1.00
O78    O     0.39140   0.17012   0.35538   0.00000  Uiso   1.00
O79    O     0.45441   0.20828   0.05382   0.00000  Uiso   1.00
O80    O     0.44857   0.18650   0.19457   0.00000  Uiso   1.00
O81    O     0.46820   0.15984   0.32693   0.00000  Uiso   1.00
O82    O     0.42854   0.22166   0.45444   0.00000  Uiso   1.00
O83    O     0.40969   0.13823   0.09234   0.00000  Uiso   1.00
O84    O     0.41869   0.10726   0.25805   0.00000  Uiso   1.00
C85    C     0.45105   0.27220   0.29926   0.00000  Uiso   1.00
C86    C     0.34373   0.16784   0.21342   0.00000  Uiso   1.00
Mo87   Mo    0.33842   0.31646   0.37373   0.00000  Uiso   1.00
Mo88   Mo    0.37015   0.28585   0.07450   0.00000  Uiso   1.00
Mo89   Mo    0.32962   0.34734   0.20502   0.00000  Uiso   1.00
O90    O     0.33780   0.26923   0.18464   0.00000  Uiso   1.00
O91    O     0.37864   0.31879   0.27121   0.00000  Uiso   1.00
O92    O     0.30330   0.30176   0.43121   0.00000  Uiso   1.00
O93    O     0.30967   0.32366   0.29260   0.00000  Uiso   1.00
O94    O     0.40345   0.30401   0.01468   0.00000  Uiso   1.00
O95    O     0.36691   0.33990   0.13185   0.00000  Uiso   1.00
O96    O     0.33888   0.40279   0.22760   0.00000  Uiso   1.00
O97    O     0.34860   0.37184   0.39303   0.00000  Uiso   1.00
O98    O     0.32997   0.28800   0.03110   0.00000  Uiso   1.00
O99    O     0.28994   0.34913   0.15916   0.00000  Uiso   1.00
C100   C     0.41441   0.34104   0.27111   0.00000  Uiso   1.00
C101   C     0.30666   0.23748   0.18494   0.00000  Uiso   1.00
Co102  Co    0.37917   0.25505   0.24348   0.00000  Uiso   1.00
O103   O     0.34477   0.24297   0.32813   0.00000  Uiso   1.00
O104   O     0.41386   0.26734   0.15865   0.00000  Uiso   1.00
O105   O     0.38103   0.28839   0.41203   0.00000  Uiso   1.00
O106   O     0.37590   0.22071   0.07568   0.00000  Uiso   1.00
C107   C     0.44686   0.31105   0.24759   0.00000  Uiso   1.00
C108   C     0.44563   0.29542   0.17014   0.00000  Uiso   1.00
C109   C     0.31128   0.19876   0.23868   0.00000  Uiso   1.00
C110   C     0.31272   0.21411   0.31372   0.00000  Uiso   1.00
N111   N     0.98152   0.83774   0.25159   0.00000  Uiso   1.00
C112   C     0.98734   0.87869   0.22663   0.00000  Uiso   1.00
C113   C     0.77380   0.63125   0.26384   0.00000  Uiso   1.00
C114   C     0.66452   0.55280   0.25123   0.00000  Uiso   1.00
C115   C     0.69878   0.53080   0.21364   0.00000  Uiso   1.00
C116   C     0.73694   0.55439   0.21415   0.00000  Uiso   1.00
C117   C     0.74119   0.59993   0.25312   0.00000  Uiso   1.00
C118   C     0.70719   0.62193   0.29117   0.00000  Uiso   1.00
C119   C     0.66895   0.59850   0.29013   0.00000  Uiso   1.00
C120   C     0.02248   0.90429   0.23488   0.00000  Uiso   1.00
C121   C     0.02424   0.94687   0.26866   0.00000  Uiso   1.00
C122   C     0.05839   0.96910   0.27509   0.00000  Uiso   1.00
C123   C     0.09135   0.94909   0.24782   0.00000  Uiso   1.00
C124   C     0.08972   0.90665   0.21405   0.00000  Uiso   1.00
C125   C     0.05558   0.88441   0.20761   0.00000  Uiso   1.00
Mo126  Mo    0.91980   0.69148   0.11084   0.00000  Uiso   1.00
Mo127  Mo    0.88986   0.72465   0.40994   0.00000  Uiso   1.00
Mo128  Mo    0.92919   0.66170   0.27985   0.00000  Uiso   1.00
O129   O     0.92181   0.74005   0.29897   0.00000  Uiso   1.00
O130   O     0.88007   0.69041   0.21407   0.00000  Uiso   1.00
O131   O     0.95477   0.70531   0.05249   0.00000  Uiso   1.00
O132   O     0.94891   0.68449   0.19154   0.00000  Uiso   1.00
O133   O     0.85670   0.70735   0.47066   0.00000  Uiso   1.00
O134   O     0.89233   0.67014   0.35353   0.00000  Uiso   1.00
O135   O     0.91932   0.60622   0.25845   0.00000  Uiso   1.00
O136   O     0.90903   0.63610   0.09272   0.00000  Uiso   1.00
O137   O     0.93026   0.72228   0.45263   0.00000  Uiso   1.00
O138   O     0.96910   0.65972   0.32501   0.00000  Uiso   1.00
C139   C     0.84410   0.66863   0.21522   0.00000  Uiso   1.00
C140   C     0.95324   0.77139   0.29753   0.00000  Uiso   1.00
Mo141  Mo    0.87107   0.78454   0.07218   0.00000  Uiso   1.00
Mo142  Mo    0.84114   0.81771   0.37128   0.00000  Uiso   1.00
Mo143  Mo    0.83183   0.84763   0.20262   0.00000  Uiso   1.00
O144   O     0.88075   0.81847   0.26639   0.00000  Uiso   1.00
O145   O     0.83908   0.76869   0.18155   0.00000  Uiso   1.00
O146   O     0.90389   0.80249   0.01212   0.00000  Uiso   1.00
O147   O     0.86821   0.83862   0.12751   0.00000  Uiso   1.00
O148   O     0.80638   0.80345   0.43074   0.00000  Uiso   1.00
O149   O     0.81170   0.82414   0.28956   0.00000  Uiso   1.00
O150   O     0.79161   0.85010   0.15715   0.00000  Uiso   1.00
O151   O     0.83009   0.78685   0.03010   0.00000  Uiso   1.00
O152   O     0.85153   0.87263   0.39017   0.00000  Uiso   1.00
O153   O     0.84196   0.90253   0.22415   0.00000  Uiso   1.00
C154   C     0.80791   0.73773   0.18651   0.00000  Uiso   1.00
C155   C     0.91663   0.84130   0.26849   0.00000  Uiso   1.00
Co156  Co    0.88026   0.75435   0.24065   0.00000  Uiso   1.00
O157   O     0.91434   0.76537   0.15521   0.00000  Uiso   1.00
O158   O     0.84587   0.74312   0.32629   0.00000  Uiso   1.00
O159   O     0.87723   0.71982   0.07282   0.00000  Uiso   1.00
O160   O     0.88468   0.78985   0.40769   0.00000  Uiso   1.00
N161   N     0.77836   0.67179   0.23676   0.00000  Uiso   1.00
C162   C     0.81202   0.69920   0.23878   0.00000  Uiso   1.00
C163   C     0.81379   0.71537   0.31589   0.00000  Uiso   1.00
C164   C     0.94869   0.80978   0.24321   0.00000  Uiso   1.00
C165   C     0.94672   0.79392   0.16851   0.00000  Uiso   1.00
N166   N     0.77381   0.33774   0.25492   0.00000  Uiso   1.00
N167   N     0.97692   0.17183   0.26975   0.00000  Uiso   1.00
C168   C     0.76799   0.37869   0.27988   0.00000  Uiso   1.00
C169   C     0.73195   0.40234   0.27224   0.00000  Uiso   1.00
C170   C     0.98153   0.13125   0.24268   0.00000  Uiso   1.00
C171   C     0.72662   0.44590   0.30195   0.00000  Uiso   1.00
C172   C     0.69292   0.46910   0.29525   0.00000  Uiso   1.00
C173   C     0.66399   0.44909   0.25870   0.00000  Uiso   1.00
C174   C     0.66916   0.40565   0.22901   0.00000  Uiso   1.00
C175   C     0.70285   0.38245   0.23571   0.00000  Uiso   1.00
C176   C     0.09081   0.05280   0.25529   0.00000  Uiso   1.00
C177   C     0.05732   0.03146   0.21953   0.00000  Uiso   1.00
C178   C     0.02049   0.05781   0.21593   0.00000  Uiso   1.00
C179   C     0.01707   0.10600   0.24734   0.00000  Uiso   1.00
C180   C     0.05044   0.12765   0.28267   0.00000  Uiso   1.00
C181   C     0.08719   0.10111   0.28677   0.00000  Uiso   1.00
Mo182  Mo    0.86756   0.22376   0.09489   0.00000  Uiso   1.00
Mo183  Mo    0.83583   0.19314   0.39411   0.00000  Uiso   1.00
Mo184  Mo    0.82712   0.16213   0.22577   0.00000  Uiso   1.00
O185   O     0.87595   0.19112   0.28994   0.00000  Uiso   1.00
O186   O     0.83518   0.24081   0.20342   0.00000  Uiso   1.00
O187   O     0.90050   0.20495   0.03573   0.00000  Uiso   1.00
O188   O     0.86394   0.17012   0.15114   0.00000  Uiso   1.00
O189   O     0.80092   0.20828   0.45270   0.00000  Uiso   1.00
O190   O     0.80676   0.18650   0.31194   0.00000  Uiso   1.00
O191   O     0.78713   0.15984   0.17958   0.00000  Uiso   1.00
O192   O     0.82679   0.22166   0.05208   0.00000  Uiso   1.00
O193   O     0.84564   0.13823   0.41417   0.00000  Uiso   1.00
O194   O     0.83664   0.10726   0.24846   0.00000  Uiso   1.00
C195   C     0.80428   0.27220   0.20726   0.00000  Uiso   1.00
C196   C     0.91160   0.16784   0.29310   0.00000  Uiso   1.00
Mo197  Mo    0.91691   0.31646   0.13279   0.00000  Uiso   1.00
Mo198  Mo    0.88518   0.28585   0.43202   0.00000  Uiso   1.00
Mo199  Mo    0.92571   0.34734   0.30150   0.00000  Uiso   1.00
O200   O     0.91753   0.26923   0.32188   0.00000  Uiso   1.00
O201   O     0.87669   0.31879   0.23530   0.00000  Uiso   1.00
O202   O     0.95203   0.30176   0.07531   0.00000  Uiso   1.00
O203   O     0.94566   0.32366   0.21392   0.00000  Uiso   1.00
O204   O     0.85188   0.30401   0.49184   0.00000  Uiso   1.00
O205   O     0.88842   0.33990   0.37467   0.00000  Uiso   1.00
O206   O     0.91645   0.40279   0.27892   0.00000  Uiso   1.00
O207   O     0.90673   0.37184   0.11348   0.00000  Uiso   1.00
O208   O     0.92536   0.28800   0.47542   0.00000  Uiso   1.00
O209   O     0.96539   0.34913   0.34736   0.00000  Uiso   1.00
C210   C     0.84092   0.34104   0.23540   0.00000  Uiso   1.00
C211   C     0.94867   0.23748   0.32157   0.00000  Uiso   1.00
Co212  Co    0.87616   0.25505   0.26304   0.00000  Uiso   1.00
O213   O     0.91056   0.24297   0.17839   0.00000  Uiso   1.00
O214   O     0.84147   0.26734   0.34787   0.00000  Uiso   1.00
O215   O     0.87430   0.28839   0.09448   0.00000  Uiso   1.00
O216   O     0.87943   0.22071   0.43083   0.00000  Uiso   1.00
C217   C     0.80847   0.31105   0.25892   0.00000  Uiso   1.00
C218   C     0.80970   0.29542   0.33638   0.00000  Uiso   1.00
C219   C     0.94405   0.19876   0.26784   0.00000  Uiso   1.00
C220   C     0.94261   0.21411   0.19280   0.00000  Uiso   1.00
C221   C     0.12767   0.97358   0.25326   0.00000  Uiso   1.00
C222   C     0.12767   0.02642   0.25326   0.00000  Uiso   1.00
C223   C     0.62767   0.52642   0.25326   0.00000  Uiso   1.00
C224   C     0.62767   0.47358   0.25326   0.00000  Uiso   1.00
H225   H     0.29111   0.89696   0.31048   0.00000  Uiso   1.00
H226   H     0.45766   0.61961   0.20751   0.00000  Uiso   1.00
H227   H     0.55988   0.49591   0.32187   0.00000  Uiso   1.00
H228   H     0.49269   0.53772   0.32153   0.00000  Uiso   1.00
H229   H     0.54481   0.65654   0.18563   0.00000  Uiso   1.00
H230   H     0.61215   0.61531   0.18765   0.00000  Uiso   1.00
H231   H     0.25845   0.96370   0.21503   0.00000  Uiso   1.00
H232   H     0.19571   0.00455   0.20322   0.00000  Uiso   1.00
H233   H     0.13831   0.88971   0.31537   0.00000  Uiso   1.00
H234   H     0.20097   0.84898   0.32714   0.00000  Uiso   1.00
H235   H     0.41055   0.63664   0.25499   0.00000  Uiso   1.00
H236   H     0.41762   0.65603   0.34657   0.00000  Uiso   1.00
H237   H     0.27477   0.75080   0.22221   0.00000  Uiso   1.00
H238   H     0.29984   0.78858   0.15507   0.00000  Uiso   1.00
H239   H     0.45147   0.72132   0.37397   0.00000  Uiso   1.00
H240   H     0.47436   0.75822   0.30370   0.00000  Uiso   1.00
H241   H     0.33367   0.85262   0.18158   0.00000  Uiso   1.00
H242   H     0.33869   0.87391   0.27316   0.00000  Uiso   1.00
H243   H     0.44061   0.68300   0.15510   0.00000  Uiso   1.00
H244   H     0.46810   0.73699   0.17566   0.00000  Uiso   1.00
H245   H     0.28161   0.77308   0.35280   0.00000  Uiso   1.00
H246   H     0.30996   0.82605   0.37393   0.00000  Uiso   1.00
H247   H     0.46387   0.39744   0.19757   0.00000  Uiso   1.00
H248   H     0.29806   0.11394   0.29265   0.00000  Uiso   1.00
H249   H     0.50487   0.46280   0.17415   0.00000  Uiso   1.00
H250   H     0.56679   0.50543   0.18645   0.00000  Uiso   1.00
H251   H     0.61004   0.38880   0.30789   0.00000  Uiso   1.00
H252   H     0.54811   0.34611   0.29559   0.00000  Uiso   1.00
H253   H     0.19507   0.99485   0.31146   0.00000  Uiso   1.00
H254   H     0.26011   0.04111   0.31719   0.00000  Uiso   1.00
H255   H     0.20751   0.16448   0.19999   0.00000  Uiso   1.00
H256   H     0.14295   0.11767   0.19270   0.00000  Uiso   1.00
H257   H     0.47814   0.25156   0.28443   0.00000  Uiso   1.00
H258   H     0.45454   0.28925   0.35296   0.00000  Uiso   1.00
H259   H     0.34418   0.13475   0.24752   0.00000  Uiso   1.00
H260   H     0.33872   0.15722   0.15667   0.00000  Uiso   1.00
H261   H     0.41954   0.35401   0.32673   0.00000  Uiso   1.00
H262   H     0.41441   0.37280   0.23428   0.00000  Uiso   1.00
H263   H     0.30482   0.22104   0.13042   0.00000  Uiso   1.00
H264   H     0.27905   0.25738   0.19852   0.00000  Uiso   1.00
H265   H     0.47267   0.27464   0.15544   0.00000  Uiso   1.00
H266   H     0.44425   0.32787   0.13488   0.00000  Uiso   1.00
H267   H     0.31339   0.18140   0.34858   0.00000  Uiso   1.00
H268   H     0.28598   0.23537   0.32873   0.00000  Uiso   1.00
H269   H     0.96422   0.89696   0.19604   0.00000  Uiso   1.00
H270   H     0.79767   0.61961   0.29900   0.00000  Uiso   1.00
H271   H     0.69545   0.49591   0.18465   0.00000  Uiso   1.00
H272   H     0.76264   0.53772   0.18498   0.00000  Uiso   1.00
H273   H     0.71052   0.65654   0.32088   0.00000  Uiso   1.00
H274   H     0.64318   0.61531   0.31887   0.00000  Uiso   1.00
H275   H     0.99688   0.96370   0.29148   0.00000  Uiso   1.00
H276   H     0.05962   0.00455   0.30329   0.00000  Uiso   1.00
H277   H     0.11702   0.88971   0.19114   0.00000  Uiso   1.00
H278   H     0.05436   0.84898   0.17937   0.00000  Uiso   1.00
H279   H     0.84478   0.63664   0.25153   0.00000  Uiso   1.00
H280   H     0.83772   0.65603   0.15994   0.00000  Uiso   1.00
H281   H     0.98056   0.75080   0.28430   0.00000  Uiso   1.00
H282   H     0.95549   0.78858   0.35145   0.00000  Uiso   1.00
H283   H     0.80386   0.72132   0.13255   0.00000  Uiso   1.00
H284   H     0.78097   0.75822   0.20282   0.00000  Uiso   1.00
H285   H     0.92166   0.85262   0.32494   0.00000  Uiso   1.00
H286   H     0.91665   0.87391   0.23335   0.00000  Uiso   1.00
H287   H     0.81472   0.68300   0.35142   0.00000  Uiso   1.00
H288   H     0.78723   0.73699   0.33085   0.00000  Uiso   1.00
H289   H     0.97372   0.77308   0.15372   0.00000  Uiso   1.00
H290   H     0.94537   0.82605   0.13259   0.00000  Uiso   1.00
H291   H     0.79146   0.39744   0.30895   0.00000  Uiso   1.00
H292   H     0.95727   0.11394   0.21387   0.00000  Uiso   1.00
H293   H     0.75046   0.46280   0.33237   0.00000  Uiso   1.00
H294   H     0.68854   0.50543   0.32006   0.00000  Uiso   1.00
H295   H     0.64529   0.38880   0.19862   0.00000  Uiso   1.00
H296   H     0.70722   0.34611   0.21093   0.00000  Uiso   1.00
H297   H     0.06026   0.99485   0.19505   0.00000  Uiso   1.00
H298   H     0.99522   0.04111   0.18933   0.00000  Uiso   1.00
H299   H     0.04782   0.16448   0.30653   0.00000  Uiso   1.00
H300   H     0.11238   0.11767   0.31382   0.00000  Uiso   1.00
H301   H     0.77719   0.25156   0.22209   0.00000  Uiso   1.00
H302   H     0.80079   0.28925   0.15355   0.00000  Uiso   1.00
H303   H     0.91115   0.13475   0.25900   0.00000  Uiso   1.00
H304   H     0.91661   0.15722   0.34985   0.00000  Uiso   1.00
H305   H     0.83579   0.35401   0.17979   0.00000  Uiso   1.00
H306   H     0.84092   0.37280   0.27223   0.00000  Uiso   1.00
H307   H     0.95051   0.22104   0.37609   0.00000  Uiso   1.00
H308   H     0.97628   0.25738   0.30800   0.00000  Uiso   1.00
H309   H     0.78266   0.27464   0.35108   0.00000  Uiso   1.00
H310   H     0.81109   0.32787   0.37164   0.00000  Uiso   1.00
H311   H     0.94194   0.18140   0.15794   0.00000  Uiso   1.00
H312   H     0.96935   0.23537   0.17778   0.00000  Uiso   1.00
H313   H     0.13162   0.97358   0.19340   0.00000  Uiso   1.00
H314   H     0.12802   0.02642   0.19324   0.00000  Uiso   1.00
N315   N     0.72619   0.83774   0.74508   0.00000  Uiso   1.00
C316   C     0.73201   0.87869   0.72012   0.00000  Uiso   1.00
C317   C     0.51847   0.63125   0.75732   0.00000  Uiso   1.00
C318   C     0.40919   0.55280   0.74471   0.00000  Uiso   1.00
C319   C     0.44345   0.53080   0.70712   0.00000  Uiso   1.00
C320   C     0.48161   0.55439   0.70764   0.00000  Uiso   1.00
C321   C     0.48585   0.59993   0.74661   0.00000  Uiso   1.00
C322   C     0.45186   0.62193   0.78465   0.00000  Uiso   1.00
C323   C     0.41362   0.59850   0.78362   0.00000  Uiso   1.00
C324   C     0.76714   0.90429   0.72836   0.00000  Uiso   1.00
C325   C     0.76891   0.94687   0.76215   0.00000  Uiso   1.00
C326   C     0.80306   0.96910   0.76857   0.00000  Uiso   1.00
C327   C     0.83601   0.94909   0.74130   0.00000  Uiso   1.00
C328   C     0.83439   0.90665   0.70754   0.00000  Uiso   1.00
C329   C     0.80025   0.88441   0.70110   0.00000  Uiso   1.00
Mo330  Mo    0.66447   0.69148   0.60432   0.00000  Uiso   1.00
Mo331  Mo    0.63453   0.72465   0.90342   0.00000  Uiso   1.00
Mo332  Mo    0.67386   0.66170   0.77334   0.00000  Uiso   1.00
O333   O     0.66647   0.74005   0.79245   0.00000  Uiso   1.00
O334   O     0.62474   0.69041   0.70755   0.00000  Uiso   1.00
O335   O     0.69944   0.70531   0.54597   0.00000  Uiso   1.00
O336   O     0.69358   0.68449   0.68502   0.00000  Uiso   1.00
O337   O     0.60137   0.70735   0.96414   0.00000  Uiso   1.00
O338   O     0.63700   0.67014   0.84701   0.00000  Uiso   1.00
O339   O     0.66399   0.60622   0.75194   0.00000  Uiso   1.00
O340   O     0.65370   0.63610   0.58620   0.00000  Uiso   1.00
O341   O     0.67493   0.72228   0.94611   0.00000  Uiso   1.00
O342   O     0.71377   0.65972   0.81849   0.00000  Uiso   1.00
C343   C     0.58877   0.66863   0.70870   0.00000  Uiso   1.00
C344   C     0.69791   0.77139   0.79101   0.00000  Uiso   1.00
Mo345  Mo    0.61574   0.78454   0.56566   0.00000  Uiso   1.00
Mo346  Mo    0.58580   0.81771   0.86477   0.00000  Uiso   1.00
Mo347  Mo    0.57650   0.84763   0.69610   0.00000  Uiso   1.00
O348   O     0.62541   0.81847   0.75988   0.00000  Uiso   1.00
O349   O     0.58375   0.76869   0.67504   0.00000  Uiso   1.00
O350   O     0.64855   0.80249   0.50560   0.00000  Uiso   1.00
O351   O     0.61288   0.83862   0.62099   0.00000  Uiso   1.00
O352   O     0.55105   0.80345   0.92423   0.00000  Uiso   1.00
O353   O     0.55637   0.82414   0.78304   0.00000  Uiso   1.00
O354   O     0.53628   0.85010   0.65063   0.00000  Uiso   1.00
O355   O     0.57476   0.78685   0.52358   0.00000  Uiso   1.00
O356   O     0.59620   0.87263   0.88365   0.00000  Uiso   1.00
O357   O     0.58663   0.90253   0.71763   0.00000  Uiso   1.00
C358   C     0.55258   0.73773   0.68000   0.00000  Uiso   1.00
C359   C     0.66130   0.84130   0.76197   0.00000  Uiso   1.00
Co360  Co    0.62493   0.75435   0.73414   0.00000  Uiso   1.00
O361   O     0.65901   0.76537   0.64869   0.00000  Uiso   1.00
O362   O     0.59054   0.74312   0.81977   0.00000  Uiso   1.00
O363   O     0.62190   0.71982   0.56630   0.00000  Uiso   1.00
O364   O     0.62935   0.78985   0.90117   0.00000  Uiso   1.00
N365   N     0.52303   0.67179   0.73024   0.00000  Uiso   1.00
C366   C     0.55669   0.69920   0.73226   0.00000  Uiso   1.00
C367   C     0.55846   0.71537   0.80937   0.00000  Uiso   1.00
C368   C     0.69336   0.80978   0.73669   0.00000  Uiso   1.00
C369   C     0.69139   0.79392   0.66199   0.00000  Uiso   1.00
N370   N     0.51848   0.33774   0.74841   0.00000  Uiso   1.00
N371   N     0.72159   0.17183   0.76324   0.00000  Uiso   1.00
C372   C     0.51266   0.37869   0.77337   0.00000  Uiso   1.00
C373   C     0.47662   0.40234   0.76572   0.00000  Uiso   1.00
C374   C     0.72620   0.13125   0.73616   0.00000  Uiso   1.00
C375   C     0.47129   0.44590   0.79543   0.00000  Uiso   1.00
C376   C     0.43759   0.46910   0.78873   0.00000  Uiso   1.00
C377   C     0.40865   0.44909   0.75218   0.00000  Uiso   1.00
C378   C     0.41383   0.40565   0.72250   0.00000  Uiso   1.00
C379   C     0.44752   0.38245   0.72919   0.00000  Uiso   1.00
C380   C     0.83548   0.05280   0.74877   0.00000  Uiso   1.00
C381   C     0.80199   0.03146   0.71301   0.00000  Uiso   1.00
C382   C     0.76516   0.05781   0.70942   0.00000  Uiso   1.00
C383   C     0.76174   0.10600   0.74083   0.00000  Uiso   1.00
C384   C     0.79511   0.12765   0.77616   0.00000  Uiso   1.00
C385   C     0.83186   0.10111   0.78025   0.00000  Uiso   1.00
Mo386  Mo    0.61223   0.22376   0.58837   0.00000  Uiso   1.00
Mo387  Mo    0.58050   0.19314   0.88760   0.00000  Uiso   1.00
Mo388  Mo    0.57179   0.16213   0.71925   0.00000  Uiso   1.00
O389   O     0.62062   0.19112   0.78342   0.00000  Uiso   1.00
O390   O     0.57985   0.24081   0.69690   0.00000  Uiso   1.00
O391   O     0.64517   0.20495   0.52921   0.00000  Uiso   1.00
O392   O     0.60860   0.17012   0.64462   0.00000  Uiso   1.00
O393   O     0.54559   0.20828   0.94618   0.00000  Uiso   1.00
O394   O     0.55143   0.18650   0.80543   0.00000  Uiso   1.00
O395   O     0.53180   0.15984   0.67307   0.00000  Uiso   1.00
O396   O     0.57146   0.22166   0.54556   0.00000  Uiso   1.00
O397   O     0.59031   0.13823   0.90766   0.00000  Uiso   1.00
O398   O     0.58131   0.10726   0.74195   0.00000  Uiso   1.00
C399   C     0.54895   0.27220   0.70074   0.00000  Uiso   1.00
C400   C     0.65627   0.16784   0.78658   0.00000  Uiso   1.00
Mo401  Mo    0.66158   0.31646   0.62627   0.00000  Uiso   1.00
Mo402  Mo    0.62985   0.28585   0.92550   0.00000  Uiso   1.00
Mo403  Mo    0.67038   0.34734   0.79498   0.00000  Uiso   1.00
O404   O     0.66220   0.26923   0.81536   0.00000  Uiso   1.00
O405   O     0.62136   0.31879   0.72879   0.00000  Uiso   1.00
O406   O     0.69670   0.30176   0.56879   0.00000  Uiso   1.00
O407   O     0.69033   0.32366   0.70740   0.00000  Uiso   1.00
O408   O     0.59655   0.30401   0.98532   0.00000  Uiso   1.00
O409   O     0.63309   0.33990   0.86815   0.00000  Uiso   1.00
O410   O     0.66112   0.40279   0.77240   0.00000  Uiso   1.00
O411   O     0.65140   0.37184   0.60697   0.00000  Uiso   1.00
O412   O     0.67003   0.28800   0.96890   0.00000  Uiso   1.00
O413   O     0.71006   0.34913   0.84084   0.00000  Uiso   1.00
C414   C     0.58559   0.34104   0.72889   0.00000  Uiso   1.00
C415   C     0.69334   0.23748   0.81506   0.00000  Uiso   1.00
Co416  Co    0.62083   0.25505   0.75652   0.00000  Uiso   1.00
O417   O     0.65523   0.24297   0.67187   0.00000  Uiso   1.00
O418   O     0.58614   0.26734   0.84135   0.00000  Uiso   1.00
O419   O     0.61897   0.28839   0.58797   0.00000  Uiso   1.00
O420   O     0.62410   0.22071   0.92432   0.00000  Uiso   1.00
C421   C     0.55314   0.31105   0.75241   0.00000  Uiso   1.00
C422   C     0.55437   0.29542   0.82986   0.00000  Uiso   1.00
C423   C     0.68872   0.19876   0.76132   0.00000  Uiso   1.00
C424   C     0.68728   0.21411   0.68628   0.00000  Uiso   1.00
N425   N     0.01848   0.83774   0.74841   0.00000  Uiso   1.00
C426   C     0.01266   0.87869   0.77337   0.00000  Uiso   1.00
C427   C     0.22620   0.63125   0.73616   0.00000  Uiso   1.00
C428   C     0.33548   0.55280   0.74877   0.00000  Uiso   1.00
C429   C     0.30122   0.53080   0.78636   0.00000  Uiso   1.00
C430   C     0.26306   0.55439   0.78585   0.00000  Uiso   1.00
C431   C     0.25881   0.59993   0.74688   0.00000  Uiso   1.00
C432   C     0.29281   0.62193   0.70883   0.00000  Uiso   1.00
C433   C     0.33105   0.59850   0.70987   0.00000  Uiso   1.00
C434   C     0.97752   0.90429   0.76512   0.00000  Uiso   1.00
C435   C     0.97576   0.94687   0.73134   0.00000  Uiso   1.00
C436   C     0.94161   0.96910   0.72491   0.00000  Uiso   1.00
C437   C     0.90865   0.94909   0.75218   0.00000  Uiso   1.00
C438   C     0.91028   0.90665   0.78595   0.00000  Uiso   1.00
C439   C     0.94442   0.88441   0.79239   0.00000  Uiso   1.00
Mo440  Mo    0.08020   0.69148   0.88916   0.00000  Uiso   1.00
Mo441  Mo    0.11014   0.72465   0.59006   0.00000  Uiso   1.00
Mo442  Mo    0.07081   0.66170   0.72015   0.00000  Uiso   1.00
O443   O     0.07819   0.74005   0.70103   0.00000  Uiso   1.00
O444   O     0.11993   0.69041   0.78593   0.00000  Uiso   1.00
O445   O     0.04523   0.70531   0.94751   0.00000  Uiso   1.00
O446   O     0.05109   0.68449   0.80846   0.00000  Uiso   1.00
O447   O     0.14330   0.70735   0.52934   0.00000  Uiso   1.00
O448   O     0.10767   0.67014   0.64647   0.00000  Uiso   1.00
O449   O     0.08068   0.60622   0.74155   0.00000  Uiso   1.00
O450   O     0.09097   0.63610   0.90728   0.00000  Uiso   1.00
O451   O     0.06974   0.72228   0.54737   0.00000  Uiso   1.00
O452   O     0.03090   0.65972   0.67499   0.00000  Uiso   1.00
C453   C     0.15590   0.66863   0.78478   0.00000  Uiso   1.00
C454   C     0.04676   0.77139   0.70247   0.00000  Uiso   1.00
Mo455  Mo    0.12893   0.78454   0.92782   0.00000  Uiso   1.00
Mo456  Mo    0.15886   0.81771   0.62872   0.00000  Uiso   1.00
Mo457  Mo    0.16817   0.84763   0.79738   0.00000  Uiso   1.00
O458   O     0.11925   0.81847   0.73361   0.00000  Uiso   1.00
O459   O     0.16092   0.76869   0.81845   0.00000  Uiso   1.00
O460   O     0.09611   0.80249   0.98788   0.00000  Uiso   1.00
O461   O     0.13179   0.83862   0.87249   0.00000  Uiso   1.00
O462   O     0.19362   0.80345   0.56926   0.00000  Uiso   1.00
O463   O     0.18830   0.82414   0.71044   0.00000  Uiso   1.00
O464   O     0.20839   0.85010   0.84285   0.00000  Uiso   1.00
O465   O     0.16991   0.78685   0.96990   0.00000  Uiso   1.00
O466   O     0.14847   0.87263   0.60983   0.00000  Uiso   1.00
O467   O     0.15804   0.90253   0.77585   0.00000  Uiso   1.00
C468   C     0.19209   0.73773   0.81349   0.00000  Uiso   1.00
C469   C     0.08337   0.84130   0.73151   0.00000  Uiso   1.00
Co470  Co    0.11974   0.75435   0.75935   0.00000  Uiso   1.00
O471   O     0.08566   0.76537   0.84479   0.00000  Uiso   1.00
O472   O     0.15413   0.74312   0.67371   0.00000  Uiso   1.00
O473   O     0.12277   0.71982   0.92718   0.00000  Uiso   1.00
O474   O     0.11532   0.78985   0.59231   0.00000  Uiso   1.00
N475   N     0.22164   0.67179   0.76324   0.00000  Uiso   1.00
C476   C     0.18798   0.69920   0.76122   0.00000  Uiso   1.00
C477   C     0.18621   0.71537   0.68411   0.00000  Uiso   1.00
C478   C     0.05131   0.80978   0.75679   0.00000  Uiso   1.00
C479   C     0.05328   0.79392   0.83149   0.00000  Uiso   1.00
N480   N     0.22619   0.33774   0.74508   0.00000  Uiso   1.00
N481   N     0.02308   0.17183   0.73025   0.00000  Uiso   1.00
C482   C     0.23201   0.37869   0.72012   0.00000  Uiso   1.00
C483   C     0.26805   0.40234   0.72776   0.00000  Uiso   1.00
C484   C     0.01847   0.13125   0.75732   0.00000  Uiso   1.00
C485   C     0.27338   0.44590   0.69805   0.00000  Uiso   1.00
C486   C     0.30708   0.46910   0.70475   0.00000  Uiso   1.00
C487   C     0.33601   0.44909   0.74130   0.00000  Uiso   1.00
C488   C     0.33084   0.40565   0.77099   0.00000  Uiso   1.00
C489   C     0.29715   0.38245   0.76429   0.00000  Uiso   1.00
C490   C     0.90919   0.05280   0.74471   0.00000  Uiso   1.00
C491   C     0.94268   0.03146   0.78047   0.00000  Uiso   1.00
C492   C     0.97951   0.05781   0.78407   0.00000  Uiso   1.00
C493   C     0.98293   0.10600   0.75266   0.00000  Uiso   1.00
C494   C     0.94956   0.12765   0.71733   0.00000  Uiso   1.00
C495   C     0.91281   0.10111   0.71323   0.00000  Uiso   1.00
Mo496  Mo    0.13244   0.22376   0.90511   0.00000  Uiso   1.00
Mo497  Mo    0.16417   0.19314   0.60589   0.00000  Uiso   1.00
Mo498  Mo    0.17288   0.16213   0.77423   0.00000  Uiso   1.00
O499   O     0.12405   0.19112   0.71006   0.00000  Uiso   1.00
O500   O     0.16482   0.24081   0.79658   0.00000  Uiso   1.00
O501   O     0.09950   0.20495   0.96427   0.00000  Uiso   1.00
O502   O     0.13606   0.17012   0.84886   0.00000  Uiso   1.00
O503   O     0.19908   0.20828   0.54730   0.00000  Uiso   1.00
O504   O     0.19324   0.18650   0.68806   0.00000  Uiso   1.00
O505   O     0.21287   0.15984   0.82042   0.00000  Uiso   1.00
O506   O     0.17321   0.22166   0.94792   0.00000  Uiso   1.00
O507   O     0.15436   0.13823   0.58583   0.00000  Uiso   1.00
O508   O     0.16336   0.10726   0.75154   0.00000  Uiso   1.00
C509   C     0.19572   0.27220   0.79274   0.00000  Uiso   1.00
C510   C     0.08840   0.16784   0.70690   0.00000  Uiso   1.00
Mo511  Mo    0.08309   0.31646   0.86721   0.00000  Uiso   1.00
Mo512  Mo    0.11482   0.28585   0.56798   0.00000  Uiso   1.00
Mo513  Mo    0.07429   0.34734   0.69850   0.00000  Uiso   1.00
O514   O     0.08247   0.26923   0.67812   0.00000  Uiso   1.00
O515   O     0.12331   0.31879   0.76470   0.00000  Uiso   1.00
O516   O     0.04797   0.30176   0.92469   0.00000  Uiso   1.00
O517   O     0.05434   0.32366   0.78608   0.00000  Uiso   1.00
O518   O     0.14812   0.30401   0.50816   0.00000  Uiso   1.00
O519   O     0.11158   0.33990   0.62533   0.00000  Uiso   1.00
O520   O     0.08355   0.40279   0.72108   0.00000  Uiso   1.00
O521   O     0.09327   0.37184   0.88652   0.00000  Uiso   1.00
O522   O     0.07464   0.28800   0.52458   0.00000  Uiso   1.00
O523   O     0.03461   0.34913   0.65264   0.00000  Uiso   1.00
C524   C     0.15908   0.34104   0.76460   0.00000  Uiso   1.00
C525   C     0.05133   0.23748   0.67843   0.00000  Uiso   1.00
Co526  Co    0.12384   0.25505   0.73696   0.00000  Uiso   1.00
O527   O     0.08944   0.24297   0.82161   0.00000  Uiso   1.00
O528   O     0.15853   0.26734   0.65213   0.00000  Uiso   1.00
O529   O     0.12570   0.28839   0.90552   0.00000  Uiso   1.00
O530   O     0.12057   0.22071   0.56917   0.00000  Uiso   1.00
C531   C     0.19153   0.31105   0.74108   0.00000  Uiso   1.00
C532   C     0.19030   0.29542   0.66362   0.00000  Uiso   1.00
C533   C     0.05595   0.19876   0.73216   0.00000  Uiso   1.00
C534   C     0.05739   0.21411   0.80720   0.00000  Uiso   1.00
C535   C     0.87233   0.97358   0.74674   0.00000  Uiso   1.00
C536   C     0.87233   0.02642   0.74674   0.00000  Uiso   1.00
C537   C     0.37233   0.52642   0.74674   0.00000  Uiso   1.00
C538   C     0.37233   0.47358   0.74674   0.00000  Uiso   1.00
H539   H     0.70889   0.89696   0.68952   0.00000  Uiso   1.00
H540   H     0.54234   0.61961   0.79249   0.00000  Uiso   1.00
H541   H     0.44012   0.49591   0.67813   0.00000  Uiso   1.00
H542   H     0.50731   0.53772   0.67847   0.00000  Uiso   1.00
H543   H     0.45519   0.65654   0.81437   0.00000  Uiso   1.00
H544   H     0.38785   0.61531   0.81235   0.00000  Uiso   1.00
H545   H     0.74155   0.96370   0.78497   0.00000  Uiso   1.00
H546   H     0.80429   0.00455   0.79678   0.00000  Uiso   1.00
H547   H     0.86169   0.88971   0.68463   0.00000  Uiso   1.00
H548   H     0.79903   0.84898   0.67286   0.00000  Uiso   1.00
H549   H     0.58945   0.63664   0.74501   0.00000  Uiso   1.00
H550   H     0.58238   0.65603   0.65343   0.00000  Uiso   1.00
H551   H     0.72523   0.75080   0.77779   0.00000  Uiso   1.00
H552   H     0.70016   0.78858   0.84493   0.00000  Uiso   1.00
H553   H     0.54853   0.72132   0.62603   0.00000  Uiso   1.00
H554   H     0.52564   0.75822   0.69630   0.00000  Uiso   1.00
H555   H     0.66633   0.85262   0.81842   0.00000  Uiso   1.00
H556   H     0.66131   0.87391   0.72684   0.00000  Uiso   1.00
H557   H     0.55939   0.68300   0.84490   0.00000  Uiso   1.00
H558   H     0.53190   0.73699   0.82434   0.00000  Uiso   1.00
H559   H     0.71839   0.77308   0.64720   0.00000  Uiso   1.00
H560   H     0.69004   0.82605   0.62607   0.00000  Uiso   1.00
H561   H     0.53613   0.39744   0.80243   0.00000  Uiso   1.00
H562   H     0.70194   0.11394   0.70735   0.00000  Uiso   1.00
H563   H     0.49513   0.46280   0.82585   0.00000  Uiso   1.00
H564   H     0.43321   0.50543   0.81355   0.00000  Uiso   1.00
H565   H     0.38996   0.38880   0.69211   0.00000  Uiso   1.00
H566   H     0.45189   0.34611   0.70441   0.00000  Uiso   1.00
H567   H     0.80493   0.99485   0.68854   0.00000  Uiso   1.00
H568   H     0.73989   0.04111   0.68281   0.00000  Uiso   1.00
H569   H     0.79249   0.16448   0.80001   0.00000  Uiso   1.00
H570   H     0.85705   0.11767   0.80730   0.00000  Uiso   1.00
H571   H     0.52186   0.25156   0.71557   0.00000  Uiso   1.00
H572   H     0.54546   0.28925   0.64704   0.00000  Uiso   1.00
H573   H     0.65582   0.13475   0.75248   0.00000  Uiso   1.00
H574   H     0.66128   0.15722   0.84333   0.00000  Uiso   1.00
H575   H     0.58046   0.35401   0.67327   0.00000  Uiso   1.00
H576   H     0.58559   0.37280   0.76572   0.00000  Uiso   1.00
H577   H     0.69518   0.22104   0.86958   0.00000  Uiso   1.00
H578   H     0.72095   0.25738   0.80148   0.00000  Uiso   1.00
H579   H     0.52733   0.27464   0.84456   0.00000  Uiso   1.00
H580   H     0.55575   0.32787   0.86512   0.00000  Uiso   1.00
H581   H     0.68661   0.18140   0.65142   0.00000  Uiso   1.00
H582   H     0.71402   0.23537   0.67127   0.00000  Uiso   1.00
H583   H     0.03578   0.89696   0.80396   0.00000  Uiso   1.00
H584   H     0.20233   0.61961   0.70100   0.00000  Uiso   1.00
H585   H     0.30455   0.49591   0.81535   0.00000  Uiso   1.00
H586   H     0.23736   0.53772   0.81502   0.00000  Uiso   1.00
H587   H     0.28948   0.65654   0.67912   0.00000  Uiso   1.00
H588   H     0.35682   0.61531   0.68113   0.00000  Uiso   1.00
H589   H     0.00312   0.96370   0.70852   0.00000  Uiso   1.00
H590   H     0.94038   0.00455   0.69671   0.00000  Uiso   1.00
H591   H     0.88298   0.88971   0.80886   0.00000  Uiso   1.00
H592   H     0.94564   0.84898   0.82063   0.00000  Uiso   1.00
H593   H     0.15522   0.63664   0.74847   0.00000  Uiso   1.00
H594   H     0.16228   0.65603   0.84006   0.00000  Uiso   1.00
H595   H     0.01944   0.75080   0.71570   0.00000  Uiso   1.00
H596   H     0.04451   0.78858   0.64855   0.00000  Uiso   1.00
H597   H     0.19614   0.72132   0.86745   0.00000  Uiso   1.00
H598   H     0.21903   0.75822   0.79718   0.00000  Uiso   1.00
H599   H     0.07834   0.85262   0.67506   0.00000  Uiso   1.00
H600   H     0.08335   0.87391   0.76665   0.00000  Uiso   1.00
H601   H     0.18528   0.68300   0.64858   0.00000  Uiso   1.00
H602   H     0.21277   0.73699   0.66915   0.00000  Uiso   1.00
H603   H     0.02628   0.77308   0.84628   0.00000  Uiso   1.00
H604   H     0.05463   0.82605   0.86741   0.00000  Uiso   1.00
H605   H     0.20854   0.39744   0.69105   0.00000  Uiso   1.00
H606   H     0.04273   0.11394   0.78613   0.00000  Uiso   1.00
H607   H     0.24954   0.46280   0.66763   0.00000  Uiso   1.00
H608   H     0.31146   0.50543   0.67994   0.00000  Uiso   1.00
H609   H     0.35471   0.38880   0.80138   0.00000  Uiso   1.00
H610   H     0.29278   0.34611   0.78907   0.00000  Uiso   1.00
H611   H     0.93974   0.99485   0.80495   0.00000  Uiso   1.00
H612   H     0.00478   0.04111   0.81067   0.00000  Uiso   1.00
H613   H     0.95218   0.16448   0.69347   0.00000  Uiso   1.00
H614   H     0.88762   0.11767   0.68618   0.00000  Uiso   1.00
H615   H     0.22281   0.25156   0.77791   0.00000  Uiso   1.00
H616   H     0.19921   0.28925   0.84645   0.00000  Uiso   1.00
H617   H     0.08885   0.13475   0.74100   0.00000  Uiso   1.00
H618   H     0.08339   0.15722   0.65015   0.00000  Uiso   1.00
H619   H     0.16421   0.35401   0.82021   0.00000  Uiso   1.00
H620   H     0.15908   0.37280   0.72777   0.00000  Uiso   1.00
H621   H     0.04949   0.22104   0.62391   0.00000  Uiso   1.00
H622   H     0.02372   0.25738   0.69200   0.00000  Uiso   1.00
H623   H     0.21734   0.27464   0.64892   0.00000  Uiso   1.00
H624   H     0.18891   0.32787   0.62836   0.00000  Uiso   1.00
H625   H     0.05806   0.18140   0.84206   0.00000  Uiso   1.00
H626   H     0.03065   0.23537   0.82222   0.00000  Uiso   1.00
H627   H     0.86838   0.97358   0.80660   0.00000  Uiso   1.00
H628   H     0.87198   0.02642   0.80676   0.00000  Uiso   1.00
loop_
_geom_bond_atom_site_label_1
_geom_bond_atom_site_label_2
_geom_bond_distance
_geom_bond_site_symmetry_2
_ccdc_geom_bond_type
N1     C2      1.265   .     D
N1     C54     1.410   .     S
C2     C10     1.442   .     S
C2     H225    1.141   .     S
C3     C7      1.467   .     S
C3     N51     1.265   .     D
C3     H226    1.142   .     S
C4     C5      1.503   .     S
C4     C9      1.501   .     D
C4     C223    1.490   .     S
C5     C6      1.494   .     D
C5     H227    1.139   .     S
C6     C7      1.497   .     S
C6     H228    1.137   .     S
C7     C8      1.499   .     D
C8     C9      1.495   .     S
C8     H229    1.139   .     S
C9     H230    1.137   .     S
C10    C11     1.368   .     S
C10    C15     1.369   .     D
C11    C12     1.361   .     D
C11    H231    1.138   .     S
C12    C13     1.366   .     S
C12    H232    1.139   1_565 S
C13    C14     1.364   .     D
C13    C221    1.456   .     S
C14    C15     1.361   .     S
C14    H233    1.138   .     S
C15    H234    1.139   .     S
Mo16   O20     2.352   .     S
Mo16   O21     1.660   .     S
Mo16   O22     1.889   .     S
Mo16   O26     1.652   .     S
Mo16   O47     2.259   .     S
Mo16   O49     1.866   .     S
Mo17   O23     1.672   .     S
Mo17   O24     1.878   .     S
Mo17   O27     1.663   .     S
Mo17   O48     2.322   .     S
Mo17   O50     1.855   .     S
Mo18   O19     2.260   .     S
Mo18   O20     2.318   .     S
Mo18   O22     1.898   .     S
Mo18   O24     1.875   .     S
Mo18   O25     1.662   .     S
Mo18   O28     1.673   .     S
O19    C30     1.413   .     S
O19    Co46    1.911   .     S
O20    C29     1.401   .     S
O20    Co46    1.879   .     S
C29    C52     1.471   .     S
C29    H235    1.139   .     S
C29    H236    1.141   .     S
C30    C54     1.512   .     S
C30    H237    1.138   .     S
C30    H238    1.140   .     S
Mo31   O36     1.661   .     S
Mo31   O37     1.857   .     S
Mo31   O41     1.675   .     S
Mo31   O47     2.301   .     S
Mo31   O49     1.844   .     S
Mo32   O38     1.671   .     S
Mo32   O39     1.911   .     S
Mo32   O42     1.640   .     S
Mo32   O48     2.281   .     S
Mo32   O50     1.876   .     S
Mo33   O34     2.295   .     S
Mo33   O35     2.282   .     S
Mo33   O37     1.886   .     S
Mo33   O39     1.887   .     S
Mo33   O40     1.686   .     S
Mo33   O43     1.649   .     S
O34    C45     1.415   .     S
O34    Co46    1.880   .     S
O35    C44     1.399   .     S
O35    Co46    1.910   .     S
C44    C52     1.486   .     S
C44    H239    1.140   .     S
C44    H240    1.138   .     S
C45    C54     1.496   .     S
C45    H241    1.141   .     S
C45    H242    1.139   .     S
Co46   O47     1.995   .     S
Co46   O48     2.005   .     S
O47    C55     1.424   .     S
O48    C53     1.392   .     S
N51    C52     1.413   .     S
C52    C53     1.539   .     S
C53    H243    1.139   .     S
C53    H244    1.138   .     S
C54    C55     1.493   .     S
C55    H245    1.138   .     S
C55    H246    1.139   .     S
N56    C58     1.265   .     D
N56    C107    1.434   .     S
N57    C60     1.266   .     D
N57    C109    1.382   .     S
C58    C59     1.441   .     S
C58    H247    1.141   .     S
C59    C61     1.365   .     S
C59    C65     1.378   .     D
C60    C69     1.441   .     S
C60    H248    1.141   .     S
C61    C62     1.361   .     D
C61    H249    1.141   .     S
C62    C63     1.376   .     S
C62    H250    1.139   .     S
C63    C64     1.361   .     D
C63    C224    1.456   .     S
C64    C65     1.361   .     S
C64    H251    1.141   .     S
C65    H252    1.139   .     S
C66    C67     1.507   .     S
C66    C71     1.495   .     D
C66    C222    1.489   .     S
C67    C68     1.493   .     D
C67    H253    1.138   1_545 S
C68    C69     1.491   .     S
C68    H254    1.141   .     S
C69    C70     1.504   .     D
C70    C71     1.495   .     S
C70    H255    1.139   .     S
C71    H256    1.141   .     S
Mo72   O77     1.661   .     S
Mo72   O78     1.858   .     S
Mo72   O82     1.675   .     S
Mo72   O103    2.301   .     S
Mo72   O105    1.844   .     S
Mo73   O79     1.671   .     S
Mo73   O80     1.911   .     S
Mo73   O83     1.640   .     S
Mo73   O104    2.281   .     S
Mo73   O106    1.876   .     S
Mo74   O75     2.296   .     S
Mo74   O76     2.282   .     S
Mo74   O78     1.886   .     S
Mo74   O80     1.886   .     S
Mo74   O81     1.687   .     S
Mo74   O84     1.650   .     S
O75    C86     1.415   .     S
O75    Co102   1.880   .     S
O76    C85     1.399   .     S
O76    Co102   1.911   .     S
C85    C107    1.486   .     S
C85    H257    1.138   .     S
C85    H258    1.140   .     S
C86    C109    1.495   .     S
C86    H259    1.139   .     S
C86    H260    1.141   .     S
Mo87   O91     2.352   .     S
Mo87   O92     1.660   .     S
Mo87   O93     1.890   .     S
Mo87   O97     1.652   .     S
Mo87   O103    2.260   .     S
Mo87   O105    1.866   .     S
Mo88   O94     1.672   .     S
Mo88   O95     1.878   .     S
Mo88   O98     1.663   .     S
Mo88   O104    2.322   .     S
Mo88   O106    1.855   .     S
Mo89   O90     2.260   .     S
Mo89   O91     2.318   .     S
Mo89   O93     1.897   .     S
Mo89   O95     1.875   .     S
Mo89   O96     1.663   .     S
Mo89   O99     1.673   .     S
O90    C101    1.412   .     S
O90    Co102   1.912   .     S
O91    C100    1.401   .     S
O91    Co102   1.879   .     S
C100   C107    1.471   .     S
C100   H261    1.141   .     S
C100   H262    1.139   .     S
C101   C109    1.511   .     S
C101   H263    1.140   .     S
C101   H264    1.138   .     S
Co102  O103    1.994   .     S
Co102  O104    2.004   .     S
O103   C110    1.424   .     S
O104   C108    1.392   .     S
C107   C108    1.539   .     S
C108   H265    1.138   .     S
C108   H266    1.139   .     S
C109   C110    1.494   .     S
C110   H267    1.139   .     S
C110   H268    1.138   .     S
N111   C112    1.265   .     D
N111   C164    1.410   .     S
C112   H269    1.141   .     S
C112   C120    1.442   1_655 S
C113   C117    1.467   .     S
C113   N161    1.265   .     D
C113   H270    1.142   .     S
C114   C115    1.503   .     D
C114   C119    1.501   .     S
C114   C223    1.489   .     S
C115   C116    1.494   .     S
C115   H271    1.139   .     S
C116   C117    1.497   .     D
C116   H272    1.137   .     S
C117   C118    1.499   .     S
C118   C119    1.495   .     D
C118   H273    1.139   .     S
C119   H274    1.137   .     S
C120   C121    1.368   .     S
C120   C125    1.368   .     D
C120   C112    1.442   1_455 S
C121   C122    1.361   .     D
C121   H275    1.138   1_455 S
C122   C123    1.366   .     S
C122   H276    1.139   1_565 S
C123   C124    1.364   .     D
C123   C221    1.456   .     S
C124   C125    1.361   .     S
C124   H277    1.138   .     S
C125   H278    1.139   .     S
Mo126  O130    2.352   .     S
Mo126  O131    1.660   .     S
Mo126  O132    1.889   .     S
Mo126  O136    1.652   .     S
Mo126  O157    2.259   .     S
Mo126  O159    1.866   .     S
Mo127  O133    1.672   .     S
Mo127  O134    1.878   .     S
Mo127  O137    1.663   .     S
Mo127  O158    2.322   .     S
Mo127  O160    1.855   .     S
Mo128  O129    2.260   .     S
Mo128  O130    2.318   .     S
Mo128  O132    1.898   .     S
Mo128  O134    1.875   .     S
Mo128  O135    1.662   .     S
Mo128  O138    1.673   .     S
O129   C140    1.412   .     S
O129   Co156   1.911   .     S
O130   C139    1.401   .     S
O130   Co156   1.879   .     S
C139   C162    1.471   .     S
C139   H279    1.139   .     S
C139   H280    1.141   .     S
C140   C164    1.512   .     S
C140   H281    1.138   .     S
C140   H282    1.140   .     S
Mo141  O146    1.662   .     S
Mo141  O147    1.857   .     S
Mo141  O151    1.675   .     S
Mo141  O157    2.301   .     S
Mo141  O159    1.844   .     S
Mo142  O148    1.672   .     S
Mo142  O149    1.911   .     S
Mo142  O152    1.640   .     S
Mo142  O158    2.281   .     S
Mo142  O160    1.876   .     S
Mo143  O144    2.295   .     S
Mo143  O145    2.282   .     S
Mo143  O147    1.886   .     S
Mo143  O149    1.887   .     S
Mo143  O150    1.686   .     S
Mo143  O153    1.649   .     S
O144   C155    1.414   .     S
O144   Co156   1.880   .     S
O145   C154    1.399   .     S
O145   Co156   1.910   .     S
C154   C162    1.486   .     S
C154   H283    1.140   .     S
C154   H284    1.138   .     S
C155   C164    1.496   .     S
C155   H285    1.141   .     S
C155   H286    1.139   .     S
Co156  O157    1.995   .     S
Co156  O158    2.005   .     S
O157   C165    1.424   .     S
O158   C163    1.392   .     S
N161   C162    1.413   .     S
C162   C163    1.539   .     S
C163   H287    1.139   .     S
C163   H288    1.138   .     S
C164   C165    1.493   .     S
C165   H289    1.138   .     S
C165   H290    1.139   .     S
N166   C168    1.265   .     D
N166   C217    1.434   .     S
N167   C170    1.266   .     D
N167   C219    1.382   .     S
C168   C169    1.441   .     S
C168   H291    1.141   .     S
C169   C171    1.365   .     S
C169   C175    1.378   .     D
C170   H292    1.141   .     S
C170   C179    1.441   1_655 S
C171   C172    1.361   .     D
C171   H293    1.141   .     S
C172   C173    1.375   .     S
C172   H294    1.139   .     S
C173   C174    1.361   .     D
C173   C224    1.456   .     S
C174   C175    1.361   .     S
C174   H295    1.141   .     S
C175   H296    1.139   .     S
C176   C177    1.507   .     S
C176   C181    1.495   .     D
C176   C222    1.490   .     S
C177   C178    1.493   .     D
C177   H297    1.138   1_545 S
C178   C179    1.491   .     S
C178   H298    1.141   1_455 S
C179   C180    1.504   .     D
C179   C170    1.441   1_455 S
C180   C181    1.495   .     S
C180   H299    1.139   .     S
C181   H300    1.141   .     S
Mo182  O187    1.661   .     S
Mo182  O188    1.858   .     S
Mo182  O192    1.675   .     S
Mo182  O213    2.301   .     S
Mo182  O215    1.844   .     S
Mo183  O189    1.671   .     S
Mo183  O190    1.911   .     S
Mo183  O193    1.640   .     S
Mo183  O214    2.281   .     S
Mo183  O216    1.876   .     S
Mo184  O185    2.296   .     S
Mo184  O186    2.282   .     S
Mo184  O188    1.886   .     S
Mo184  O190    1.886   .     S
Mo184  O191    1.687   .     S
Mo184  O194    1.650   .     S
O185   C196    1.415   .     S
O185   Co212   1.880   .     S
O186   C195    1.399   .     S
O186   Co212   1.911   .     S
C195   C217    1.486   .     S
C195   H301    1.138   .     S
C195   H302    1.140   .     S
C196   C219    1.495   .     S
C196   H303    1.139   .     S
C196   H304    1.141   .     S
Mo197  O201    2.352   .     S
Mo197  O202    1.660   .     S
Mo197  O203    1.890   .     S
Mo197  O207    1.652   .     S
Mo197  O213    2.260   .     S
Mo197  O215    1.866   .     S
Mo198  O204    1.672   .     S
Mo198  O205    1.878   .     S
Mo198  O208    1.663   .     S
Mo198  O214    2.322   .     S
Mo198  O216    1.855   .     S
Mo199  O200    2.260   .     S
Mo199  O201    2.318   .     S
Mo199  O203    1.897   .     S
Mo199  O205    1.875   .     S
Mo199  O206    1.663   .     S
Mo199  O209    1.673   .     S
O200   C211    1.412   .     S
O200   Co212   1.912   .     S
O201   C210    1.401   .     S
O201   Co212   1.879   .     S
C210   C217    1.471   .     S
C210   H305    1.140   .     S
C210   H306    1.139   .     S
C211   C219    1.511   .     S
C211   H307    1.140   .     S
C211   H308    1.138   .     S
Co212  O213    1.994   .     S
Co212  O214    2.004   .     S
O213   C220    1.424   .     S
O214   C218    1.392   .     S
C217   C218    1.539   .     S
C218   H309    1.138   .     S
C218   H310    1.139   .     S
C219   C220    1.494   .     S
C220   H311    1.139   .     S
C220   H312    1.138   .     S
C221   H313    1.139   .     S
C221   C222    1.495   1_565 S
C222   H314    1.140   .     S
C222   C221    1.495   1_545 S
C223   C224    1.495   .     D
H232   C12     1.139   1_545 S
H253   C67     1.138   1_565 S
H275   C121    1.138   1_655 S
H276   C122    1.139   1_545 S
H297   C177    1.138   1_565 S
H298   C178    1.141   1_655 S
N315   C316    1.265   .     D
N315   C368    1.410   .     S
C316   C324    1.442   .     S
C316   H539    1.141   .     S
C317   C321    1.467   .     S
C317   N365    1.265   .     D
C317   H540    1.142   .     S
C318   C319    1.503   .     S
C318   C323    1.501   .     D
C318   C537    1.490   .     S
C319   C320    1.494   .     D
C319   H541    1.139   .     S
C320   C321    1.497   .     S
C320   H542    1.137   .     S
C321   C322    1.499   .     D
C322   C323    1.495   .     S
C322   H543    1.139   .     S
C323   H544    1.137   .     S
C324   C325    1.368   .     S
C324   C329    1.369   .     D
C325   C326    1.361   .     D
C325   H545    1.138   .     S
C326   C327    1.366   .     S
C326   H546    1.139   1_565 S
C327   C328    1.364   .     D
C327   C535    1.456   .     S
C328   C329    1.361   .     S
C328   H547    1.138   .     S
C329   H548    1.139   .     S
Mo330  O334    2.352   .     S
Mo330  O335    1.660   .     S
Mo330  O336    1.889   .     S
Mo330  O340    1.652   .     S
Mo330  O361    2.259   .     S
Mo330  O363    1.866   .     S
Mo331  O337    1.672   .     S
Mo331  O338    1.878   .     S
Mo331  O341    1.663   .     S
Mo331  O362    2.322   .     S
Mo331  O364    1.855   .     S
Mo332  O333    2.260   .     S
Mo332  O334    2.318   .     S
Mo332  O336    1.898   .     S
Mo332  O338    1.875   .     S
Mo332  O339    1.662   .     S
Mo332  O342    1.673   .     S
O333   C344    1.413   .     S
O333   Co360   1.911   .     S
O334   C343    1.401   .     S
O334   Co360   1.879   .     S
C343   C366    1.471   .     S
C343   H549    1.139   .     S
C343   H550    1.141   .     S
C344   C368    1.512   .     S
C344   H551    1.138   .     S
C344   H552    1.140   .     S
Mo345  O350    1.661   .     S
Mo345  O351    1.857   .     S
Mo345  O355    1.675   .     S
Mo345  O361    2.301   .     S
Mo345  O363    1.844   .     S
Mo346  O352    1.671   .     S
Mo346  O353    1.911   .     S
Mo346  O356    1.640   .     S
Mo346  O362    2.281   .     S
Mo346  O364    1.876   .     S
Mo347  O348    2.295   .     S
Mo347  O349    2.282   .     S
Mo347  O351    1.886   .     S
Mo347  O353    1.887   .     S
Mo347  O354    1.686   .     S
Mo347  O357    1.649   .     S
O348   C359    1.415   .     S
O348   Co360   1.880   .     S
O349   C358    1.399   .     S
O349   Co360   1.910   .     S
C358   C366    1.486   .     S
C358   H553    1.140   .     S
C358   H554    1.138   .     S
C359   C368    1.496   .     S
C359   H555    1.141   .     S
C359   H556    1.139   .     S
Co360  O361    1.995   .     S
Co360  O362    2.005   .     S
O361   C369    1.424   .     S
O362   C367    1.392   .     S
N365   C366    1.413   .     S
C366   C367    1.539   .     S
C367   H557    1.139   .     S
C367   H558    1.138   .     S
C368   C369    1.493   .     S
C369   H559    1.138   .     S
C369   H560    1.139   .     S
N370   C372    1.265   .     D
N370   C421    1.434   .     S
N371   C374    1.266   .     D
N371   C423    1.382   .     S
C372   C373    1.441   .     S
C372   H561    1.141   .     S
C373   C375    1.365   .     S
C373   C379    1.378   .     D
C374   C383    1.441   .     S
C374   H562    1.141   .     S
C375   C376    1.361   .     D
C375   H563    1.141   .     S
C376   C377    1.376   .     S
C376   H564    1.139   .     S
C377   C378    1.361   .     D
C377   C538    1.456   .     S
C378   C379    1.361   .     S
C378   H565    1.141   .     S
C379   H566    1.139   .     S
C380   C381    1.507   .     S
C380   C385    1.495   .     D
C380   C536    1.489   .     S
C381   C382    1.493   .     D
C381   H567    1.138   1_545 S
C382   C383    1.491   .     S
C382   H568    1.141   .     S
C383   C384    1.504   .     D
C384   C385    1.495   .     S
C384   H569    1.139   .     S
C385   H570    1.141   .     S
Mo386  O391    1.661   .     S
Mo386  O392    1.858   .     S
Mo386  O396    1.675   .     S
Mo386  O417    2.301   .     S
Mo386  O419    1.844   .     S
Mo387  O393    1.671   .     S
Mo387  O394    1.911   .     S
Mo387  O397    1.640   .     S
Mo387  O418    2.281   .     S
Mo387  O420    1.876   .     S
Mo388  O389    2.296   .     S
Mo388  O390    2.282   .     S
Mo388  O392    1.886   .     S
Mo388  O394    1.886   .     S
Mo388  O395    1.687   .     S
Mo388  O398    1.650   .     S
O389   C400    1.415   .     S
O389   Co416   1.880   .     S
O390   C399    1.399   .     S
O390   Co416   1.911   .     S
C399   C421    1.486   .     S
C399   H571    1.138   .     S
C399   H572    1.140   .     S
C400   C423    1.495   .     S
C400   H573    1.139   .     S
C400   H574    1.141   .     S
Mo401  O405    2.352   .     S
Mo401  O406    1.660   .     S
Mo401  O407    1.890   .     S
Mo401  O411    1.652   .     S
Mo401  O417    2.260   .     S
Mo401  O419    1.866   .     S
Mo402  O408    1.672   .     S
Mo402  O409    1.878   .     S
Mo402  O412    1.663   .     S
Mo402  O418    2.322   .     S
Mo402  O420    1.855   .     S
Mo403  O404    2.260   .     S
Mo403  O405    2.318   .     S
Mo403  O407    1.897   .     S
Mo403  O409    1.875   .     S
Mo403  O410    1.663   .     S
Mo403  O413    1.673   .     S
O404   C415    1.412   .     S
O404   Co416   1.912   .     S
O405   C414    1.401   .     S
O405   Co416   1.879   .     S
C414   C421    1.471   .     S
C414   H575    1.141   .     S
C414   H576    1.139   .     S
C415   C423    1.511   .     S
C415   H577    1.140   .     S
C415   H578    1.138   .     S
Co416  O417    1.994   .     S
Co416  O418    2.004   .     S
O417   C424    1.424   .     S
O418   C422    1.392   .     S
C421   C422    1.539   .     S
C422   H579    1.138   .     S
C422   H580    1.139   .     S
C423   C424    1.494   .     S
C424   H581    1.139   .     S
C424   H582    1.138   .     S
N425   C426    1.265   .     D
N425   C478    1.410   .     S
C426   H583    1.141   .     S
C426   C434    1.442   1_455 S
C427   C431    1.467   .     S
C427   N475    1.265   .     D
C427   H584    1.142   .     S
C428   C429    1.503   .     D
C428   C433    1.501   .     S
C428   C537    1.489   .     S
C429   C430    1.494   .     S
C429   H585    1.139   .     S
C430   C431    1.497   .     D
C430   H586    1.137   .     S
C431   C432    1.499   .     S
C432   C433    1.495   .     D
C432   H587    1.139   .     S
C433   H588    1.137   .     S
C434   C435    1.368   .     S
C434   C439    1.368   .     D
C434   C426    1.442   1_655 S
C435   C436    1.361   .     D
C435   H589    1.138   1_655 S
C436   C437    1.366   .     S
C436   H590    1.139   1_565 S
C437   C438    1.364   .     D
C437   C535    1.456   .     S
C438   C439    1.361   .     S
C438   H591    1.138   .     S
C439   H592    1.139   .     S
Mo440  O444    2.352   .     S
Mo440  O445    1.660   .     S
Mo440  O446    1.889   .     S
Mo440  O450    1.652   .     S
Mo440  O471    2.259   .     S
Mo440  O473    1.866   .     S
Mo441  O447    1.672   .     S
Mo441  O448    1.878   .     S
Mo441  O451    1.663   .     S
Mo441  O472    2.322   .     S
Mo441  O474    1.855   .     S
Mo442  O443    2.260   .     S
Mo442  O444    2.318   .     S
Mo442  O446    1.898   .     S
Mo442  O448    1.875   .     S
Mo442  O449    1.662   .     S
Mo442  O452    1.673   .     S
O443   C454    1.412   .     S
O443   Co470   1.911   .     S
O444   C453    1.401   .     S
O444   Co470   1.879   .     S
C453   C476    1.471   .     S
C453   H593    1.139   .     S
C453   H594    1.141   .     S
C454   C478    1.512   .     S
C454   H595    1.138   .     S
C454   H596    1.140   .     S
Mo455  O460    1.662   .     S
Mo455  O461    1.857   .     S
Mo455  O465    1.675   .     S
Mo455  O471    2.301   .     S
Mo455  O473    1.844   .     S
Mo456  O462    1.672   .     S
Mo456  O463    1.911   .     S
Mo456  O466    1.640   .     S
Mo456  O472    2.281   .     S
Mo456  O474    1.876   .     S
Mo457  O458    2.295   .     S
Mo457  O459    2.282   .     S
Mo457  O461    1.886   .     S
Mo457  O463    1.887   .     S
Mo457  O464    1.686   .     S
Mo457  O467    1.649   .     S
O458   C469    1.414   .     S
O458   Co470   1.880   .     S
O459   C468    1.399   .     S
O459   Co470   1.910   .     S
C468   C476    1.486   .     S
C468   H597    1.140   .     S
C468   H598    1.138   .     S
C469   C478    1.496   .     S
C469   H599    1.141   .     S
C469   H600    1.139   .     S
Co470  O471    1.995   .     S
Co470  O472    2.005   .     S
O471   C479    1.424   .     S
O472   C477    1.392   .     S
N475   C476    1.413   .     S
C476   C477    1.539   .     S
C477   H601    1.139   .     S
C477   H602    1.138   .     S
C478   C479    1.493   .     S
C479   H603    1.138   .     S
C479   H604    1.139   .     S
N480   C482    1.265   .     D
N480   C531    1.434   .     S
N481   C484    1.266   .     D
N481   C533    1.382   .     S
C482   C483    1.441   .     S
C482   H605    1.141   .     S
C483   C485    1.365   .     S
C483   C489    1.378   .     D
C484   H606    1.141   .     S
C484   C493    1.441   1_455 S
C485   C486    1.361   .     D
C485   H607    1.141   .     S
C486   C487    1.375   .     S
C486   H608    1.139   .     S
C487   C488    1.361   .     D
C487   C538    1.456   .     S
C488   C489    1.361   .     S
C488   H609    1.141   .     S
C489   H610    1.139   .     S
C490   C491    1.507   .     S
C490   C495    1.495   .     D
C490   C536    1.490   .     S
C491   C492    1.493   .     D
C491   H611    1.138   1_545 S
C492   C493    1.491   .     S
C492   H612    1.141   1_655 S
C493   C494    1.504   .     D
C493   C484    1.441   1_655 S
C494   C495    1.495   .     S
C494   H613    1.139   .     S
C495   H614    1.141   .     S
Mo496  O501    1.661   .     S
Mo496  O502    1.858   .     S
Mo496  O506    1.675   .     S
Mo496  O527    2.301   .     S
Mo496  O529    1.844   .     S
Mo497  O503    1.671   .     S
Mo497  O504    1.911   .     S
Mo497  O507    1.640   .     S
Mo497  O528    2.281   .     S
Mo497  O530    1.876   .     S
Mo498  O499    2.296   .     S
Mo498  O500    2.282   .     S
Mo498  O502    1.886   .     S
Mo498  O504    1.886   .     S
Mo498  O505    1.687   .     S
Mo498  O508    1.650   .     S
O499   C510    1.415   .     S
O499   Co526   1.880   .     S
O500   C509    1.399   .     S
O500   Co526   1.911   .     S
C509   C531    1.486   .     S
C509   H615    1.138   .     S
C509   H616    1.140   .     S
C510   C533    1.495   .     S
C510   H617    1.139   .     S
C510   H618    1.141   .     S
Mo511  O515    2.352   .     S
Mo511  O516    1.660   .     S
Mo511  O517    1.890   .     S
Mo511  O521    1.652   .     S
Mo511  O527    2.260   .     S
Mo511  O529    1.866   .     S
Mo512  O518    1.672   .     S
Mo512  O519    1.878   .     S
Mo512  O522    1.663   .     S
Mo512  O528    2.322   .     S
Mo512  O530    1.855   .     S
Mo513  O514    2.260   .     S
Mo513  O515    2.318   .     S
Mo513  O517    1.897   .     S
Mo513  O519    1.875   .     S
Mo513  O520    1.663   .     S
Mo513  O523    1.673   .     S
O514   C525    1.412   .     S
O514   Co526   1.912   .     S
O515   C524    1.401   .     S
O515   Co526   1.879   .     S
C524   C531    1.471   .     S
C524   H619    1.140   .     S
C524   H620    1.139   .     S
C525   C533    1.511   .     S
C525   H621    1.140   .     S
C525   H622    1.138   .     S
Co526  O527    1.994   .     S
Co526  O528    2.004   .     S
O527   C534    1.424   .     S
O528   C532    1.392   .     S
C531   C532    1.539   .     S
C532   H623    1.138   .     S
C532   H624    1.139   .     S
C533   C534    1.494   .     S
C534   H625    1.139   .     S
C534   H626    1.138   .     S
C535   H627    1.139   .     S
C535   C536    1.495   1_565 S
C536   H628    1.140   .     S
C536   C535    1.495   1_545 S
C537   C538    1.495   .     D
H546   C326    1.139   1_545 S
H567   C381    1.138   1_565 S
H589   C435    1.138   1_455 S
H590   C436    1.139   1_545 S
H611   C491    1.138   1_565 S
H612   C492    1.141   1_455 S
