data_1146
_audit_creation_date              2023-09-08
_audit_creation_method            'Materials Studio'
_symmetry_space_group_name_H-M    'P1'
_symmetry_Int_Tables_number       1
_symmetry_cell_setting            triclinic
loop_
_symmetry_equiv_pos_as_xyz
  x,y,z
_cell_length_a                    30.0700
_cell_length_b                    32.3500
_cell_length_c                    12.9600
_cell_angle_alpha                 92.6200
_cell_angle_beta                  88.2400
_cell_angle_gamma                 117.7300
loop_
_atom_site_label
_atom_site_type_symbol
_atom_site_fract_x
_atom_site_fract_y
_atom_site_fract_z
_atom_site_U_iso_or_equiv
_atom_site_adp_type
_atom_site_occupancy
C11    C     0.45884   0.51376   0.82922   0.00000  Uiso   1.00
C22    C     0.48503   0.94343   0.82224   0.00000  Uiso   1.00
C33    C     0.05658   0.54160   0.82219   0.00000  Uiso   1.00
C104   C     0.45547   0.46836   0.87324   0.00000  Uiso   1.00
C115   C     0.53213   0.98591   0.87026   0.00000  Uiso   1.00
C126   C     0.01415   0.54631   0.87016   0.00000  Uiso   1.00
C197   C     0.53127   0.51651   0.87181   0.00000  Uiso   1.00
C208   C     0.48257   0.01507   0.86876   0.00000  Uiso   1.00
C219   C     0.98489   0.46750   0.86862   0.00000  Uiso   1.00
C2810  C     0.51306   0.54872   0.83010   0.00000  Uiso   1.00
C2911  C     0.45015   0.96326   0.82291   0.00000  Uiso   1.00
C3012  C     0.03671   0.48689   0.82286   0.00000  Uiso   1.00
C3713  C     0.49496   0.48630   0.95318   0.00000  Uiso   1.00
C3814  C     0.51352   0.00820   0.95013   0.00000  Uiso   1.00
C3915  C     0.99178   0.50536   0.95026   0.00000  Uiso   1.00
C4616  C     0.47106   0.44582   0.78914   0.00000  Uiso   1.00
C4717  C     0.55420   0.02463   0.78146   0.00000  Uiso   1.00
C4818  C     0.97544   0.52967   0.78137   0.00000  Uiso   1.00
C5519  C     0.52551   0.48093   0.78682   0.00000  Uiso   1.00
C5620  C     0.51924   0.04459   0.77931   0.00000  Uiso   1.00
C5721  C     0.95540   0.47474   0.77922   0.00000  Uiso   1.00
C6422  C     0.48084   0.40626   0.81577   0.00000  Uiso   1.00
C6523  C     0.59374   0.07459   0.81398   0.00000  Uiso   1.00
C6624  C     0.92553   0.51935   0.81393   0.00000  Uiso   1.00
C7325  C     0.46017   0.35834   0.77845   0.00000  Uiso   1.00
C7426  C     0.64191   0.10255   0.77904   0.00000  Uiso   1.00
C7527  C     0.89764   0.53965   0.77903   0.00000  Uiso   1.00
C8228  C     0.49236   0.34127   0.75251   0.00000  Uiso   1.00
C8329  C     0.65890   0.15195   0.75487   0.00000  Uiso   1.00
C8430  C     0.84823   0.50732   0.75486   0.00000  Uiso   1.00
C9131  C     0.54318   0.37446   0.74754   0.00000  Uiso   1.00
C9232  C     0.62576   0.16963   0.74941   0.00000  Uiso   1.00
C9333  C     0.83045   0.45648   0.74939   0.00000  Uiso   1.00
C10034 C     0.56159   0.42415   0.76953   0.00000  Uiso   1.00
C10135 C     0.57592   0.13847   0.76998   0.00000  Uiso   1.00
C10236 C     0.86153   0.43771   0.76994   0.00000  Uiso   1.00
C10937 C     0.52974   0.43792   0.81121   0.00000  Uiso   1.00
C11038 C     0.56155   0.09260   0.81057   0.00000  Uiso   1.00
C11139 C     0.90743   0.46913   0.81050   0.00000  Uiso   1.00
C11840 C     0.42198   0.56511   0.88767   0.00000  Uiso   1.00
C11941 C     0.43438   0.85575   0.88891   0.00000  Uiso   1.00
C12042 C     0.14424   0.57860   0.88890   0.00000  Uiso   1.00
C12743 C     0.45509   0.54885   0.89851   0.00000  Uiso   1.00
C12844 C     0.45122   0.90524   0.89781   0.00000  Uiso   1.00
C12945 C     0.09474   0.54596   0.89780   0.00000  Uiso   1.00
C13646 C     0.50431   0.58066   0.90133   0.00000  Uiso   1.00
C13747 C     0.41881   0.92331   0.89997   0.00000  Uiso   1.00
C13848 C     0.07665   0.49548   0.89996   0.00000  Uiso   1.00
C14549 C     0.52332   0.63120   0.89405   0.00000  Uiso   1.00
C14650 C     0.36831   0.89160   0.89553   0.00000  Uiso   1.00
C14751 C     0.10835   0.47667   0.89549   0.00000  Uiso   1.00
C15452 C     0.49025   0.64875   0.89098   0.00000  Uiso   1.00
C15553 C     0.35087   0.84101   0.89423   0.00000  Uiso   1.00
C15654 C     0.15895   0.50982   0.89406   0.00000  Uiso   1.00
C16355 C     0.43945   0.61548   0.88520   0.00000  Uiso   1.00
C16456 C     0.38394   0.82323   0.88801   0.00000  Uiso   1.00
C16557 C     0.17674   0.56066   0.88785   0.00000  Uiso   1.00
C17258 C     0.57722   0.66565   0.88660   0.00000  Uiso   1.00
C17359 C     0.33363   0.91079   0.88851   0.00000  Uiso   1.00
C17460 C     0.08914   0.42280   0.88856   0.00000  Uiso   1.00
C18161 C     0.40601   0.32685   0.76577   0.00000  Uiso   1.00
C18262 C     0.67369   0.08024   0.76596   0.00000  Uiso   1.00
C18363 C     0.92005   0.59375   0.76599   0.00000  Uiso   1.00
C19064 C     0.37997   0.66859   0.73310   0.00000  Uiso   1.00
C19165 C     0.33098   0.71141   0.73456   0.00000  Uiso   1.00
C19266 C     0.28823   0.61965   0.73348   0.00000  Uiso   1.00
C19967 C     0.37803   0.71341   0.71279   0.00000  Uiso   1.00
C20068 C     0.28626   0.66478   0.71268   0.00000  Uiso   1.00
C20169 C     0.33484   0.62165   0.71105   0.00000  Uiso   1.00
O170   O     0.41551   0.75258   0.69872   0.00000  Uiso   1.00
O271   O     0.24711   0.66313   0.69865   0.00000  Uiso   1.00
O372   O     0.33644   0.58421   0.69550   0.00000  Uiso   1.00
C20873 C     0.41506   0.67101   0.79695   0.00000  Uiso   1.00
C20974 C     0.32826   0.74364   0.79933   0.00000  Uiso   1.00
C21075 C     0.25614   0.58463   0.79832   0.00000  Uiso   1.00
N176   N     0.40511   0.63134   0.86657   0.00000  Uiso   1.00
N277   N     0.36758   0.77288   0.87013   0.00000  Uiso   1.00
N378   N     0.22708   0.59463   0.86986   0.00000  Uiso   1.00
C21779 C     0.61693   0.32646   0.82117   0.00000  Uiso   1.00
C21880 C     0.67358   0.29151   0.82251   0.00000  Uiso   1.00
C21981 C     0.70851   0.38309   0.82253   0.00000  Uiso   1.00
C22682 C     0.62409   0.28452   0.83900   0.00000  Uiso   1.00
C22783 C     0.71544   0.34064   0.84043   0.00000  Uiso   1.00
C22884 C     0.65932   0.37588   0.83916   0.00000  Uiso   1.00
O1085  O     0.58933   0.24414   0.85943   0.00000  Uiso   1.00
O1186  O     0.75578   0.34635   0.86172   0.00000  Uiso   1.00
O1287  O     0.65356   0.41055   0.85968   0.00000  Uiso   1.00
C23588 C     0.57638   0.31965   0.77228   0.00000  Uiso   1.00
C23689 C     0.68058   0.25769   0.77462   0.00000  Uiso   1.00
C23790 C     0.74242   0.42369   0.77416   0.00000  Uiso   1.00
N1091  N     0.57607   0.35861   0.71572   0.00000  Uiso   1.00
N1192  N     0.64185   0.21843   0.71756   0.00000  Uiso   1.00
N1293  N     0.78161   0.42385   0.71762   0.00000  Uiso   1.00
H194   H     0.43943   0.50798   0.75460   0.00000  Uiso   1.00
H295   H     0.48880   0.92911   0.74416   0.00000  Uiso   1.00
H396   H     0.07093   0.55969   0.74412   0.00000  Uiso   1.00
H1097  H     0.41949   0.44314   0.90389   0.00000  Uiso   1.00
H1198  H     0.55785   0.97494   0.90292   0.00000  Uiso   1.00
H1299  H     0.02516   0.58303   0.90274   0.00000  Uiso   1.00
H19100 H     0.56845   0.53715   0.90078   0.00000  Uiso   1.00
H20101 H     0.46181   0.03222   0.89994   0.00000  Uiso   1.00
H21102 H     0.96770   0.42958   0.89969   0.00000  Uiso   1.00
H28103 H     0.53040   0.56667   0.75610   0.00000  Uiso   1.00
H29104 H     0.43228   0.96101   0.74531   0.00000  Uiso   1.00
H30105 H     0.03896   0.47127   0.74526   0.00000  Uiso   1.00
H37106 H     0.49143   0.50521   1.02153   0.00000  Uiso   1.00
H38107 H     0.49435  -0.01429   1.01807   0.00000  Uiso   1.00
H39108 H     1.01431   0.50865   1.01838   0.00000  Uiso   1.00
H46109 H     0.50062   0.45916   0.99343   0.00000  Uiso   1.00
H47110 H     0.54093   0.04095   0.98983   0.00000  Uiso   1.00
H48111 H     0.95893   0.50002   0.99002   0.00000  Uiso   1.00
H55112 H     0.45085   0.43909   0.71542   0.00000  Uiso   1.00
H56113 H     0.56028   0.01215   0.70328   0.00000  Uiso   1.00
H57114 H     0.98793   0.54823   0.70319   0.00000  Uiso   1.00
H64115 H     0.54249   0.49798   0.71189   0.00000  Uiso   1.00
H65116 H     0.50359   0.04432   0.69998   0.00000  Uiso   1.00
H66117 H     0.95564   0.45935   0.69988   0.00000  Uiso   1.00
H73118 H     0.47815   0.30358   0.72944   0.00000  Uiso   1.00
H74119 H     0.69672   0.17565   0.73301   0.00000  Uiso   1.00
H75120 H     0.82459   0.52151   0.73302   0.00000  Uiso   1.00
H82121 H     0.59930   0.45119   0.75371   0.00000  Uiso   1.00
H83122 H     0.54917   0.14946   0.75355   0.00000  Uiso   1.00
H84123 H     0.85046   0.39994   0.75352   0.00000  Uiso   1.00
H91124 H     0.38408   0.53929   0.87017   0.00000  Uiso   1.00
H92125 H     0.45978   0.84318   0.87106   0.00000  Uiso   1.00
H93126 H     0.15682   0.61658   0.87108   0.00000  Uiso   1.00
H100127 H     0.50406   0.68771   0.88755   0.00000  Uiso   1.00
H101128 H     0.31189   0.81584   0.89233   0.00000  Uiso   1.00
H102129 H     0.18412   0.49601   0.89209   0.00000  Uiso   1.00
H109130 H     0.58591   0.68557   0.80996   0.00000  Uiso   1.00
H110131 H     0.31307   0.89882   0.81270   0.00000  Uiso   1.00
H111132 H     0.10109   0.41418   0.81276   0.00000  Uiso   1.00
H118133 H     0.59785   0.64575   0.89150   0.00000  Uiso   1.00
H119134 H     0.35343   0.95137   0.89182   0.00000  Uiso   1.00
H120135 H     0.04857   0.40203   0.89191   0.00000  Uiso   1.00
H127136 H     0.58913   0.69231   0.95294   0.00000  Uiso   1.00
H128137 H     0.30754   0.89649   0.95597   0.00000  Uiso   1.00
H129138 H     0.10345   0.41102   0.95604   0.00000  Uiso   1.00
H136139 H     0.39610   0.28950   0.73926   0.00000  Uiso   1.00
H137140 H     0.71112   0.10797   0.74065   0.00000  Uiso   1.00
H138141 H     0.89237   0.60353   0.74075   0.00000  Uiso   1.00
H145142 H     0.39269   0.34318   0.70580   0.00000  Uiso   1.00
H146143 H     0.65777   0.05101   0.70499   0.00000  Uiso   1.00
H147144 H     0.94927   0.60702   0.70498   0.00000  Uiso   1.00
H154145 H     0.38772   0.32397   0.84279   0.00000  Uiso   1.00
H155146 H     0.67623   0.06431   0.84257   0.00000  Uiso   1.00
H156147 H     0.93603   0.61220   0.84259   0.00000  Uiso   1.00
H163148 H     0.44778   0.70581   0.81068   0.00000  Uiso   1.00
H164149 H     0.29340   0.74149   0.81267   0.00000  Uiso   1.00
H165150 H     0.25831   0.55190   0.81113   0.00000  Uiso   1.00
H172151 H     0.36877   0.60703   0.88673   0.00000  Uiso   1.00
H173152 H     0.39169   0.76060   0.89022   0.00000  Uiso   1.00
H174153 H     0.23941   0.63100   0.89022   0.00000  Uiso   1.00
H181154 H     0.54530   0.28320   0.76323   0.00000  Uiso   1.00
H182155 H     0.71705   0.26300   0.76665   0.00000  Uiso   1.00
H183156 H     0.73716   0.45485   0.76513   0.00000  Uiso   1.00
H190157 H     0.60844   0.38427   0.67856   0.00000  Uiso   1.00
H191158 H     0.61647   0.22521   0.67932   0.00000  Uiso   1.00
H192159 H     0.77469   0.39152   0.67995   0.00000  Uiso   1.00
C7168  C     0.79213   0.18041   0.49658   0.00000  Uiso   1.00
C8169  C     0.81962   0.61176   0.49650   0.00000  Uiso   1.00
C9170  C     0.38824   0.20777   0.49604   0.00000  Uiso   1.00
C16171 C     0.78883   0.13502   0.54047   0.00000  Uiso   1.00
C17172 C     0.86500   0.65384   0.54043   0.00000  Uiso   1.00
C18173 C     0.34620   0.21114   0.54002   0.00000  Uiso   1.00
C25174 C     0.86461   0.18321   0.53881   0.00000  Uiso   1.00
C26175 C     0.81681   0.68143   0.53879   0.00000  Uiso   1.00
C27176 C     0.31857   0.13535   0.53866   0.00000  Uiso   1.00
C34177 C     0.84634   0.21538   0.49725   0.00000  Uiso   1.00
C35178 C     0.78464   0.63100   0.49718   0.00000  Uiso   1.00
C36179 C     0.36898   0.15355   0.49697   0.00000  Uiso   1.00
C43180 C     0.82837   0.15297   0.62027   0.00000  Uiso   1.00
C44181 C     0.84704   0.67541   0.62024   0.00000  Uiso   1.00
C45182 C     0.32466   0.17168   0.61999   0.00000  Uiso   1.00
C52183 C     0.80438   0.11250   0.45622   0.00000  Uiso   1.00
C53184 C     0.88753   0.69193   0.45621   0.00000  Uiso   1.00
C54185 C     0.30807   0.19554   0.45591   0.00000  Uiso   1.00
C61186 C     0.85882   0.14764   0.45378   0.00000  Uiso   1.00
C62187 C     0.85238   0.71123   0.45378   0.00000  Uiso   1.00
C63188 C     0.28874   0.14109   0.45365   0.00000  Uiso   1.00
C70189 C     0.81426   0.07299   0.48267   0.00000  Uiso   1.00
C71190 C     0.92704   0.74132   0.48269   0.00000  Uiso   1.00
C72191 C     0.25871   0.18571   0.48250   0.00000  Uiso   1.00
C79192 C     0.79365   0.02507   0.44529   0.00000  Uiso   1.00
C80193 C     0.97495   0.76862   0.44530   0.00000  Uiso   1.00
C81194 C     0.23141   0.20632   0.44511   0.00000  Uiso   1.00
C88195 C     0.82589   0.00807   0.41930   0.00000  Uiso   1.00
C89196 C     0.99195   0.81785   0.41928   0.00000  Uiso   1.00
C90197 C     0.18216   0.17409   0.41918   0.00000  Uiso   1.00
C97198 C     0.87670   0.04132   0.41434   0.00000  Uiso   1.00
C98199 C     0.95871   0.83542   0.41432   0.00000  Uiso   1.00
C99200 C     0.16457   0.12328   0.41430   0.00000  Uiso   1.00
C106201 C     0.89505   0.09099   0.43638   0.00000  Uiso   1.00
C107202 C     0.90904   0.80410   0.43639   0.00000  Uiso   1.00
C108203 C     0.19588   0.10491   0.43642   0.00000  Uiso   1.00
C115204 C     0.86315   0.10469   0.47811   0.00000  Uiso   1.00
C116205 C     0.89534   0.75850   0.47813   0.00000  Uiso   1.00
C117206 C     0.24150   0.13682   0.47806   0.00000  Uiso   1.00
C124207 C     0.75533   0.23180   0.55544   0.00000  Uiso   1.00
C125208 C     0.76823   0.52356   0.55519   0.00000  Uiso   1.00
C126209 C     0.47646   0.24457   0.55457   0.00000  Uiso   1.00
C133210 C     0.78845   0.21551   0.56600   0.00000  Uiso   1.00
C134211 C     0.78450   0.57295   0.56587   0.00000  Uiso   1.00
C135212 C     0.42707   0.21149   0.56536   0.00000  Uiso   1.00
C142213 C     0.83767   0.24733   0.56858   0.00000  Uiso   1.00
C143214 C     0.75268   0.59035   0.56847   0.00000  Uiso   1.00
C144215 C     0.40964   0.16226   0.56822   0.00000  Uiso   1.00
C151216 C     0.85669   0.29787   0.56128   0.00000  Uiso   1.00
C152217 C     0.70215   0.55884   0.56107   0.00000  Uiso   1.00
C153218 C     0.44113   0.14321   0.56102   0.00000  Uiso   1.00
C160219 C     0.82363   0.31542   0.55845   0.00000  Uiso   1.00
C161220 C     0.68460   0.50822   0.55805   0.00000  Uiso   1.00
C162221 C     0.49176   0.17626   0.55804   0.00000  Uiso   1.00
C169222 C     0.77282   0.28217   0.55293   0.00000  Uiso   1.00
C170223 C     0.71786   0.49067   0.55250   0.00000  Uiso   1.00
C171224 C     0.50933   0.22706   0.55225   0.00000  Uiso   1.00
C178225 C     0.91059   0.33229   0.55343   0.00000  Uiso   1.00
C179226 C     0.66772   0.57831   0.55334   0.00000  Uiso   1.00
C180227 C     0.42164   0.08930   0.55353   0.00000  Uiso   1.00
C187228 C     0.73951  -0.00646   0.43252   0.00000  Uiso   1.00
C188229 C     1.00648   0.74600   0.43255   0.00000  Uiso   1.00
C189230 C     0.25403   0.26047   0.43231   0.00000  Uiso   1.00
C196231 C     0.71351   0.33508   0.39986   0.00000  Uiso   1.00
C197232 C     0.66495   0.37831   0.39966   0.00000  Uiso   1.00
C198233 C     0.62171   0.28650   0.39963   0.00000  Uiso   1.00
C205234 C     0.71184   0.37994   0.37823   0.00000  Uiso   1.00
C206235 C     0.62008   0.33177   0.37819   0.00000  Uiso   1.00
C207236 C     0.66827   0.28818   0.37829   0.00000  Uiso   1.00
O7237  O     0.74942   0.41892   0.36338   0.00000  Uiso   1.00
O8238  O     0.58109   0.33036   0.36337   0.00000  Uiso   1.00
O9239  O     0.66970   0.25061   0.36358   0.00000  Uiso   1.00
C214240 C     0.74851   0.33760   0.46417   0.00000  Uiso   1.00
C215241 C     0.66246   0.41090   0.46368   0.00000  Uiso   1.00
C216242 C     0.58911   0.25141   0.46361   0.00000  Uiso   1.00
N7243  N     0.73852   0.29807   0.53426   0.00000  Uiso   1.00
N8244  N     0.70198   0.44048   0.53376   0.00000  Uiso   1.00
N9245  N     0.55954   0.26136   0.53367   0.00000  Uiso   1.00
C223246 C     0.95070  -0.00690   0.48616   0.00000  Uiso   1.00
C224247 C     0.00690  -0.04238   0.48614   0.00000  Uiso   1.00
C225248 C     0.04239   0.04930   0.48616   0.00000  Uiso   1.00
C232249 C     0.95759  -0.04903   0.50345   0.00000  Uiso   1.00
C233250 C     0.04903   0.00664   0.50348   0.00000  Uiso   1.00
C234251 C    -0.00664   0.04241   0.50349   0.00000  Uiso   1.00
O16252 O     0.92278  -0.08927   0.52460   0.00000  Uiso   1.00
O17253 O     0.08927   0.01207   0.52466   0.00000  Uiso   1.00
O18254 O    -0.01207   0.07722   0.52469   0.00000  Uiso   1.00
C241255 C     0.90998  -0.01348   0.43850   0.00000  Uiso   1.00
C242256 C     0.01349  -0.07651   0.43846   0.00000  Uiso   1.00
C243257 C     0.07651   0.09001   0.43846   0.00000  Uiso   1.00
N16258 N     0.90965   0.02557   0.38237   0.00000  Uiso   1.00
N17259 N     0.97446   0.88412   0.38231   0.00000  Uiso   1.00
N18260 N     0.11587   0.09034   0.38231   0.00000  Uiso   1.00
H7261  H     0.77264   0.17462   0.42207   0.00000  Uiso   1.00
H8262  H     0.82541   0.59808   0.42197   0.00000  Uiso   1.00
H9263  H     0.40189   0.22718   0.42143   0.00000  Uiso   1.00
H16264 H     0.75287   0.10977   0.57122   0.00000  Uiso   1.00
H17265 H     0.89024   0.64312   0.57118   0.00000  Uiso   1.00
H18266 H     0.35697   0.24713   0.57062   0.00000  Uiso   1.00
H25267 H     0.90181   0.20387   0.56767   0.00000  Uiso   1.00
H26268 H     0.79614   0.69796   0.56766   0.00000  Uiso   1.00
H27269 H     0.30203   0.09818   0.56768   0.00000  Uiso   1.00
H34270 H     0.86361   0.23332   0.42318   0.00000  Uiso   1.00
H35271 H     0.76671   0.63034   0.42311   0.00000  Uiso   1.00
H36272 H     0.36959   0.13620   0.42298   0.00000  Uiso   1.00
H43273 H     0.82487   0.17187   0.68869   0.00000  Uiso   1.00
H44274 H     0.82814   0.65301   0.68864   0.00000  Uiso   1.00
H45275 H     0.34709   0.17522   0.68836   0.00000  Uiso   1.00
H52276 H     0.83408   0.12584   0.66042   0.00000  Uiso   1.00
H53277 H     0.87416   0.70825   0.66042   0.00000  Uiso   1.00
H54278 H     0.29185   0.16602   0.66022   0.00000  Uiso   1.00
H61279 H     0.78413   0.10577   0.38257   0.00000  Uiso   1.00
H62280 H     0.89426   0.67842   0.38256   0.00000  Uiso   1.00
H63281 H     0.32154   0.21573   0.38217   0.00000  Uiso   1.00
H70282 H     0.87575   0.16470   0.37882   0.00000  Uiso   1.00
H71283 H     0.83533   0.71111   0.37881   0.00000  Uiso   1.00
H72284 H     0.28882   0.12410   0.37874   0.00000  Uiso   1.00
H79285 H     0.81172  -0.02960   0.39613   0.00000  Uiso   1.00
H80286 H     1.02963   0.84135   0.39609   0.00000  Uiso   1.00
H81287 H     0.15866   0.18827   0.39601   0.00000  Uiso   1.00
H88288 H     0.93275   0.11806   0.42058   0.00000  Uiso   1.00
H89289 H     0.88197   0.81472   0.42059   0.00000  Uiso   1.00
H90290 H     0.18524   0.06721   0.42069   0.00000  Uiso   1.00
H97291 H     0.71740   0.20598   0.53813   0.00000  Uiso   1.00
H98292 H     0.79406   0.51146   0.53792   0.00000  Uiso   1.00
H99293 H     0.48858   0.28248   0.53701   0.00000  Uiso   1.00
H106294 H     0.83745   0.35439   0.55494   0.00000  Uiso   1.00
H107295 H     0.64563   0.48307   0.55447   0.00000  Uiso   1.00
H108296 H     0.51690   0.16243   0.55468   0.00000  Uiso   1.00
H115297 H     0.91917   0.35213   0.47670   0.00000  Uiso   1.00
H116298 H     0.64788   0.56710   0.47660   0.00000  Uiso   1.00
H117299 H     0.43288   0.08061   0.47692   0.00000  Uiso   1.00
H124300 H     0.93121   0.31238   0.55822   0.00000  Uiso   1.00
H125301 H     0.68763   0.61884   0.55824   0.00000  Uiso   1.00
H126302 H     0.38111   0.06871   0.55833   0.00000  Uiso   1.00
H133303 H     0.92261   0.35902   0.61965   0.00000  Uiso   1.00
H134304 H     0.64099   0.56356   0.61955   0.00000  Uiso   1.00
H135305 H     0.43633   0.07735   0.61991   0.00000  Uiso   1.00
H142306 H     0.72964  -0.04379   0.40604   0.00000  Uiso   1.00
H143307 H     1.04382   0.77346   0.40606   0.00000  Uiso   1.00
H144308 H     0.22657   0.27034   0.40576   0.00000  Uiso   1.00
H151309 H     0.72618   0.00985   0.37249   0.00000  Uiso   1.00
H152310 H     0.99018   0.71637   0.37252   0.00000  Uiso   1.00
H153311 H     0.28367   0.27379   0.37232   0.00000  Uiso   1.00
H160312 H     0.72117  -0.00936   0.50950   0.00000  Uiso   1.00
H161313 H     1.00938   0.73057   0.50953   0.00000  Uiso   1.00
H162314 H     0.26944   0.27881   0.50930   0.00000  Uiso   1.00
H169315 H     0.78126   0.37240   0.47761   0.00000  Uiso   1.00
H170316 H     0.62767   0.40890   0.47696   0.00000  Uiso   1.00
H171317 H     0.59111   0.21862   0.47692   0.00000  Uiso   1.00
H178318 H     0.70218   0.27386   0.55462   0.00000  Uiso   1.00
H179319 H     0.72619   0.42836   0.55420   0.00000  Uiso   1.00
H180320 H     0.57165   0.29768   0.55407   0.00000  Uiso   1.00
H187321 H     0.87868  -0.04984   0.43013   0.00000  Uiso   1.00
H188322 H     0.04986  -0.07144   0.43010   0.00000  Uiso   1.00
H189323 H     0.07144   0.12131   0.43006   0.00000  Uiso   1.00
H196324 H     0.94196   0.05126   0.34505   0.00000  Uiso   1.00
H197325 H     0.94876   0.89072   0.34499   0.00000  Uiso   1.00
H198326 H     0.10926   0.05803   0.34500   0.00000  Uiso   1.00
C4335  C     0.12557   0.84727   0.16295   0.00000  Uiso   1.00
C5336  C     0.15288   0.27842   0.16272   0.00000  Uiso   1.00
C6337  C     0.72172   0.87444   0.16298   0.00000  Uiso   1.00
C13338 C     0.12222   0.80191   0.20716   0.00000  Uiso   1.00
C14339 C     0.19829   0.32046   0.20670   0.00000  Uiso   1.00
C15340 C     0.67968   0.87776   0.20715   0.00000  Uiso   1.00
C22341 C     0.19801   0.85007   0.20556   0.00000  Uiso   1.00
C23342 C     0.15012   0.34809   0.20536   0.00000  Uiso   1.00
C24343 C     0.65207   0.80197   0.20543   0.00000  Uiso   1.00
C31344 C     0.17978   0.88223   0.16372   0.00000  Uiso   1.00
C32345 C     0.11792   0.29768   0.16365   0.00000  Uiso   1.00
C33346 C     0.70248   0.82023   0.16368   0.00000  Uiso   1.00
C40347 C     0.16173   0.81992   0.28705   0.00000  Uiso   1.00
C41348 C     0.18036   0.34199   0.28668   0.00000  Uiso   1.00
C42349 C     0.65816   0.83822   0.28696   0.00000  Uiso   1.00
C49350 C     0.13778   0.77928   0.12319   0.00000  Uiso   1.00
C50351 C     0.22081   0.35860   0.12259   0.00000  Uiso   1.00
C51352 C     0.64153   0.86222   0.12312   0.00000  Uiso   1.00
C58353 C     0.19223   0.81442   0.12075   0.00000  Uiso   1.00
C59354 C     0.18569   0.37792   0.12036   0.00000  Uiso   1.00
C60355 C     0.62222   0.80778   0.12057   0.00000  Uiso   1.00
C67356 C     0.14764   0.73979   0.15005   0.00000  Uiso   1.00
C68357 C     0.26035   0.40796   0.14919   0.00000  Uiso   1.00
C69358 C     0.59217   0.85235   0.14991   0.00000  Uiso   1.00
C76359 C     0.12702   0.69181   0.11310   0.00000  Uiso   1.00
C77360 C     0.30825   0.43527   0.11175   0.00000  Uiso   1.00
C78361 C     0.56483   0.87300   0.11298   0.00000  Uiso   1.00
C85362 C     0.15925   0.67476   0.08745   0.00000  Uiso   1.00
C86363 C     0.32526   0.48451   0.08582   0.00000  Uiso   1.00
C87364 C     0.51557   0.84079   0.08717   0.00000  Uiso   1.00
C94365 C     0.21007   0.70800   0.08244   0.00000  Uiso   1.00
C95366 C     0.29202   0.50209   0.08101   0.00000  Uiso   1.00
C96367 C     0.49799   0.78998   0.08197   0.00000  Uiso   1.00
C103368 C     0.22842   0.75770   0.10407   0.00000  Uiso   1.00
C104369 C     0.24236   0.47078   0.10319   0.00000  Uiso   1.00
C105370 C     0.52933   0.77160   0.10359   0.00000  Uiso   1.00
C112371 C     0.19652   0.77148   0.14544   0.00000  Uiso   1.00
C113372 C     0.22866   0.42516   0.14479   0.00000  Uiso   1.00
C114373 C     0.57497   0.80347   0.14515   0.00000  Uiso   1.00
C121374 C     0.08879   0.89875   0.22130   0.00000  Uiso   1.00
C122375 C     0.10145   0.19019   0.22124   0.00000  Uiso   1.00
C123376 C     0.80996   0.91122   0.22141   0.00000  Uiso   1.00
C130377 C     0.12188   0.88245   0.23211   0.00000  Uiso   1.00
C131378 C     0.11776   0.23959   0.23203   0.00000  Uiso   1.00
C132379 C     0.76057   0.87812   0.23218   0.00000  Uiso   1.00
C139380 C     0.17110   0.91424   0.23486   0.00000  Uiso   1.00
C140381 C     0.08596   0.25702   0.23489   0.00000  Uiso   1.00
C141382 C     0.74315   0.82890   0.23488   0.00000  Uiso   1.00
C148383 C     0.19016   0.96478   0.22755   0.00000  Uiso   1.00
C149384 C     0.03542   0.22553   0.22767   0.00000  Uiso   1.00
C150385 C     0.77465   0.80986   0.22756   0.00000  Uiso   1.00
C157386 C     0.15711   0.98237   0.22458   0.00000  Uiso   1.00
C158387 C     0.01783   0.17490   0.22468   0.00000  Uiso   1.00
C159388 C     0.82527   0.84292   0.22462   0.00000  Uiso   1.00
C166389 C     0.10631   0.94913   0.21888   0.00000  Uiso   1.00
C167390 C     0.05107   0.15733   0.21890   0.00000  Uiso   1.00
C168391 C     0.84283   0.89372   0.21896   0.00000  Uiso   1.00
C175392 C     0.24407   0.99919   0.22000   0.00000  Uiso   1.00
C176393 C     0.00102   0.24504   0.22013   0.00000  Uiso   1.00
C177394 C     0.75516   0.75596   0.21998   0.00000  Uiso   1.00
C184395 C     0.07287   0.66025   0.10054   0.00000  Uiso   1.00
C185396 C     0.33979   0.41266   0.09894   0.00000  Uiso   1.00
C186397 C     0.58743   0.92716   0.10061   0.00000  Uiso   1.00
C193398 C     0.04688   1.00196   0.06592   0.00000  Uiso   1.00
C194399 C     0.99817   1.04504   0.06604   0.00000  Uiso   1.00
C195400 C     0.95508   0.95323   0.06602   0.00000  Uiso   1.00
C202401 C     0.04510   1.04677   0.04446   0.00000  Uiso   1.00
C203402 C     0.95334   0.99844   0.04465   0.00000  Uiso   1.00
C204403 C     1.00167   0.95501   0.04446   0.00000  Uiso   1.00
O4404  O     0.08264   1.08580   0.02969   0.00000  Uiso   1.00
O5405  O     0.91430   0.99695   0.03002   0.00000  Uiso   1.00
O6406  O     1.00317   0.91747   0.02973   0.00000  Uiso   1.00
C211407 C     0.08195   1.00453   0.13006   0.00000  Uiso   1.00
C212408 C     0.99563   1.07756   0.13017   0.00000  Uiso   1.00
C213409 C     0.92258   0.91813   0.13011   0.00000  Uiso   1.00
N4410  N     0.07202   0.96505   0.20026   0.00000  Uiso   1.00
N5411  N     0.03514   0.10712   0.20028   0.00000  Uiso   1.00
N6412  N     0.89304   0.92803   0.20037   0.00000  Uiso   1.00
C220413 C     0.28408   0.65968   0.15425   0.00000  Uiso   1.00
C221414 C     0.34028   0.62419   0.15331   0.00000  Uiso   1.00
C222415 C     0.37579   0.71588   0.15409   0.00000  Uiso   1.00
C229416 C     0.29099   0.61753   0.17101   0.00000  Uiso   1.00
C230417 C     0.38242   0.67318   0.17088   0.00000  Uiso   1.00
C231418 C     0.32677   0.70897   0.17161   0.00000  Uiso   1.00
O13419 O     0.25618   0.57725   0.19197   0.00000  Uiso   1.00
O14420 O     0.42266   0.67856   0.19186   0.00000  Uiso   1.00
O15421 O     0.32136   0.74379   0.19295   0.00000  Uiso   1.00
C238422 C     0.24331   0.65316   0.10695   0.00000  Uiso   1.00
C239423 C     0.34685   0.59014   0.10519   0.00000  Uiso   1.00
C240424 C     0.40995   0.75668   0.10673   0.00000  Uiso   1.00
N13425 N     0.24303   0.69221   0.05074   0.00000  Uiso   1.00
N14426 N     0.30777   0.55080   0.04909   0.00000  Uiso   1.00
N15427 N     0.44925   0.75706   0.05020   0.00000  Uiso   1.00
H4428  H     0.10612   0.84144   0.08837   0.00000  Uiso   1.00
H5429  H     0.15864   0.26477   0.08811   0.00000  Uiso   1.00
H6430  H     0.73535   0.89391   0.08843   0.00000  Uiso   1.00
H13431 H     0.08624   0.77671   0.23788   0.00000  Uiso   1.00
H14432 H     0.22352   0.30970   0.23729   0.00000  Uiso   1.00
H15433 H     0.69044   0.91372   0.23793   0.00000  Uiso   1.00
H22434 H     0.23520   0.87074   0.23446   0.00000  Uiso   1.00
H23435 H     0.12949   0.36462   0.23439   0.00000  Uiso   1.00
H24436 H     0.63554   0.76477   0.23427   0.00000  Uiso   1.00
H31437 H     0.19710   0.90013   0.08966   0.00000  Uiso   1.00
H32438 H     0.09997   0.29708   0.08966   0.00000  Uiso   1.00
H33439 H     0.70309   0.80294   0.08961   0.00000  Uiso   1.00
H40440 H     0.15822   0.83888   0.35532   0.00000  Uiso   1.00
H41441 H     0.16147   0.31956   0.35504   0.00000  Uiso   1.00
H42442 H     0.68061   0.84171   0.35527   0.00000  Uiso   1.00
H49443 H     0.16741   0.79282   0.32742   0.00000  Uiso   1.00
H50444 H     0.20751   0.37480   0.32692   0.00000  Uiso   1.00
H51445 H     0.62536   0.83251   0.32729   0.00000  Uiso   1.00
H58446 H     0.11755   0.77246   0.04949   0.00000  Uiso   1.00
H59447 H     0.22753   0.34513   0.04885   0.00000  Uiso   1.00
H60448 H     0.65497   0.88250   0.04947   0.00000  Uiso   1.00
H67449 H     0.20918   0.83139   0.04574   0.00000  Uiso   1.00
H68450 H     0.16862   0.37785   0.04545   0.00000  Uiso   1.00
H69451 H     0.62230   0.79087   0.04554   0.00000  Uiso   1.00
H76452 H     0.14508   0.63705   0.06456   0.00000  Uiso   1.00
H77453 H     0.36292   0.50801   0.06261   0.00000  Uiso   1.00
H78454 H     0.49204   0.85498   0.06433   0.00000  Uiso   1.00
H85455 H     0.26612   0.78475   0.08821   0.00000  Uiso   1.00
H86456 H     0.21529   0.48142   0.08756   0.00000  Uiso   1.00
H87457 H     0.51868   0.73392   0.08758   0.00000  Uiso   1.00
H94458 H     0.05088   0.87296   0.20382   0.00000  Uiso   1.00
H95459 H     0.12723   0.17807   0.20368   0.00000  Uiso   1.00
H96460 H     0.82206   0.94914   0.20395   0.00000  Uiso   1.00
H103461 H     0.17094   1.02134   0.22116   0.00000  Uiso   1.00
H104462 H    -0.02114   0.14976   0.22131   0.00000  Uiso   1.00
H105463 H     0.85043   0.82910   0.22117   0.00000  Uiso   1.00
H112464 H     0.25275   1.01912   0.14338   0.00000  Uiso   1.00
H113465 H    -0.01890   0.23380   0.14350   0.00000  Uiso   1.00
H114466 H     0.76642   0.74729   0.14335   0.00000  Uiso   1.00
H121467 H     0.26466   0.97925   0.22478   0.00000  Uiso   1.00
H122468 H     0.02096   0.28557   0.22493   0.00000  Uiso   1.00
H123469 H     0.71463   0.73536   0.22476   0.00000  Uiso   1.00
H130470 H     0.25604   1.02584   0.28636   0.00000  Uiso   1.00
H131471 H    -0.02564   0.23035   0.28648   0.00000  Uiso   1.00
H132472 H     0.76985   0.74399   0.28634   0.00000  Uiso   1.00
H139473 H     0.06298   0.62284   0.07453   0.00000  Uiso   1.00
H140474 H     0.37711   0.44012   0.07237   0.00000  Uiso   1.00
H141475 H     0.55993   0.93707   0.07460   0.00000  Uiso   1.00
H148476 H     0.05951   0.67641   0.04024   0.00000  Uiso   1.00
H149477 H     0.32346   0.38301   0.03897   0.00000  Uiso   1.00
H150478 H     0.61698   0.94056   0.04038   0.00000  Uiso   1.00
H157479 H     0.05458   0.65754   0.17748   0.00000  Uiso   1.00
H158480 H     0.34274   0.39726   0.17593   0.00000  Uiso   1.00
H159481 H     0.60297   0.94539   0.17763   0.00000  Uiso   1.00
H166482 H     0.11471   1.03934   0.14339   0.00000  Uiso   1.00
H167483 H     0.96082   1.07551   0.14356   0.00000  Uiso   1.00
H168484 H     0.92465   0.88537   0.14335   0.00000  Uiso   1.00
H175485 H     0.03569   0.94084   0.22067   0.00000  Uiso   1.00
H176486 H     0.05936   0.09500   0.22061   0.00000  Uiso   1.00
H177487 H     0.90515   0.96435   0.22082   0.00000  Uiso   1.00
H184488 H     0.21198   0.61682   0.09865   0.00000  Uiso   1.00
H185489 H     0.38322   0.59524   0.09652   0.00000  Uiso   1.00
H186490 H     0.40492   0.78802   0.09881   0.00000  Uiso   1.00
H193491 H     0.27533   0.71787   0.01340   0.00000  Uiso   1.00
H194492 H     0.28204   0.55743   0.01203   0.00000  Uiso   1.00
H195493 H     0.44260   0.72480   0.01257   0.00000  Uiso   1.00
loop_
_geom_bond_atom_site_label_1
_geom_bond_atom_site_label_2
_geom_bond_distance
_geom_bond_site_symmetry_2
_ccdc_geom_bond_type
C11    C104    1.558   .     S
C11    C2810   1.490   .     S
C11    C12743  1.459   .     S
C11    H194    1.108   .     S
C22    C115    1.564   .     S
C22    C2911   1.462   .     S
C22    C12844  1.549   .     S
C22    H295    1.118   .     S
C33    C126    1.470   .     S
C33    C3012   1.583   .     S
C33    C12945  1.484   .     S
C33    H396    1.160   .     S
C104   C3713   1.483   .     S
C104   C4616   1.467   .     S
C104   H1097   1.084   .     S
C115   H1198   1.092   .     S
C115   C3814   1.475   1_565 S
C115   C4717   1.626   1_565 S
C126   H1299   1.138   .     S
C126   C3915   1.593   1_455 S
C126   C4818   1.553   1_455 S
C197   C2810   1.509   .     S
C197   C3713   1.513   .     S
C197   C5519   1.509   .     S
C197   H19100  1.070   .     S
C208   C3814   1.517   .     S
C208   C5620   1.586   .     S
C208   H20101  1.071   .     S
C208   C2911   1.593   1_545 S
C219   C3915   1.524   .     S
C219   C5721   1.570   .     S
C219   H21102  1.173   .     S
C219   C3012   1.497   1_655 S
C2810  C13646  1.463   .     S
C2810  H28103  1.126   .     S
C2911  C13747  1.576   .     S
C2911  H29104  1.138   .     S
C2911  C208    1.593   1_565 S
C3012  C13848  1.502   .     S
C3012  H30105  1.119   .     S
C3012  C219    1.497   1_455 S
C3713  H37106  1.084   .     S
C3713  H46109  1.122   .     S
C3814  H38107  1.129   .     S
C3814  H47110  1.109   .     S
C3814  C115    1.475   1_545 S
C3915  H39108  1.100   .     S
C3915  H48111  1.044   .     S
C3915  C126    1.593   1_655 S
C4616  C5519   1.497   .     S
C4616  C6422   1.497   .     S
C4616  H55112  1.106   .     S
C4717  C5620   1.469   .     S
C4717  C6523   1.544   .     S
C4717  H56113  1.115   .     S
C4717  C115    1.626   1_545 S
C4818  C5721   1.588   .     S
C4818  C6624   1.432   .     S
C4818  H57114  1.162   .     S
C4818  C126    1.553   1_655 S
C5519  C10937  1.503   .     S
C5519  H64115  1.124   .     S
C5620  C11038  1.527   .     S
C5620  H65116  1.142   .     S
C5721  C11139  1.416   .     S
C5721  H66117  1.123   .     S
C6422  C7325   1.441   .     D
C6422  C10937  1.347   .     S
C6523  C7426   1.378   .     D
C6523  C11038  1.345   .     S
C6624  C7527   1.379   .     D
C6624  C11139  1.452   .     S
C7325  C8228   1.347   .     S
C7325  C18161  1.475   .     S
C7426  C8329   1.480   .     S
C7426  C18262  1.443   .     S
C7527  C8430   1.397   .     S
C7527  C18363  1.571   .     S
C8228  C9131   1.402   .     D
C8228  H73118  1.117   .     S
C8329  C9232   1.365   .     D
C8329  H74119  1.072   .     S
C8430  C9333   1.473   .     D
C8430  H75120  1.060   .     S
C9131  C10034  1.453   .     S
C9131  N1091   1.356   .     S
C9232  C10135  1.388   .     S
C9232  N1192   1.494   .     S
C9333  C10236  1.368   .     S
C9333  N1293   1.413   .     S
C10034 C10937  1.323   .     D
C10034 H82121  1.083   .     S
C10135 C11038  1.458   .     D
C10135 H83122  1.050   .     S
C10236 C11139  1.380   .     D
C10236 H84123  1.119   .     S
C11840 C12743  1.338   .     S
C11840 C16355  1.463   .     D
C11840 H91124  1.077   .     S
C11941 C12844  1.437   .     S
C11941 C16456  1.387   .     D
C11941 H92125  1.035   .     S
C12042 C12945  1.372   .     S
C12042 C16557  1.348   .     D
C12042 H93126  1.138   .     S
C12743 C13646  1.354   .     D
C12844 C13747  1.349   .     D
C12945 C13848  1.463   .     D
C13646 C14549  1.466   .     S
C13747 C14650  1.383   .     S
C13848 C14751  1.347   .     S
C14549 C15452  1.357   .     D
C14549 C17258  1.482   .     S
C14650 C15553  1.467   .     D
C14650 C17359  1.447   .     S
C14751 C15654  1.395   .     D
C14751 C17460  1.559   .     S
C15452 C16355  1.403   .     S
C15452 H100127  1.131   .     S
C15553 C16456  1.360   .     S
C15553 H101128  1.072   .     S
C15654 C16557  1.479   .     S
C15654 H102129  1.042   .     S
C16355 N176    1.381   .     S
C16456 N277    1.475   .     S
C16557 N378    1.417   .     S
C17258 H109130  1.164   .     S
C17258 H118133  1.087   .     S
C17258 H127136  1.129   .     S
C17359 H110131  1.130   .     S
C17359 H119134  1.161   .     S
C17359 H128137  1.118   .     S
C17460 H111132  1.104   .     S
C17460 H120135  1.085   .     S
C17460 H129138  1.141   .     S
C18161 H136139  1.140   .     S
C18161 H145142  1.139   .     S
C18161 H154145  1.111   .     S
C18262 H137140  1.115   .     S
C18262 H146143  1.132   .     S
C18262 H155146  1.160   .     S
C18363 H138141  1.082   .     S
C18363 H147144  1.104   .     S
C18363 H156147  1.132   .     S
C19064 C19967  1.513   .     S
C19064 C20169  1.515   .     S
C19064 C20873  1.332   .     D
C19165 C19967  1.406   .     S
C19165 C20068  1.504   .     S
C19165 C20974  1.339   .     D
C19266 C20068  1.525   .     S
C19266 C20169  1.395   .     S
C19266 C21075  1.393   .     D
C19967 O170    1.260   .     D
C20068 O271    1.173   .     D
C20169 O372    1.241   .     D
C20873 N176    1.511   .     S
C20873 H163148  1.108   .     S
C20974 N277    1.443   .     S
C20974 H164149  1.027   .     S
C21075 N378    1.383   .     S
C21075 H165150  1.111   .     S
N176   H172151  1.040   .     S
N277   H173152  1.020   .     S
N378   H174153  1.078   .     S
C21779 C22682  1.498   .     S
C21779 C22884  1.524   .     S
C21779 C23588  1.312   .     D
C21880 C22682  1.408   .     S
C21880 C22783  1.512   .     S
C21880 C23689  1.331   .     D
C21981 C22783  1.510   .     S
C21981 C22884  1.397   .     S
C21981 C23790  1.396   .     D
C22682 O1085   1.270   .     D
C22783 O1186   1.179   .     D
C22884 O1287   1.229   .     D
C23588 N1091   1.491   .     S
C23588 H181154  1.116   .     S
C23689 N1192   1.451   .     S
C23689 H182155  1.031   .     S
C23790 N1293   1.366   .     S
C23790 H183156  1.102   .     S
N1091  H190157  1.060   .     S
N1192  H191158  1.032   .     S
N1293  H192159  1.064   .     S
C7168  C16171  1.558   .     S
C7168  C34177  1.490   .     S
C7168  C133210  1.459   .     S
C7168  H7261   1.108   .     S
C8169  C17172  1.512   .     S
C8169  C35178  1.450   .     S
C8169  C134211  1.520   .     S
C8169  H8262   1.087   .     S
C9170  C18173  1.419   .     S
C9170  C36179  1.571   .     S
C9170  C135212  1.452   .     S
C9170  H9263   1.135   .     S
C16171 C43180  1.483   .     S
C16171 C52183  1.468   .     S
C16171 H16264  1.085   .     S
C17172 C44181  1.449   .     S
C17172 C53184  1.571   .     S
C17172 H17265  1.064   .     S
C18173 C45182  1.560   .     S
C18173 C54185  1.499   .     S
C18173 H18266  1.110   .     S
C25174 C34177  1.509   .     S
C25174 C43180  1.514   .     S
C25174 C61186  1.509   .     S
C25174 H25267  1.070   .     S
C26175 C35178  1.540   .     S
C26175 C44181  1.490   .     S
C26175 C62187  1.534   .     S
C26175 H26268  1.044   .     S
C27176 C36179  1.444   .     S
C27176 C45182  1.491   .     S
C27176 C63188  1.512   .     S
C27176 H27269  1.144   .     S
C34177 C142213  1.463   .     S
C34177 H34270  1.126   .     S
C35178 C143214  1.545   .     S
C35178 H35271  1.110   .     S
C36179 C144215  1.467   .     S
C36179 H36272  1.093   .     S
C43180 H43273  1.084   .     S
C43180 H52276  1.122   .     S
C44181 H44274  1.131   .     S
C44181 H53277  1.111   .     S
C45182 H45275  1.099   .     S
C45182 H54278  1.043   .     S
C52183 C61186  1.497   .     S
C52183 C70189  1.496   .     S
C52183 H61279  1.106   .     S
C53184 C62187  1.458   .     S
C53184 C71190  1.513   .     S
C53184 H62280  1.084   .     S
C54185 C63188  1.576   .     S
C54185 C72191  1.401   .     S
C54185 H63281  1.136   .     S
C61186 C115204  1.503   .     S
C61186 H70282  1.125   .     S
C62187 C116205  1.500   .     S
C62187 H71283  1.111   .     S
C63188 C117206  1.390   .     S
C63188 H72284  1.094   .     S
C70189 C79192  1.441   .     D
C70189 C115204  1.347   .     S
C71190 C80193  1.379   .     D
C71190 C116205  1.312   .     S
C72191 C81194  1.384   .     D
C72191 C117206  1.416   .     S
C79192 C88195  1.347   .     S
C79192 C187228  1.474   .     S
C80193 C89196  1.481   .     S
C80193 C188229  1.445   .     S
C81194 C90197  1.398   .     S
C81194 C189230  1.571   .     S
C88195 C97198  1.402   .     D
C88195 H79285  1.117   .     S
C89196 C98199  1.365   .     D
C89196 H80286  1.073   .     S
C90197 C99200  1.473   .     D
C90197 H81287  1.062   .     S
C97198 C106201  1.453   .     S
C97198 N16258  1.356   .     S
C98199 C107202  1.390   .     S
C98199 N17259  1.494   .     S
C99200 C108203  1.369   .     S
C99200 N18260  1.413   .     S
C106201 C115204  1.323   .     D
C106201 H88288  1.083   .     S
C107202 C116205  1.460   .     D
C107202 H89289  1.049   .     S
C108203 C117206  1.384   .     D
C108203 H90290  1.118   .     S
C124207 C133210  1.339   .     S
C124207 C169222  1.463   .     D
C124207 H97291  1.077   .     S
C125208 C134211  1.438   .     S
C125208 C170223  1.388   .     D
C125208 H98292  1.035   .     S
C126209 C135212  1.376   .     S
C126209 C171224  1.348   .     D
C126209 H99293  1.137   .     S
C133210 C142213  1.354   .     D
C134211 C143214  1.316   .     D
C135212 C144215  1.428   .     D
C142213 C151216  1.466   .     S
C143214 C152217  1.384   .     S
C144215 C153218  1.348   .     S
C151216 C160219  1.357   .     D
C151216 C178225  1.483   .     S
C152217 C161220  1.467   .     D
C152217 C179226  1.448   .     S
C153218 C162221  1.396   .     D
C153218 C180227  1.559   .     S
C160219 C169222  1.402   .     S
C160219 H106294  1.132   .     S
C161220 C170223  1.359   .     S
C161220 H107295  1.072   .     S
C162221 C171224  1.479   .     S
C162221 H108296  1.041   .     S
C169222 N7243   1.381   .     S
C170223 N8244   1.474   .     S
C171224 N9245   1.418   .     S
C178225 H115297  1.164   .     S
C178225 H124300  1.087   .     S
C178225 H133303  1.129   .     S
C179226 H116298  1.131   .     S
C179226 H125301  1.160   .     S
C179226 H134304  1.117   .     S
C180227 H117299  1.105   .     S
C180227 H126302  1.085   .     S
C180227 H135305  1.139   .     S
C187228 H142306  1.140   .     S
C187228 H151309  1.139   .     S
C187228 H160312  1.111   .     S
C188229 H143307  1.115   .     S
C188229 H152310  1.132   .     S
C188229 H161313  1.159   .     S
C189230 H144308  1.084   .     S
C189230 H153311  1.102   .     S
C189230 H162314  1.132   .     S
C196231 C205234  1.514   .     S
C196231 C207236  1.515   .     S
C196231 C214240  1.333   .     D
C197232 C205234  1.406   .     S
C197232 C206235  1.503   .     S
C197232 C215241  1.340   .     D
C198233 C206235  1.526   .     S
C198233 C207236  1.395   .     S
C198233 C216242  1.392   .     D
C205234 O7237   1.260   .     D
C206235 O8238   1.173   .     D
C207236 O9239   1.242   .     D
C214240 N7243   1.511   .     S
C214240 H169315  1.108   .     S
C215241 N8244   1.443   .     S
C215241 H170316  1.027   .     S
C216242 N9245   1.382   .     S
C216242 H171317  1.111   .     S
N7243  H178318  1.040   .     S
N8244  H179319  1.020   .     S
N9245  H180320  1.078   .     S
C223246 C232249  1.498   .     S
C223246 C241255  1.311   .     D
C223246 C234251  1.524   1_655 S
C224247 C233250  1.512   .     S
C224247 C242256  1.332   .     D
C224247 C232249  1.408   1_455 S
C225248 C233250  1.511   .     S
C225248 C234251  1.397   .     S
C225248 C243257  1.395   .     D
C232249 O16252  1.270   .     D
C232249 C224247  1.408   1_655 S
C233250 O17253  1.178   .     D
C234251 O18254  1.229   .     D
C234251 C223246  1.524   1_455 S
C241255 N16258  1.490   .     S
C241255 H187321  1.116   .     S
C242256 H188322  1.031   .     S
C242256 N17259  1.451   1_445 S
C243257 N18260  1.366   .     S
C243257 H189323  1.102   .     S
N16258 H196324  1.061   .     S
N17259 H197325  1.031   .     S
N17259 C242256  1.451   1_665 S
N18260 H198326  1.064   .     S
C4335  C13338  1.558   .     S
C4335  C31344  1.490   .     S
C4335  C130377  1.459   .     S
C4335  H4428   1.108   .     S
C5336  C14339  1.513   .     S
C5336  C32345  1.450   .     S
C5336  C131378  1.520   .     S
C5336  H5429   1.087   .     S
C6337  C15340  1.419   .     S
C6337  C33346  1.571   .     S
C6337  C132379  1.452   .     S
C6337  H6430   1.135   .     S
C13338 C40347  1.483   .     S
C13338 C49350  1.468   .     S
C13338 H13431  1.084   .     S
C14339 C41348  1.449   .     S
C14339 C50351  1.571   .     S
C14339 H14432  1.063   .     S
C15340 C42349  1.560   .     S
C15340 C51352  1.498   .     S
C15340 H15433  1.110   .     S
C22341 C31344  1.509   .     S
C22341 C40347  1.513   .     S
C22341 C58353  1.509   .     S
C22341 H22434  1.070   .     S
C23342 C32345  1.540   .     S
C23342 C41348  1.490   .     S
C23342 C59354  1.534   .     S
C23342 H23435  1.043   .     S
C24343 C33346  1.444   .     S
C24343 C42349  1.491   .     S
C24343 C60355  1.512   .     S
C24343 H24436  1.144   .     S
C31344 C139380  1.463   .     S
C31344 H31437  1.126   .     S
C32345 C140381  1.545   .     S
C32345 H32438  1.110   .     S
C33346 C141382  1.467   .     S
C33346 H33439  1.093   .     S
C40347 H40440  1.084   .     S
C40347 H49443  1.122   .     S
C41348 H41441  1.131   .     S
C41348 H50444  1.111   .     S
C42349 H42442  1.099   .     S
C42349 H51445  1.043   .     S
C49350 C58353  1.497   .     S
C49350 C67356  1.497   .     S
C49350 H58446  1.106   .     S
C50351 C59354  1.458   .     S
C50351 C68357  1.513   .     S
C50351 H59447  1.084   .     S
C51352 C60355  1.576   .     S
C51352 C69358  1.401   .     S
C51352 H60448  1.137   .     S
C58353 C112371  1.503   .     S
C58353 H67449  1.124   .     S
C59354 C113372  1.500   .     S
C59354 H68450  1.111   .     S
C60355 C114373  1.390   .     S
C60355 H69451  1.094   .     S
C67356 C76359  1.441   .     D
C67356 C112371  1.346   .     S
C68357 C77360  1.379   .     D
C68357 C113372  1.312   .     S
C69358 C78361  1.384   .     D
C69358 C114373  1.416   .     S
C76359 C85362  1.347   .     S
C76359 C184395  1.475   .     S
C77360 C86363  1.481   .     S
C77360 C185396  1.445   .     S
C78361 C87364  1.398   .     S
C78361 C186397  1.571   .     S
C85362 C94365  1.402   .     D
C85362 H76452  1.117   .     S
C86363 C95366  1.365   .     D
C86363 H77453  1.072   .     S
C87364 C96367  1.473   .     D
C87364 H78454  1.061   .     S
C94365 C103368  1.453   .     S
C94365 N13425  1.356   .     S
C95366 C104369  1.390   .     S
C95366 N14426  1.494   .     S
C96367 C105370  1.369   .     S
C96367 N15427  1.413   .     S
C103368 C112371  1.323   .     D
C103368 H85455  1.083   .     S
C104369 C113372  1.460   .     D
C104369 H86456  1.048   .     S
C105370 C114373  1.384   .     D
C105370 H87457  1.118   .     S
C121374 C130377  1.338   .     S
C121374 C166389  1.463   .     D
C121374 H94458  1.077   .     S
C122375 C131378  1.438   .     S
C122375 C167390  1.388   .     D
C122375 H95459  1.035   .     S
C123376 C132379  1.376   .     S
C123376 C168391  1.347   .     D
C123376 H96460  1.137   .     S
C130377 C139380  1.354   .     D
C131378 C140381  1.316   .     D
C132379 C141382  1.428   .     D
C139380 C148383  1.466   .     S
C140381 C149384  1.384   .     S
C141382 C150385  1.348   .     S
C148383 C157386  1.358   .     D
C148383 C175392  1.482   .     S
C149384 C158387  1.467   .     D
C149384 C176393  1.448   .     S
C150385 C159388  1.395   .     D
C150385 C177394  1.559   .     S
C157386 C166389  1.402   .     S
C157386 H103461  1.132   .     S
C158387 C167390  1.359   .     S
C158387 H104462  1.072   .     S
C159388 C168391  1.479   .     S
C159388 H105463  1.042   .     S
C166389 N4410   1.381   .     S
C167390 N5411   1.474   .     S
C168391 N6412   1.418   .     S
C175392 H112464  1.164   .     S
C175392 H121467  1.087   .     S
C175392 H130470  1.129   .     S
C176393 H113465  1.131   .     S
C176393 H122468  1.160   .     S
C176393 H131471  1.117   .     S
C177394 H114466  1.105   .     S
C177394 H123469  1.085   .     S
C177394 H132472  1.139   .     S
C184395 H139473  1.140   .     S
C184395 H148476  1.139   .     S
C184395 H157479  1.111   .     S
C185396 H140474  1.115   .     S
C185396 H149477  1.132   .     S
C185396 H158480  1.159   .     S
C186397 H141475  1.083   .     S
C186397 H150478  1.103   .     S
C186397 H159481  1.132   .     S
C193398 C202401  1.514   .     S
C193398 C211407  1.333   .     D
C193398 C204403  1.515   1_455 S
C194399 C203402  1.503   .     S
C194399 C212408  1.340   .     D
C194399 C202401  1.406   1_655 S
C195400 C203402  1.526   .     S
C195400 C204403  1.395   .     S
C195400 C213409  1.392   .     D
C202401 O4404   1.260   .     D
C202401 C194399  1.406   1_455 S
C203402 O5405   1.173   .     D
C204403 O6406   1.242   .     D
C204403 C193398  1.515   1_655 S
C211407 N4410   1.511   .     S
C211407 H166482  1.108   .     S
C212408 H167483  1.027   .     S
C212408 N5411   1.443   1_665 S
C213409 N6412   1.382   .     S
C213409 H168484  1.111   .     S
N4410  H175485  1.040   .     S
N5411  H176486  1.020   .     S
N5411  C212408  1.443   1_445 S
N6412  H177487  1.078   .     S
C220413 C229416  1.498   .     S
C220413 C231418  1.524   .     S
C220413 C238422  1.310   .     D
C221414 C229416  1.408   .     S
C221414 C230417  1.512   .     S
C221414 C239423  1.332   .     D
C222415 C230417  1.511   .     S
C222415 C231418  1.397   .     S
C222415 C240424  1.396   .     D
C229416 O13419  1.270   .     D
C230417 O14420  1.178   .     D
C231418 O15421  1.229   .     D
C238422 N13425  1.490   .     S
C238422 H184488  1.116   .     S
C239423 N14426  1.451   .     S
C239423 H185489  1.031   .     S
C240424 N15427  1.367   .     S
C240424 H186490  1.102   .     S
N13425 H193491  1.060   .     S
N14426 H194492  1.031   .     S
N15427 H195493  1.064   .     S
