data_1149
_audit_creation_date              2023-09-08
_audit_creation_method            'Materials Studio'
_symmetry_space_group_name_H-M    'P1'
_symmetry_Int_Tables_number       1
_symmetry_cell_setting            triclinic
loop_
_symmetry_equiv_pos_as_xyz
  x,y,z
_cell_length_a                    30.5300
_cell_length_b                    32.4400
_cell_length_c                    12.7400
_cell_angle_alpha                 90.5900
_cell_angle_beta                  91.9500
_cell_angle_gamma                 117.7400
loop_
_atom_site_label
_atom_site_type_symbol
_atom_site_fract_x
_atom_site_fract_y
_atom_site_fract_z
_atom_site_U_iso_or_equiv
_atom_site_adp_type
_atom_site_occupancy
C11    C     0.45156   0.50706   0.83020   0.00000  Uiso   1.00
C22    C     0.49387   0.94326   0.81505   0.00000  Uiso   1.00
C33    C     0.05510   0.54855   0.81475   0.00000  Uiso   1.00
C104   C     0.44884   0.46306   0.88062   0.00000  Uiso   1.00
C115   C     0.53903   0.98454   0.87181   0.00000  Uiso   1.00
C126   C     0.01372   0.55275   0.86963   0.00000  Uiso   1.00
C197   C     0.52411   0.51221   0.87879   0.00000  Uiso   1.00
C208   C     0.48775   0.01125   0.87251   0.00000  Uiso   1.00
C219   C     0.98557   0.47448   0.86734   0.00000  Uiso   1.00
C2810  C     0.50535   0.54246   0.83063   0.00000  Uiso   1.00
C2911  C     0.45801   0.96152   0.81762   0.00000  Uiso   1.00
C3012  C     0.03589   0.49424   0.81478   0.00000  Uiso   1.00
C3713  C     0.48788   0.48335   0.96125   0.00000  Uiso   1.00
C3814  C     0.51742   0.00264   0.95392   0.00000  Uiso   1.00
C3915  C     0.99401   0.51221   0.94997   0.00000  Uiso   1.00
C4616  C     0.46526   0.43920   0.80135   0.00000  Uiso   1.00
C4717  C     0.56235   0.02661   0.79039   0.00000  Uiso   1.00
C4818  C     0.97283   0.53548   0.78570   0.00000  Uiso   1.00
C5519  C     0.51918   0.47540   0.79830   0.00000  Uiso   1.00
C5620  C     0.52564   0.04409   0.78861   0.00000  Uiso   1.00
C5721  C     0.95388   0.48097   0.78259   0.00000  Uiso   1.00
C6422  C     0.47822   0.40235   0.83355   0.00000  Uiso   1.00
C6523  C     0.59907   0.07621   0.83129   0.00000  Uiso   1.00
C6624  C     0.92336   0.52385   0.82410   0.00000  Uiso   1.00
C7325  C     0.45991   0.35396   0.80275   0.00000  Uiso   1.00
C7426  C     0.64748   0.10723   0.80252   0.00000  Uiso   1.00
C7527  C     0.89404   0.54303   0.79454   0.00000  Uiso   1.00
C8228  C     0.49390   0.33825   0.78639   0.00000  Uiso   1.00
C8329  C     0.66251   0.15678   0.78695   0.00000  Uiso   1.00
C8430  C     0.84434   0.50996   0.77671   0.00000  Uiso   1.00
C9131  C     0.54438   0.37274   0.78138   0.00000  Uiso   1.00
C9232  C     0.62775   0.17239   0.78117   0.00000  Uiso   1.00
C9333  C     0.82692   0.45924   0.77059   0.00000  Uiso   1.00
C10034 C     0.56040   0.42295   0.79273   0.00000  Uiso   1.00
C10135 C     0.57757   0.13813   0.79279   0.00000  Uiso   1.00
C10236 C     0.85965   0.44130   0.78367   0.00000  Uiso   1.00
C10937 C     0.52655   0.43519   0.82911   0.00000  Uiso   1.00
C11038 C     0.56516   0.09184   0.82770   0.00000  Uiso   1.00
C11139 C     0.90619   0.47403   0.81970   0.00000  Uiso   1.00
C11840 C     0.41323   0.55893   0.87455   0.00000  Uiso   1.00
C11941 C     0.44296   0.85264   0.86116   0.00000  Uiso   1.00
C12042 C     0.14486   0.58683   0.86715   0.00000  Uiso   1.00
C12743 C     0.44663   0.54336   0.89316   0.00000  Uiso   1.00
C12844 C     0.45869   0.90141   0.88187   0.00000  Uiso   1.00
C12945 C     0.09573   0.55380   0.88391   0.00000  Uiso   1.00
C13646 C     0.49571   0.57529   0.89553   0.00000  Uiso   1.00
C13747 C     0.42580   0.91873   0.88641   0.00000  Uiso   1.00
C13848 C     0.07782   0.50345   0.88529   0.00000  Uiso   1.00
C14549 C     0.51479   0.62522   0.88107   0.00000  Uiso   1.00
C14650 C     0.37597   0.88743   0.87331   0.00000  Uiso   1.00
C14751 C     0.10894   0.48472   0.87179   0.00000  Uiso   1.00
C15452 C     0.48203   0.64250   0.87007   0.00000  Uiso   1.00
C15553 C     0.35925   0.83771   0.85884   0.00000  Uiso   1.00
C15654 C     0.15887   0.51755   0.85971   0.00000  Uiso   1.00
C16355 C     0.43129   0.60959   0.86391   0.00000  Uiso   1.00
C16456 C     0.39228   0.82011   0.85078   0.00000  Uiso   1.00
C16557 C     0.17709   0.56841   0.85534   0.00000  Uiso   1.00
C17258 C     0.56860   0.65910   0.87102   0.00000  Uiso   1.00
C17359 C     0.34128   0.90652   0.86915   0.00000  Uiso   1.00
C17460 C     0.08954   0.43094   0.86501   0.00000  Uiso   1.00
C18161 C     0.40648   0.32093   0.78446   0.00000  Uiso   1.00
C18262 C     0.68139   0.08784   0.78486   0.00000  Uiso   1.00
C18363 C     0.91537   0.59676   0.77928   0.00000  Uiso   1.00
C19064 C     0.37854   0.66351   0.69228   0.00000  Uiso   1.00
C19165 C     0.33463   0.71057   0.68612   0.00000  Uiso   1.00
C19266 C     0.28726   0.61945   0.69354   0.00000  Uiso   1.00
C19967 C     0.37956   0.70891   0.66367   0.00000  Uiso   1.00
C20068 C     0.28839   0.66545   0.66658   0.00000  Uiso   1.00
C20169 C     0.33212   0.61794   0.67302   0.00000  Uiso   1.00
O170   O     0.41808   0.74625   0.64561   0.00000  Uiso   1.00
O271   O     0.25072   0.66629   0.65059   0.00000  Uiso   1.00
O372   O     0.33117   0.57918   0.66093   0.00000  Uiso   1.00
C20873 C     0.41142   0.66552   0.76230   0.00000  Uiso   1.00
C20974 C     0.33471   0.74326   0.75354   0.00000  Uiso   1.00
C21075 C     0.25490   0.58754   0.76253   0.00000  Uiso   1.00
N176   N     0.39865   0.62670   0.83669   0.00000  Uiso   1.00
N277   N     0.37525   0.77043   0.82294   0.00000  Uiso   1.00
N378   N     0.22707   0.60107   0.82937   0.00000  Uiso   1.00
C21779 C     0.61830   0.32633   0.86943   0.00000  Uiso   1.00
C21880 C     0.67676   0.29426   0.86040   0.00000  Uiso   1.00
C21981 C     0.70871   0.38519   0.86203   0.00000  Uiso   1.00
C22682 C     0.62761   0.28595   0.88547   0.00000  Uiso   1.00
C22783 C     0.71789   0.34402   0.87360   0.00000  Uiso   1.00
C22884 C     0.65963   0.37580   0.88775   0.00000  Uiso   1.00
O1085  O     0.59577   0.24675   0.91960   0.00000  Uiso   1.00
O1186  O     0.75838   0.35108   0.89659   0.00000  Uiso   1.00
O1287  O     0.65312   0.40795   0.92340   0.00000  Uiso   1.00
C23588 C     0.57836   0.31866   0.81682   0.00000  Uiso   1.00
C23689 C     0.68311   0.26113   0.80784   0.00000  Uiso   1.00
C23790 C     0.73955   0.42595   0.81004   0.00000  Uiso   1.00
N1091  N     0.57850   0.35719   0.75767   0.00000  Uiso   1.00
N1192  N     0.64301   0.22174   0.75449   0.00000  Uiso   1.00
N1293  N     0.77701   0.42724   0.74497   0.00000  Uiso   1.00
H194   H     0.43267   0.49930   0.75456   0.00000  Uiso   1.00
H295   H     0.50020   0.93286   0.73471   0.00000  Uiso   1.00
H396   H     0.06686   0.56620   0.73551   0.00000  Uiso   1.00
H1097  H     0.41295   0.43827   0.91177   0.00000  Uiso   1.00
H1198  H     0.56454   0.97330   0.90380   0.00000  Uiso   1.00
H1299  H     0.02520   0.58932   0.90304   0.00000  Uiso   1.00
H19100 H     0.56103   0.53390   0.90803   0.00000  Uiso   1.00
H20101 H     0.46537   0.02620   0.90511   0.00000  Uiso   1.00
H21102 H     0.96970   0.43680   0.89847   0.00000  Uiso   1.00
H28103 H     0.52272   0.55883   0.75559   0.00000  Uiso   1.00
H29104 H     0.44180   0.96167   0.73932   0.00000  Uiso   1.00
H30105 H     0.03623   0.47858   0.73590   0.00000  Uiso   1.00
H37106 H     0.48361   0.50336   1.02633   0.00000  Uiso   1.00
H38107 H     0.49714  -0.02263   1.01720   0.00000  Uiso   1.00
H39108 H     1.01838   0.51609   1.01438   0.00000  Uiso   1.00
H46109 H     0.49402   0.45758   1.00566   0.00000  Uiso   1.00
H47110 H     0.54303   0.03419   0.99935   0.00000  Uiso   1.00
H48111 H     0.96219   0.50650   0.99395   0.00000  Uiso   1.00
H55112 H     0.44503   0.43011   0.72735   0.00000  Uiso   1.00
H56113 H     0.57119   0.01758   0.71108   0.00000  Uiso   1.00
H57114 H     0.98317   0.55390   0.70704   0.00000  Uiso   1.00
H64115 H     0.53541   0.49112   0.72203   0.00000  Uiso   1.00
H65116 H     0.51149   0.04522   0.70839   0.00000  Uiso   1.00
H66117 H     0.95312   0.46612   0.70211   0.00000  Uiso   1.00
H73118 H     0.48131   0.30040   0.76832   0.00000  Uiso   1.00
H74119 H     0.70032   0.18236   0.76940   0.00000  Uiso   1.00
H75120 H     0.81984   0.52354   0.75893   0.00000  Uiso   1.00
C244121 C     0.61041   0.46235   0.76011   0.00000  Uiso   1.00
C245122 C     0.53804   0.14870   0.76092   0.00000  Uiso   1.00
C246123 C     0.84788   0.38999   0.75962   0.00000  Uiso   1.00
C253124 C     0.36105   0.52158   0.85114   0.00000  Uiso   1.00
C254125 C     0.48012   0.83793   0.83454   0.00000  Uiso   1.00
C255126 C     0.16059   0.63954   0.84790   0.00000  Uiso   1.00
H82127 H     0.49632   0.68117   0.86014   0.00000  Uiso   1.00
H83128 H     0.32067   0.81339   0.84810   0.00000  Uiso   1.00
H84129 H     0.18291   0.50304   0.84801   0.00000  Uiso   1.00
H91130 H     0.57701   0.67682   0.79184   0.00000  Uiso   1.00
H92131 H     0.32311   0.89838   0.79048   0.00000  Uiso   1.00
H93132 H     0.09833   0.42166   0.78620   0.00000  Uiso   1.00
H100133 H     0.58898   0.63924   0.88022   0.00000  Uiso   1.00
H101134 H     0.36056   0.94653   0.88216   0.00000  Uiso   1.00
H102135 H     0.04942   0.41031   0.87620   0.00000  Uiso   1.00
H109136 H     0.58110   0.68755   0.93341   0.00000  Uiso   1.00
H110137 H     0.31319   0.88878   0.93189   0.00000  Uiso   1.00
H111138 H     0.10655   0.41977   0.92785   0.00000  Uiso   1.00
H118139 H     0.39829   0.28366   0.76250   0.00000  Uiso   1.00
H119140 H     0.71864   0.11758   0.76487   0.00000  Uiso   1.00
H120141 H     0.88675   0.60587   0.75929   0.00000  Uiso   1.00
H127142 H     0.39408   0.33552   0.71887   0.00000  Uiso   1.00
H128143 H     0.66781   0.06136   0.71823   0.00000  Uiso   1.00
H129144 H     0.94235   0.60944   0.71366   0.00000  Uiso   1.00
H136145 H     0.38602   0.31871   0.85771   0.00000  Uiso   1.00
H137146 H     0.68336   0.06926   0.85780   0.00000  Uiso   1.00
H138147 H     0.93391   0.61624   0.85325   0.00000  Uiso   1.00
H145148 H     0.44464   0.69990   0.77575   0.00000  Uiso   1.00
H146149 H     0.30088   0.74261   0.77000   0.00000  Uiso   1.00
H147150 H     0.25612   0.55490   0.78185   0.00000  Uiso   1.00
H154151 H     0.36236   0.60645   0.86079   0.00000  Uiso   1.00
H155152 H     0.39595   0.75470   0.84577   0.00000  Uiso   1.00
H156153 H     0.24265   0.63766   0.85088   0.00000  Uiso   1.00
H163154 H     0.54856   0.28187   0.80469   0.00000  Uiso   1.00
H164155 H     0.71950   0.26784   0.79125   0.00000  Uiso   1.00
H165156 H     0.73189   0.45554   0.80302   0.00000  Uiso   1.00
H172157 H     0.61081   0.38142   0.71885   0.00000  Uiso   1.00
H173158 H     0.61833   0.22949   0.71673   0.00000  Uiso   1.00
H174159 H     0.76737   0.39818   0.69305   0.00000  Uiso   1.00
H181160 H     0.35325   0.52326   0.76603   0.00000  Uiso   1.00
H182161 H     0.33589   0.52794   0.90048   0.00000  Uiso   1.00
H183162 H     0.35374   0.48417   0.86878   0.00000  Uiso   1.00
H196163 H     0.63885   0.46049   0.80696   0.00000  Uiso   1.00
H197164 H     0.61521   0.49919   0.77193   0.00000  Uiso   1.00
H198165 H     0.61580   0.45803   0.67492   0.00000  Uiso   1.00
H208166 H     0.51777   0.86847   0.84774   0.00000  Uiso   1.00
H209167 H     0.47653   0.82704   0.74993   0.00000  Uiso   1.00
H210168 H     0.47511   0.80722   0.88515   0.00000  Uiso   1.00
H211169 H     0.53971   0.17863   0.80895   0.00000  Uiso   1.00
H212170 H     0.50125   0.11646   0.77209   0.00000  Uiso   1.00
H213171 H     0.54234   0.15891   0.67601   0.00000  Uiso   1.00
H217172 H     0.87326   0.39076   0.69818   0.00000  Uiso   1.00
H218173 H     0.81059   0.36608   0.72983   0.00000  Uiso   1.00
H219174 H     0.85270   0.37319   0.83253   0.00000  Uiso   1.00
H223175 H     0.19023   0.66320   0.90326   0.00000  Uiso   1.00
H224176 H     0.13002   0.64665   0.86074   0.00000  Uiso   1.00
H225177 H     0.17345   0.64949   0.76495   0.00000  Uiso   1.00
C7186  C     0.78474   0.17388   0.49793   0.00000  Uiso   1.00
C8187  C     0.82790   0.61065   0.49137   0.00000  Uiso   1.00
C9188  C     0.38708   0.21458   0.48989   0.00000  Uiso   1.00
C16189 C     0.78206   0.12987   0.54815   0.00000  Uiso   1.00
C17190 C     0.87146   0.65145   0.54420   0.00000  Uiso   1.00
C18191 C     0.34623   0.21774   0.54090   0.00000  Uiso   1.00
C25192 C     0.85732   0.17906   0.54630   0.00000  Uiso   1.00
C26193 C     0.82187   0.67701   0.54452   0.00000  Uiso   1.00
C27194 C     0.31928   0.14232   0.53840   0.00000  Uiso   1.00
C34195 C     0.83851   0.20930   0.49826   0.00000  Uiso   1.00
C35196 C     0.79213   0.62855   0.49376   0.00000  Uiso   1.00
C36197 C     0.36825   0.16072   0.48987   0.00000  Uiso   1.00
C43198 C     0.82111   0.15015   0.62875   0.00000  Uiso   1.00
C44199 C     0.85059   0.66898   0.62616   0.00000  Uiso   1.00
C45200 C     0.32714   0.17855   0.62118   0.00000  Uiso   1.00
C52201 C     0.79849   0.10608   0.46872   0.00000  Uiso   1.00
C53202 C     0.89536   0.69267   0.46724   0.00000  Uiso   1.00
C54203 C     0.30608   0.20179   0.46168   0.00000  Uiso   1.00
C61204 C     0.85240   0.14229   0.46574   0.00000  Uiso   1.00
C62205 C     0.85878   0.70984   0.46532   0.00000  Uiso   1.00
C63206 C     0.28752   0.14773   0.45826   0.00000  Uiso   1.00
C70207 C     0.81141   0.06919   0.50074   0.00000  Uiso   1.00
C71208 C     0.93163   0.74233   0.50170   0.00000  Uiso   1.00
C72209 C     0.25668   0.18983   0.49385   0.00000  Uiso   1.00
C79210 C     0.79313   0.02084   0.46955   0.00000  Uiso   1.00
C80211 C     0.97987   0.77274   0.47028   0.00000  Uiso   1.00
C81212 C     0.22792   0.20945   0.46220   0.00000  Uiso   1.00
C88213 C     0.82713   0.00520   0.45273   0.00000  Uiso   1.00
C89214 C     0.99487   0.82203   0.45108   0.00000  Uiso   1.00
C90215 C     0.17841   0.17659   0.44162   0.00000  Uiso   1.00
C97216 C     0.87761   0.03971   0.44778   0.00000  Uiso   1.00
C98217 C     0.95996   0.83742   0.44497   0.00000  Uiso   1.00
C99218 C     0.16120   0.12594   0.43504   0.00000  Uiso   1.00
C106219 C     0.89363   0.08989   0.45990   0.00000  Uiso   1.00
C107220 C     0.91000   0.80314   0.45985   0.00000  Uiso   1.00
C108221 C     0.19405   0.10829   0.45019   0.00000  Uiso   1.00
C115222 C     0.85974   0.10205   0.49641   0.00000  Uiso   1.00
C116223 C     0.89839   0.75743   0.49775   0.00000  Uiso   1.00
C117224 C     0.24013   0.14127   0.48873   0.00000  Uiso   1.00
C124225 C     0.74637   0.22567   0.54263   0.00000  Uiso   1.00
C125226 C     0.77598   0.51988   0.52893   0.00000  Uiso   1.00
C126227 C     0.47723   0.25278   0.53324   0.00000  Uiso   1.00
C133228 C     0.77982   0.21015   0.56107   0.00000  Uiso   1.00
C134229 C     0.79130   0.56849   0.55155   0.00000  Uiso   1.00
C135230 C     0.42830   0.21942   0.55242   0.00000  Uiso   1.00
C142231 C     0.82890   0.24211   0.56327   0.00000  Uiso   1.00
C143232 C     0.75914   0.58535   0.55646   0.00000  Uiso   1.00
C144233 C     0.41092   0.17026   0.55416   0.00000  Uiso   1.00
C151234 C     0.84792   0.29202   0.54866   0.00000  Uiso   1.00
C152235 C     0.70937   0.55462   0.53985   0.00000  Uiso   1.00
C153236 C     0.44166   0.15118   0.53790   0.00000  Uiso   1.00
C160237 C     0.81513   0.30925   0.53740   0.00000  Uiso   1.00
C161238 C     0.69242   0.50500   0.52315   0.00000  Uiso   1.00
C162239 C     0.49152   0.18382   0.52390   0.00000  Uiso   1.00
C169240 C     0.76438   0.27631   0.53150   0.00000  Uiso   1.00
C170241 C     0.72543   0.48733   0.51629   0.00000  Uiso   1.00
C171242 C     0.50964   0.23466   0.51992   0.00000  Uiso   1.00
C178243 C     0.90173   0.32598   0.53883   0.00000  Uiso   1.00
C179244 C     0.67511   0.57424   0.53512   0.00000  Uiso   1.00
C180245 C     0.42193   0.09733   0.53102   0.00000  Uiso   1.00
C187246 C     0.73970  -0.01219   0.45126   0.00000  Uiso   1.00
C188247 C     1.01357   0.75297   0.45413   0.00000  Uiso   1.00
C189248 C     0.24958   0.26329   0.44818   0.00000  Uiso   1.00
C196249 C     0.71182   0.33023   0.35978   0.00000  Uiso   1.00
C197250 C     0.66816   0.37752   0.35174   0.00000  Uiso   1.00
C198251 C     0.62051   0.28633   0.35920   0.00000  Uiso   1.00
C205252 C     0.71309   0.37566   0.33037   0.00000  Uiso   1.00
C206253 C     0.62186   0.33244   0.33215   0.00000  Uiso   1.00
C207254 C     0.66542   0.28471   0.34006   0.00000  Uiso   1.00
O7255  O     0.75174   0.41293   0.31270   0.00000  Uiso   1.00
O8256  O     0.58428   0.33342   0.31590   0.00000  Uiso   1.00
O9257  O     0.66443   0.24589   0.32856   0.00000  Uiso   1.00
C214258 C     0.74449   0.33217   0.43000   0.00000  Uiso   1.00
C215259 C     0.66824   0.41051   0.41819   0.00000  Uiso   1.00
C216260 C     0.58760   0.25416   0.42695   0.00000  Uiso   1.00
N7261  N     0.73170   0.29336   0.50407   0.00000  Uiso   1.00
N8262  N     0.70870   0.43781   0.48769   0.00000  Uiso   1.00
N9263  N     0.55943   0.26755   0.49300   0.00000  Uiso   1.00
C223264 C     0.95180  -0.00738   0.53142   0.00000  Uiso   1.00
C224265 C     0.00954  -0.04023   0.51921   0.00000  Uiso   1.00
C225266 C     0.04235   0.05086   0.52234   0.00000  Uiso   1.00
C232267 C     0.96069  -0.04810   0.54580   0.00000  Uiso   1.00
C233268 C     0.05103   0.00931   0.53215   0.00000  Uiso   1.00
C234269 C    -0.00647   0.04189   0.54929   0.00000  Uiso   1.00
O16270 O     0.92894  -0.08705   0.58113   0.00000  Uiso   1.00
O17271 O     0.09124   0.01583   0.55587   0.00000  Uiso   1.00
O18272 O    -0.01241   0.07418   0.58634   0.00000  Uiso   1.00
C241273 C     0.91160  -0.01458   0.48077   0.00000  Uiso   1.00
C242274 C     0.01535  -0.07367   0.46664   0.00000  Uiso   1.00
C243275 C     0.07363   0.09199   0.47212   0.00000  Uiso   1.00
N16276 N     0.91172   0.02427   0.42303   0.00000  Uiso   1.00
N17277 N     0.97475   0.88640   0.41589   0.00000  Uiso   1.00
N18278 N     0.11154   0.09377   0.40785   0.00000  Uiso   1.00
H7279  H     0.76580   0.16616   0.42236   0.00000  Uiso   1.00
H8280  H     0.83613   0.60070   0.41482   0.00000  Uiso   1.00
H9281  H     0.39819   0.23347   0.41423   0.00000  Uiso   1.00
H16282 H     0.74618   0.10504   0.57927   0.00000  Uiso   1.00
H17283 H     0.89636   0.64027   0.57424   0.00000  Uiso   1.00
H18284 H     0.35769   0.25365   0.57246   0.00000  Uiso   1.00
H25285 H     0.89425   0.20075   0.57549   0.00000  Uiso   1.00
H26286 H     0.79987   0.69167   0.57496   0.00000  Uiso   1.00
H27287 H     0.30374   0.10533   0.56735   0.00000  Uiso   1.00
H34288 H     0.85584   0.22568   0.42320   0.00000  Uiso   1.00
H35289 H     0.77596   0.63030   0.41903   0.00000  Uiso   1.00
H36290 H     0.36696   0.14334   0.41466   0.00000  Uiso   1.00
H43291 H     0.81686   0.17012   0.69391   0.00000  Uiso   1.00
H44292 H     0.83045   0.64385   0.68990   0.00000  Uiso   1.00
H45293 H     0.35138   0.18243   0.68602   0.00000  Uiso   1.00
H52294 H     0.82728   0.12436   0.67304   0.00000  Uiso   1.00
H53295 H     0.87602   0.70049   0.67215   0.00000  Uiso   1.00
H54296 H     0.29536   0.17269   0.66577   0.00000  Uiso   1.00
H61297 H     0.77827   0.09706   0.39471   0.00000  Uiso   1.00
H62298 H     0.90500   0.68254   0.39261   0.00000  Uiso   1.00
H63299 H     0.31747   0.22206   0.38775   0.00000  Uiso   1.00
H70300 H     0.86864   0.15803   0.38950   0.00000  Uiso   1.00
H71301 H     0.84322   0.71074   0.38909   0.00000  Uiso   1.00
H72302 H     0.28686   0.13155   0.38188   0.00000  Uiso   1.00
H79303 H     0.81455  -0.03262   0.43418   0.00000  Uiso   1.00
H80304 H     1.03252   0.84733   0.43144   0.00000  Uiso   1.00
H81305 H     0.15411   0.19025   0.42245   0.00000  Uiso   1.00
C250306 C     0.94375   0.12940   0.42824   0.00000  Uiso   1.00
C251307 C     0.86990   0.81299   0.42870   0.00000  Uiso   1.00
C252308 C     0.18284   0.05715   0.42604   0.00000  Uiso   1.00
C259309 C     0.69413   0.18826   0.52005   0.00000  Uiso   1.00
C260310 C     0.81345   0.50540   0.50357   0.00000  Uiso   1.00
C261311 C     0.49247   0.30536   0.51365   0.00000  Uiso   1.00
H88312 H     0.82941   0.34789   0.52712   0.00000  Uiso   1.00
H89313 H     0.65395   0.48100   0.51007   0.00000  Uiso   1.00
H90314 H     0.51536   0.16919   0.51057   0.00000  Uiso   1.00
H97315 H     0.91019   0.34369   0.45963   0.00000  Uiso   1.00
H98316 H     0.65794   0.56727   0.45546   0.00000  Uiso   1.00
H99317 H     0.42981   0.08785   0.45150   0.00000  Uiso   1.00
H106318 H     0.92216   0.30618   0.54824   0.00000  Uiso   1.00
H107319 H     0.69454   0.61409   0.55049   0.00000  Uiso   1.00
H108320 H     0.38192   0.07687   0.54417   0.00000  Uiso   1.00
H115321 H     0.91411   0.35444   0.60119   0.00000  Uiso   1.00
H116322 H     0.64623   0.55594   0.59604   0.00000  Uiso   1.00
H117323 H     0.43946   0.08612   0.59255   0.00000  Uiso   1.00
H124324 H     0.73153  -0.04945   0.42919   0.00000  Uiso   1.00
H125325 H     1.05069   0.78233   0.43206   0.00000  Uiso   1.00
H126326 H     0.22128   0.27262   0.42660   0.00000  Uiso   1.00
H133327 H     0.72728   0.00242   0.38577   0.00000  Uiso   1.00
H134328 H     0.99950   0.72549   0.38949   0.00000  Uiso   1.00
H135329 H     0.27732   0.27632   0.38409   0.00000  Uiso   1.00
H142330 H     0.71924  -0.01446   0.52455   0.00000  Uiso   1.00
H143331 H     1.01604   0.73552   0.52842   0.00000  Uiso   1.00
H144332 H     0.26726   0.28229   0.52316   0.00000  Uiso   1.00
H151333 H     0.77764   0.36643   0.44356   0.00000  Uiso   1.00
H152334 H     0.63446   0.41008   0.43386   0.00000  Uiso   1.00
H153335 H     0.58856   0.22138   0.44610   0.00000  Uiso   1.00
H160336 H     0.69540   0.27308   0.52813   0.00000  Uiso   1.00
H161337 H     0.72932   0.42209   0.51120   0.00000  Uiso   1.00
H162338 H     0.57486   0.30410   0.51471   0.00000  Uiso   1.00
H169339 H     0.88144  -0.05122   0.46908   0.00000  Uiso   1.00
H170340 H     0.05158  -0.06721   0.44903   0.00000  Uiso   1.00
H171341 H     0.06646   0.12196   0.46700   0.00000  Uiso   1.00
H178342 H     0.94390   0.04859   0.38393   0.00000  Uiso   1.00
H179343 H     0.94950   0.89362   0.37908   0.00000  Uiso   1.00
H180344 H     0.10245   0.06485   0.35587   0.00000  Uiso   1.00
H190345 H     0.20876   0.05826   0.36564   0.00000  Uiso   1.00
H191346 H     0.14588   0.03317   0.39468   0.00000  Uiso   1.00
H192347 H     0.18718   0.04023   0.49929   0.00000  Uiso   1.00
H193348 H     0.52236   0.32931   0.56817   0.00000  Uiso   1.00
H194349 H     0.46181   0.31223   0.52744   0.00000  Uiso   1.00
H195350 H     0.50481   0.31513   0.43033   0.00000  Uiso   1.00
H199351 H     0.87220   0.84380   0.47435   0.00000  Uiso   1.00
H200352 H     0.83335   0.78098   0.44364   0.00000  Uiso   1.00
H201353 H     0.87287   0.82150   0.34296   0.00000  Uiso   1.00
H214354 H     0.85096   0.53591   0.51839   0.00000  Uiso   1.00
H215355 H     0.81056   0.49493   0.41879   0.00000  Uiso   1.00
H216356 H     0.80806   0.47446   0.55383   0.00000  Uiso   1.00
H220357 H     0.68603   0.18975   0.43505   0.00000  Uiso   1.00
H221358 H     0.66913   0.19474   0.56971   0.00000  Uiso   1.00
H222359 H     0.68688   0.15090   0.53797   0.00000  Uiso   1.00
H229360 H     0.97197   0.12742   0.47568   0.00000  Uiso   1.00
H230361 H     0.94847   0.16619   0.44032   0.00000  Uiso   1.00
H231362 H     0.94952   0.12535   0.34313   0.00000  Uiso   1.00
C4371  C     0.11790   0.84052   0.16407   0.00000  Uiso   1.00
C5372  C     0.16118   0.27710   0.15830   0.00000  Uiso   1.00
C6373  C     0.72070   0.88147   0.15694   0.00000  Uiso   1.00
C13374 C     0.11505   0.79652   0.21480   0.00000  Uiso   1.00
C14375 C     0.20481   0.31778   0.21126   0.00000  Uiso   1.00
C15376 C     0.67982   0.88463   0.20781   0.00000  Uiso   1.00
C22377 C     0.19032   0.84573   0.21405   0.00000  Uiso   1.00
C23378 C     0.15524   0.34336   0.21264   0.00000  Uiso   1.00
C24379 C     0.65292   0.80921   0.20552   0.00000  Uiso   1.00
C31380 C     0.17168   0.87594   0.16514   0.00000  Uiso   1.00
C32381 C     0.12543   0.29501   0.16148   0.00000  Uiso   1.00
C33382 C     0.70190   0.82761   0.15708   0.00000  Uiso   1.00
C40383 C     0.15382   0.81683   0.29603   0.00000  Uiso   1.00
C41384 C     0.18404   0.33515   0.29377   0.00000  Uiso   1.00
C42385 C     0.66073   0.84548   0.28819   0.00000  Uiso   1.00
C49386 C     0.13176   0.77272   0.13600   0.00000  Uiso   1.00
C50387 C     0.22864   0.35914   0.13463   0.00000  Uiso   1.00
C51388 C     0.63969   0.86863   0.12852   0.00000  Uiso   1.00
C58389 C     0.18567   0.80896   0.13385   0.00000  Uiso   1.00
C59390 C     0.19208   0.37632   0.13347   0.00000  Uiso   1.00
C60391 C     0.62117   0.81457   0.12525   0.00000  Uiso   1.00
C67392 C     0.14462   0.73585   0.16864   0.00000  Uiso   1.00
C68393 C     0.26498   0.40873   0.16930   0.00000  Uiso   1.00
C69394 C     0.59027   0.85665   0.16056   0.00000  Uiso   1.00
C76395 C     0.12655   0.68757   0.13712   0.00000  Uiso   1.00
C77396 C     0.31314   0.43916   0.13732   0.00000  Uiso   1.00
C78397 C     0.56147   0.87620   0.12869   0.00000  Uiso   1.00
C85398 C     0.16067   0.67203   0.12084   0.00000  Uiso   1.00
C86399 C     0.32808   0.48845   0.11818   0.00000  Uiso   1.00
C87400 C     0.51196   0.84329   0.10827   0.00000  Uiso   1.00
C94401 C     0.21115   0.70661   0.11689   0.00000  Uiso   1.00
C95402 C     0.29315   0.50383   0.11275   0.00000  Uiso   1.00
C96403 C     0.49480   0.79263   0.10193   0.00000  Uiso   1.00
C103404 C     0.22705   0.75674   0.12946   0.00000  Uiso   1.00
C104405 C     0.24325   0.46956   0.12840   0.00000  Uiso   1.00
C105406 C     0.52770   0.77505   0.11708   0.00000  Uiso   1.00
C112407 C     0.19296   0.76876   0.16518   0.00000  Uiso   1.00
C113408 C     0.23173   0.42384   0.16605   0.00000  Uiso   1.00
C114409 C     0.57377   0.80809   0.15558   0.00000  Uiso   1.00
C121410 C     0.07944   0.89238   0.20737   0.00000  Uiso   1.00
C122411 C     0.10927   0.18626   0.19487   0.00000  Uiso   1.00
C123412 C     0.81084   0.91972   0.20030   0.00000  Uiso   1.00
C130413 C     0.11282   0.87685   0.22662   0.00000  Uiso   1.00
C131414 C     0.12463   0.23481   0.21820   0.00000  Uiso   1.00
C132415 C     0.76192   0.88636   0.21957   0.00000  Uiso   1.00
C139416 C     0.16188   0.90880   0.22945   0.00000  Uiso   1.00
C140417 C     0.09249   0.25168   0.22386   0.00000  Uiso   1.00
C141418 C     0.74456   0.83721   0.22146   0.00000  Uiso   1.00
C148419 C     0.18098   0.95871   0.21463   0.00000  Uiso   1.00
C149420 C     0.04269   0.22100   0.20737   0.00000  Uiso   1.00
C150421 C     0.77532   0.81813   0.20537   0.00000  Uiso   1.00
C157422 C     0.14823   0.97597   0.20296   0.00000  Uiso   1.00
C158423 C     0.02571   0.17140   0.19016   0.00000  Uiso   1.00
C159424 C     0.82517   0.85078   0.19130   0.00000  Uiso   1.00
C166425 C     0.09749   0.94304   0.19647   0.00000  Uiso   1.00
C167426 C     0.05870   0.15374   0.18249   0.00000  Uiso   1.00
C168427 C     0.84326   0.90161   0.18701   0.00000  Uiso   1.00
C175428 C     0.23480   0.99256   0.20463   0.00000  Uiso   1.00
C176429 C     0.00846   0.24066   0.20315   0.00000  Uiso   1.00
C177430 C     0.75560   0.76428   0.19855   0.00000  Uiso   1.00
C184431 C     0.07320   0.65451   0.11783   0.00000  Uiso   1.00
C185432 C     0.34681   0.41940   0.12040   0.00000  Uiso   1.00
C186433 C     0.58310   0.93001   0.11420   0.00000  Uiso   1.00
C193434 C     0.04493   0.99690   0.02441   0.00000  Uiso   1.00
C194435 C     0.00124   0.04418   0.01711   0.00000  Uiso   1.00
C195436 C     0.95363   0.95302   0.02483   0.00000  Uiso   1.00
C202437 C     0.04614   1.04233  -0.00476   0.00000  Uiso   1.00
C203438 C    -0.04509  -0.00090  -0.00217   0.00000  Uiso   1.00
C204439 C     0.99847   0.95139   0.00498   0.00000  Uiso   1.00
O4440  O     0.08476   1.07960  -0.02259   0.00000  Uiso   1.00
O5441  O    -0.08271   0.00007  -0.01793   0.00000  Uiso   1.00
O6442  O     0.99744   0.91256  -0.00680   0.00000  Uiso   1.00
C211443 C     0.07767   0.99883   0.09443   0.00000  Uiso   1.00
C212444 C     0.00143   0.07713   0.08388   0.00000  Uiso   1.00
C213445 C     0.92096   0.92097   0.09315   0.00000  Uiso   1.00
N4446  N     0.06486   0.96010   0.16874   0.00000  Uiso   1.00
N5447  N     0.04194   0.10428   0.15332   0.00000  Uiso   1.00
N6448  N     0.89300   0.93446   0.15966   0.00000  Uiso   1.00
C220449 C     0.28550   0.65938   0.19989   0.00000  Uiso   1.00
C221450 C     0.34301   0.62629   0.18629   0.00000  Uiso   1.00
C222451 C     0.37605   0.71742   0.18994   0.00000  Uiso   1.00
C229452 C     0.29427   0.61855   0.21355   0.00000  Uiso   1.00
C230453 C     0.38462   0.67578   0.19903   0.00000  Uiso   1.00
C231454 C     0.32736   0.70857   0.21772   0.00000  Uiso   1.00
O13455 O     0.26257   0.57966   0.24925   0.00000  Uiso   1.00
O14456 O     0.42483   0.68217   0.22223   0.00000  Uiso   1.00
O15457 O     0.32163   0.74088   0.25539   0.00000  Uiso   1.00
C238458 C     0.24524   0.65236   0.14978   0.00000  Uiso   1.00
C239459 C     0.34862   0.59276   0.13358   0.00000  Uiso   1.00
C240460 C     0.40730   0.75858   0.13977   0.00000  Uiso   1.00
N13461 N     0.24542   0.69134   0.09246   0.00000  Uiso   1.00
N14462 N     0.30783   0.55276   0.08348   0.00000  Uiso   1.00
N15463 N     0.44511   0.76039   0.07510   0.00000  Uiso   1.00
H4464  H     0.09921   0.83277   0.08819   0.00000  Uiso   1.00
H5465  H     0.16934   0.26733   0.08147   0.00000  Uiso   1.00
H6466  H     0.73182   0.90032   0.08124   0.00000  Uiso   1.00
H13467 H     0.07907   0.77170   0.24543   0.00000  Uiso   1.00
H14468 H     0.22971   0.30651   0.24085   0.00000  Uiso   1.00
H15469 H     0.69125   0.92055   0.23927   0.00000  Uiso   1.00
H22470 H     0.22714   0.86744   0.24382   0.00000  Uiso   1.00
H23471 H     0.13330   0.35798   0.24360   0.00000  Uiso   1.00
H24472 H     0.63737   0.77224   0.23456   0.00000  Uiso   1.00
H31473 H     0.18925   0.89227   0.09025   0.00000  Uiso   1.00
H32474 H     0.10918   0.29693   0.08700   0.00000  Uiso   1.00
H33475 H     0.70064   0.81020   0.08193   0.00000  Uiso   1.00
H40476 H     0.14933   0.83681   0.36084   0.00000  Uiso   1.00
H41477 H     0.16396   0.30990   0.35737   0.00000  Uiso   1.00
H42478 H     0.68496   0.84940   0.35308   0.00000  Uiso   1.00
H49479 H     0.15985   0.79106   0.34078   0.00000  Uiso   1.00
H50480 H     0.20953   0.36658   0.33991   0.00000  Uiso   1.00
H51481 H     0.62893   0.83962   0.33269   0.00000  Uiso   1.00
H58482 H     0.11182   0.76371   0.06164   0.00000  Uiso   1.00
H59483 H     0.23817   0.34913   0.05971   0.00000  Uiso   1.00
H60484 H     0.65110   0.88886   0.05455   0.00000  Uiso   1.00
H67485 H     0.20218   0.82469   0.05780   0.00000  Uiso   1.00
H68486 H     0.17643   0.37735   0.05745   0.00000  Uiso   1.00
H69487 H     0.62054   0.79836   0.04893   0.00000  Uiso   1.00
H76488 H     0.14822   0.63428   0.10192   0.00000  Uiso   1.00
H77489 H     0.36566   0.51373   0.09805   0.00000  Uiso   1.00
H78490 H     0.48762   0.85689   0.08906   0.00000  Uiso   1.00
C247491 C     0.27733   0.79639   0.09921   0.00000  Uiso   1.00
C248492 C     0.20305   0.47941   0.09815   0.00000  Uiso   1.00
C249493 C     0.51656   0.72393   0.09296   0.00000  Uiso   1.00
C256494 C     0.02731   0.85500   0.18361   0.00000  Uiso   1.00
C257495 C     0.14670   0.17187   0.16835   0.00000  Uiso   1.00
C258496 C     0.82605   0.97228   0.18050   0.00000  Uiso   1.00
H85497 H     0.16254   1.01463   0.19277   0.00000  Uiso   1.00
H86498 H    -0.01278   0.14742   0.17727   0.00000  Uiso   1.00
H87499 H     0.84904   0.83617   0.17806   0.00000  Uiso   1.00
H94500 H     0.24326   1.01011   0.12527   0.00000  Uiso   1.00
H95501 H    -0.00873   0.23384   0.12354   0.00000  Uiso   1.00
H96502 H     0.76349   0.75479   0.11903   0.00000  Uiso   1.00
H103503 H     0.25516   0.97270   0.21429   0.00000  Uiso   1.00
H104504 H     0.02792   0.28048   0.21886   0.00000  Uiso   1.00
H105505 H     0.71559   0.74381   0.21169   0.00000  Uiso   1.00
H112506 H     0.24729   1.02113   0.26672   0.00000  Uiso   1.00
H113507 H    -0.02040   0.22227   0.26407   0.00000  Uiso   1.00
H114508 H     0.77314   0.75309   0.26009   0.00000  Uiso   1.00
H121509 H     0.06517   0.61734   0.09541   0.00000  Uiso   1.00
H122510 H     0.38386   0.44876   0.09785   0.00000  Uiso   1.00
H123511 H     0.55480   0.93927   0.09195   0.00000  Uiso   1.00
H130512 H     0.06098   0.66927   0.05225   0.00000  Uiso   1.00
H131513 H     0.33254   0.39190   0.05581   0.00000  Uiso   1.00
H132514 H     0.61096   0.94298   0.05037   0.00000  Uiso   1.00
H139515 H     0.05245   0.65199   0.19080   0.00000  Uiso   1.00
H140516 H     0.34951   0.40198   0.19451   0.00000  Uiso   1.00
H141517 H     0.60062   0.94913   0.18919   0.00000  Uiso   1.00
H148518 H     0.11088   1.03306   0.10776   0.00000  Uiso   1.00
H149519 H    -0.03232   0.07670   0.09991   0.00000  Uiso   1.00
H150520 H     0.92199   0.88823   0.11226   0.00000  Uiso   1.00
H157521 H     0.02856   0.93987   0.19286   0.00000  Uiso   1.00
H158522 H     0.06258   0.08851   0.17638   0.00000  Uiso   1.00
H159523 H     0.90847   0.97104   0.18110   0.00000  Uiso   1.00
H166524 H     0.21498   0.61578   0.13811   0.00000  Uiso   1.00
H167525 H     0.38477   0.59914   0.11550   0.00000  Uiso   1.00
H168526 H     0.40022   0.78863   0.13524   0.00000  Uiso   1.00
H175527 H     0.27764   0.71576   0.05361   0.00000  Uiso   1.00
H176528 H     0.28248   0.55993   0.04706   0.00000  Uiso   1.00
H177529 H     0.43598   0.73145   0.02318   0.00000  Uiso   1.00
H184530 H     0.20546   0.51018   0.14413   0.00000  Uiso   1.00
H185531 H     0.16654   0.44738   0.11335   0.00000  Uiso   1.00
H186532 H     0.20579   0.48796   0.01247   0.00000  Uiso   1.00
H187533 H     0.18425   0.20234   0.18305   0.00000  Uiso   1.00
H188534 H     0.14363   0.16162   0.08339   0.00000  Uiso   1.00
H189535 H     0.14145   0.14081   0.21798   0.00000  Uiso   1.00
H202536 H     0.54256   0.72507   0.03273   0.00000  Uiso   1.00
H203537 H     0.47965   0.69996   0.06136   0.00000  Uiso   1.00
H204538 H     0.52082   0.70700   0.16628   0.00000  Uiso   1.00
H205539 H     0.85602   0.99629   0.23477   0.00000  Uiso   1.00
H206540 H     0.79540   0.97916   0.19450   0.00000  Uiso   1.00
H207541 H     0.83825   0.98196   0.09708   0.00000  Uiso   1.00
H226542 H     0.01962   0.85668   0.09843   0.00000  Uiso   1.00
H227543 H     0.00206   0.86132   0.23270   0.00000  Uiso   1.00
H228544 H     0.02001   0.81760   0.20134   0.00000  Uiso   1.00
H232545 H     0.30525   0.79440   0.14776   0.00000  Uiso   1.00
H233546 H     0.28188   0.83312   0.11106   0.00000  Uiso   1.00
H234547 H     0.28371   0.79253   0.01437   0.00000  Uiso   1.00
loop_
_geom_bond_atom_site_label_1
_geom_bond_atom_site_label_2
_geom_bond_distance
_geom_bond_site_symmetry_2
_ccdc_geom_bond_type
C11    C104    1.539   .     S
C11    C2810   1.503   .     S
C11    C12743  1.485   .     S
C11    H194    1.071   .     S
C22    C115    1.553   .     S
C22    C2911   1.468   .     S
C22    C12844  1.565   .     S
C22    H295    1.125   .     S
C33    C126    1.524   .     S
C33    C3012   1.577   .     S
C33    C12945  1.439   .     S
C33    H396    1.149   .     S
C104   C3713   1.443   .     S
C104   C4616   1.500   .     S
C104   H1097   1.105   .     S
C115   H1198   1.073   .     S
C115   C3814   1.506   1_565 S
C115   C4717   1.619   1_565 S
C126   H1299   1.142   .     S
C126   C3915   1.572   1_455 S
C126   C4818   1.504   1_455 S
C197   C2810   1.476   .     S
C197   C3713   1.529   .     S
C197   C5519   1.516   .     S
C197   H19100  1.064   .     S
C208   C3814   1.467   .     S
C208   C5620   1.605   .     S
C208   H20101  1.095   .     S
C208   C2911   1.577   1_545 S
C219   C3915   1.528   .     S
C219   C5721   1.506   .     S
C219   H21102  1.165   .     S
C219   C3012   1.543   1_655 S
C2810  C13646  1.481   .     S
C2810  H28103  1.122   .     S
C2911  C13747  1.573   .     S
C2911  H29104  1.099   .     S
C2911  C208    1.577   1_565 S
C3012  C13848  1.447   .     S
C3012  H30105  1.124   .     S
C3012  C219    1.543   1_455 S
C3713  H37106  1.096   .     S
C3713  H46109  1.097   .     S
C3814  H38107  1.132   .     S
C3814  H47110  1.098   .     S
C3814  C115    1.506   1_545 S
C3915  H39108  1.054   .     S
C3915  H48111  1.079   .     S
C3915  C126    1.572   1_655 S
C4616  C5519   1.515   .     S
C4616  C6422   1.481   .     S
C4616  H55112  1.069   .     S
C4717  C5620   1.473   .     S
C4717  C6523   1.543   .     S
C4717  H56113  1.125   .     S
C4717  C115    1.619   1_545 S
C4818  C5721   1.584   .     S
C4818  C6624   1.479   .     S
C4818  H57114  1.149   .     S
C4818  C126    1.504   1_655 S
C5519  C10937  1.478   .     S
C5519  H64115  1.121   .     S
C5620  C11038  1.519   .     S
C5620  H65116  1.104   .     S
C5721  C11139  1.462   .     S
C5721  H66117  1.123   .     S
C6422  C7325   1.444   .     D
C6422  C10937  1.363   .     S
C6523  C7426   1.411   .     D
C6523  C11038  1.348   .     S
C6624  C7527   1.353   .     D
C6624  C11139  1.448   .     S
C7325  C8228   1.373   .     S
C7325  C18161  1.485   .     S
C7426  C8329   1.470   .     S
C7426  C18262  1.462   .     S
C7527  C8430   1.400   .     S
C7527  C18363  1.568   .     S
C8228  C9131   1.426   .     D
C8228  H73118  1.121   .     S
C8329  C9232   1.373   .     D
C8329  H74119  1.096   .     S
C8430  C9333   1.475   .     D
C8430  H75120  1.050   .     S
C9131  C10034  1.470   .     S
C9131  N1091   1.392   .     S
C9232  C10135  1.428   .     S
C9232  N1192   1.491   .     S
C9333  C10236  1.377   .     S
C9333  N1293   1.412   .     S
C10034 C10937  1.361   .     D
C10034 C244121  1.541   .     S
C10135 C11038  1.446   .     D
C10135 C245122  1.447   .     S
C10236 C11139  1.378   .     D
C10236 C246123  1.555   .     S
C11840 C12743  1.348   .     S
C11840 C16355  1.480   .     D
C11840 C253124  1.503   .     S
C11941 C12844  1.442   .     S
C11941 C16456  1.410   .     D
C11941 C254125  1.469   .     S
C12042 C12945  1.405   .     S
C12042 C16557  1.380   .     D
C12042 C255126  1.571   .     S
C12743 C13646  1.368   .     D
C12844 C13747  1.362   .     D
C12945 C13848  1.462   .     D
C13646 C14549  1.460   .     S
C13747 C14650  1.384   .     S
C13848 C14751  1.359   .     S
C14549 C15452  1.359   .     D
C14549 C17258  1.503   .     S
C14650 C15553  1.455   .     D
C14650 C17359  1.454   .     S
C14751 C15654  1.411   .     D
C14751 C17460  1.560   .     S
C15452 C16355  1.413   .     S
C15452 H82127  1.130   .     S
C15553 C16456  1.377   .     S
C15553 H83128  1.072   .     S
C15654 C16557  1.478   .     S
C15654 H84129  1.054   .     S
C16355 N176    1.384   .     S
C16456 N277    1.480   .     S
C16557 N378    1.448   .     S
C17258 H91130  1.143   .     S
C17258 H100133  1.089   .     S
C17258 H109136  1.125   .     S
C17359 H92131  1.097   .     S
C17359 H101134  1.156   .     S
C17359 H110137  1.141   .     S
C17460 H93132  1.122   .     S
C17460 H102135  1.104   .     S
C17460 H111138  1.093   .     S
C18161 H118139  1.144   .     S
C18161 H127142  1.104   .     S
C18161 H136145  1.125   .     S
C18262 H119140  1.137   .     S
C18262 H128143  1.122   .     S
C18262 H137146  1.128   .     S
C18363 H120141  1.069   .     S
C18363 H129144  1.134   .     S
C18363 H138147  1.107   .     S
C19064 C19967  1.507   .     S
C19064 C20169  1.508   .     S
C19064 C20873  1.298   .     D
C19165 C19967  1.436   .     S
C19165 C20068  1.497   .     S
C19165 C20974  1.357   .     D
C19266 C20068  1.520   .     S
C19266 C20169  1.426   .     S
C19266 C21075  1.395   .     D
C19967 O170    1.265   .     D
C20068 O271    1.174   .     D
C20169 O372    1.252   .     D
C20873 N176    1.493   .     S
C20873 H145148  1.110   .     S
C20974 N277    1.409   .     S
C20974 H146149  1.052   .     S
C21075 N378    1.424   .     S
C21075 H147150  1.107   .     S
N176   H154151  1.050   .     S
N277   H155152  1.017   .     S
N378   H156153  1.081   .     S
C21779 C22682  1.479   .     S
C21779 C22884  1.520   .     S
C21779 C23588  1.287   .     D
C21880 C22682  1.444   .     S
C21880 C22783  1.518   .     S
C21880 C23689  1.352   .     D
C21981 C22783  1.495   .     S
C21981 C22884  1.434   .     S
C21981 C23790  1.405   .     D
C22682 O1085   1.281   .     D
C22783 O1186   1.173   .     D
C22884 O1287   1.234   .     D
C23588 N1091   1.465   .     S
C23588 H163154  1.119   .     S
C23689 N1192   1.436   .     S
C23689 H164155  1.057   .     S
C23790 N1293   1.420   .     S
C23790 H165156  1.092   .     S
N1091  H172157  1.075   .     S
N1192  H173158  1.008   .     S
N1293  H174159  1.062   .     S
C244121 H196163  1.062   .     S
C244121 H197164  1.142   .     S
C244121 H198165  1.120   .     S
C245122 H211169  1.122   .     S
C245122 H212170  1.138   .     S
C245122 H213171  1.129   .     S
C246123 H217172  1.112   .     S
C246123 H218173  1.088   .     S
C246123 H219174  1.121   .     S
C253124 H181160  1.110   .     S
C253124 H182161  1.098   .     S
C253124 H183162  1.153   .     S
C254125 H208166  1.120   .     S
C254125 H209167  1.117   .     S
C254125 H210168  1.144   .     S
C255126 H223175  1.097   .     S
C255126 H224176  1.078   .     S
C255126 H225177  1.137   .     S
C7186  C16189  1.539   .     S
C7186  C34195  1.503   .     S
C7186  C133228  1.486   .     S
C7186  H7279   1.071   .     S
C8187  C17190  1.502   .     S
C8187  C35196  1.457   .     S
C8187  C134229  1.538   .     S
C8187  H8280   1.097   .     S
C9188  C18191  1.470   .     S
C9188  C36197  1.565   .     S
C9188  C135230  1.410   .     S
C9188  H9281   1.123   .     S
C16189 C43198  1.443   .     S
C16189 C52201  1.500   .     S
C16189 H16282  1.105   .     S
C17190 C44199  1.480   .     S
C17190 C53202  1.565   .     S
C17190 H17283  1.047   .     S
C18191 C45200  1.543   .     S
C18191 C54203  1.450   .     S
C18191 H18284  1.115   .     S
C25192 C34195  1.476   .     S
C25192 C43198  1.529   .     S
C25192 C61204  1.515   .     S
C25192 H25285  1.064   .     S
C26193 C35196  1.525   .     S
C26193 C44199  1.440   .     S
C26193 C62205  1.551   .     S
C26193 H26286  1.067   .     S
C27194 C36197  1.488   .     S
C27194 C45200  1.499   .     S
C27194 C63206  1.452   .     S
C27194 H27287  1.137   .     S
C34195 C142231  1.481   .     S
C34195 H34288  1.122   .     S
C35196 C143232  1.543   .     S
C35196 H35289  1.072   .     S
C36197 C144233  1.418   .     S
C36197 H36290  1.097   .     S
C43198 H43291  1.096   .     S
C43198 H52294  1.097   .     S
C44199 H44292  1.133   .     S
C44199 H53295  1.099   .     S
C45200 H45293  1.056   .     S
C45200 H54296  1.081   .     S
C52201 C61204  1.515   .     S
C52201 C70207  1.481   .     S
C52201 H61297  1.069   .     S
C53202 C62205  1.461   .     S
C53202 C71208  1.519   .     S
C53202 H62298  1.096   .     S
C54203 C63206  1.572   .     S
C54203 C72209  1.447   .     S
C54203 H63299  1.124   .     S
C61204 C115222  1.478   .     S
C61204 H70300  1.121   .     S
C62205 C116223  1.494   .     S
C62205 H71301  1.073   .     S
C63206 C117224  1.430   .     S
C63206 H72302  1.096   .     S
C70207 C79210  1.445   .     D
C70207 C115222  1.363   .     S
C71208 C80211  1.414   .     D
C71208 C116223  1.316   .     S
C72209 C81212  1.356   .     D
C72209 C117224  1.413   .     S
C79210 C88213  1.373   .     S
C79210 C187246  1.485   .     S
C80211 C89214  1.470   .     S
C80211 C188247  1.462   .     S
C81212 C90215  1.399   .     S
C81212 C189248  1.568   .     S
C88213 C97216  1.426   .     D
C88213 H79303  1.122   .     S
C89214 C98217  1.372   .     D
C89214 H80304  1.097   .     S
C90215 C99218  1.474   .     D
C90215 H81305  1.050   .     S
C97216 C106219  1.470   .     S
C97216 N16276  1.393   .     S
C98217 C107220  1.430   .     S
C98217 N17277  1.490   .     S
C99218 C108221  1.376   .     S
C99218 N18278  1.411   .     S
C106219 C115222  1.361   .     D
C106219 C250306  1.541   .     S
C107220 C116223  1.447   .     D
C107220 C251307  1.446   .     S
C108221 C117224  1.381   .     D
C108221 C252308  1.555   .     S
C124225 C133228  1.348   .     S
C124225 C169240  1.480   .     D
C124225 C259309  1.503   .     S
C125226 C134229  1.443   .     S
C125226 C170241  1.409   .     D
C125226 C260310  1.468   .     S
C126227 C135230  1.410   .     S
C126227 C171242  1.380   .     D
C126227 C261311  1.570   .     S
C133228 C142231  1.368   .     D
C134229 C143232  1.331   .     D
C135230 C144233  1.428   .     D
C142231 C151234  1.460   .     S
C143232 C152235  1.382   .     S
C144233 C153236  1.363   .     S
C151234 C160237  1.359   .     D
C151234 C178243  1.503   .     S
C152235 C161238  1.454   .     D
C152235 C179244  1.456   .     S
C153236 C162239  1.411   .     D
C153236 C180245  1.561   .     S
C160237 C169240  1.413   .     S
C160237 H88312  1.130   .     S
C161238 C170241  1.376   .     S
C161238 H89313  1.071   .     S
C162239 C171242  1.477   .     S
C162239 H90314  1.055   .     S
C169240 N7261   1.385   .     S
C170241 N8262   1.478   .     S
C171242 N9263   1.449   .     S
C178243 H97315  1.143   .     S
C178243 H106318  1.089   .     S
C178243 H115321  1.125   .     S
C179244 H98316  1.098   .     S
C179244 H107319  1.155   .     S
C179244 H116322  1.141   .     S
C180245 H99317  1.122   .     S
C180245 H108320  1.106   .     S
C180245 H117323  1.092   .     S
C187246 H124324  1.144   .     S
C187246 H133327  1.104   .     S
C187246 H142330  1.125   .     S
C188247 H125325  1.137   .     S
C188247 H134328  1.123   .     S
C188247 H143331  1.126   .     S
C189248 H126326  1.069   .     S
C189248 H135329  1.133   .     S
C189248 H144332  1.108   .     S
C196249 C205252  1.508   .     S
C196249 C207254  1.507   .     S
C196249 C214258  1.296   .     D
C197250 C205252  1.436   .     S
C197250 C206253  1.498   .     S
C197250 C215259  1.357   .     D
C198251 C206253  1.521   .     S
C198251 C207254  1.425   .     S
C198251 C216260  1.395   .     D
C205252 O7255   1.265   .     D
C206253 O8256   1.174   .     D
C207254 O9257   1.252   .     D
C214258 N7261   1.490   .     S
C214258 H151333  1.107   .     S
C215259 N8262   1.409   .     S
C215259 H152334  1.051   .     S
C216260 N9263   1.423   .     S
C216260 H153335  1.107   .     S
N7261  H160336  1.050   .     S
N8262  H161337  1.017   .     S
N9263  H162338  1.081   .     S
C223264 C232267  1.479   .     S
C223264 C241273  1.286   .     D
C223264 C234269  1.519   1_655 S
C224265 C233268  1.516   .     S
C224265 C242274  1.352   .     D
C224265 C232267  1.444   1_455 S
C225266 C233268  1.495   .     S
C225266 C234269  1.434   .     S
C225266 C243275  1.405   .     D
C232267 O16270  1.281   .     D
C232267 C224265  1.444   1_655 S
C233268 O17271  1.173   .     D
C234269 O18272  1.235   .     D
C234269 C223264  1.519   1_455 S
C241273 N16276  1.464   .     S
C241273 H169339  1.118   .     S
C242274 H170340  1.058   .     S
C242274 N17277  1.437   1_445 S
C243275 N18278  1.420   .     S
C243275 H171341  1.094   .     S
N16276 H178342  1.075   .     S
N17277 H179343  1.007   .     S
N17277 C242274  1.437   1_665 S
N18278 H180344  1.062   .     S
C250306 H229360  1.062   .     S
C250306 H230361  1.142   .     S
C250306 H231362  1.121   .     S
C251307 H199351  1.123   .     S
C251307 H200352  1.140   .     S
C251307 H201353  1.126   .     S
C252308 H190345  1.111   .     S
C252308 H191346  1.088   .     S
C252308 H192347  1.122   .     S
C259309 H220357  1.109   .     S
C259309 H221358  1.098   .     S
C259309 H222359  1.153   .     S
C260310 H214354  1.119   .     S
C260310 H215355  1.117   .     S
C260310 H216356  1.145   .     S
C261311 H193348  1.098   .     S
C261311 H194349  1.078   .     S
C261311 H195350  1.137   .     S
C4371  C13374  1.539   .     S
C4371  C31380  1.503   .     S
C4371  C130413  1.486   .     S
C4371  H4464   1.071   .     S
C5372  C14375  1.502   .     S
C5372  C32381  1.457   .     S
C5372  C131414  1.538   .     S
C5372  H5465   1.097   .     S
C6373  C15376  1.470   .     S
C6373  C33382  1.565   .     S
C6373  C132415  1.410   .     S
C6373  H6466   1.123   .     S
C13374 C40383  1.443   .     S
C13374 C49386  1.500   .     S
C13374 H13467  1.104   .     S
C14375 C41384  1.480   .     S
C14375 C50387  1.565   .     S
C14375 H14468  1.047   .     S
C15376 C42385  1.543   .     S
C15376 C51388  1.450   .     S
C15376 H15469  1.115   .     S
C22377 C31380  1.477   .     S
C22377 C40383  1.529   .     S
C22377 C58389  1.515   .     S
C22377 H22470  1.064   .     S
C23378 C32381  1.524   .     S
C23378 C41384  1.440   .     S
C23378 C59390  1.551   .     S
C23378 H23471  1.067   .     S
C24379 C33382  1.488   .     S
C24379 C42385  1.499   .     S
C24379 C60391  1.452   .     S
C24379 H24472  1.137   .     S
C31380 C139416  1.481   .     S
C31380 H31473  1.122   .     S
C32381 C140417  1.543   .     S
C32381 H32474  1.072   .     S
C33382 C141418  1.418   .     S
C33382 H33475  1.097   .     S
C40383 H40476  1.095   .     S
C40383 H49479  1.097   .     S
C41384 H41477  1.133   .     S
C41384 H50480  1.099   .     S
C42385 H42478  1.056   .     S
C42385 H51481  1.081   .     S
C49386 C58389  1.515   .     S
C49386 C67392  1.481   .     S
C49386 H58482  1.069   .     S
C50387 C59390  1.461   .     S
C50387 C68393  1.518   .     S
C50387 H59483  1.096   .     S
C51388 C60391  1.572   .     S
C51388 C69394  1.447   .     S
C51388 H60484  1.124   .     S
C58389 C112407  1.478   .     S
C58389 H67485  1.121   .     S
C59390 C113408  1.493   .     S
C59390 H68486  1.073   .     S
C60391 C114409  1.430   .     S
C60391 H69487  1.096   .     S
C67392 C76395  1.444   .     D
C67392 C112407  1.363   .     S
C68393 C77396  1.414   .     D
C68393 C113408  1.317   .     S
C69394 C78397  1.357   .     D
C69394 C114409  1.413   .     S
C76395 C85398  1.372   .     S
C76395 C184431  1.485   .     S
C77396 C86399  1.470   .     S
C77396 C185432  1.463   .     S
C78397 C87400  1.399   .     S
C78397 C186433  1.568   .     S
C85398 C94401  1.426   .     D
C85398 H76488  1.121   .     S
C86399 C95402  1.372   .     D
C86399 H77489  1.097   .     S
C87400 C96403  1.475   .     D
C87400 H78490  1.050   .     S
C94401 C103404  1.470   .     S
C94401 N13461  1.392   .     S
C95402 C104405  1.430   .     S
C95402 N14462  1.490   .     S
C96403 C105406  1.376   .     S
C96403 N15463  1.412   .     S
C103404 C112407  1.360   .     D
C103404 C247491  1.540   .     S
C104405 C113408  1.447   .     D
C104405 C248492  1.446   .     S
C105406 C114409  1.381   .     D
C105406 C249493  1.555   .     S
C121410 C130413  1.348   .     S
C121410 C166425  1.480   .     D
C121410 C256494  1.503   .     S
C122411 C131414  1.443   .     S
C122411 C167426  1.409   .     D
C122411 C257495  1.469   .     S
C123412 C132415  1.410   .     S
C123412 C168427  1.380   .     D
C123412 C258496  1.570   .     S
C130413 C139416  1.367   .     D
C131414 C140417  1.331   .     D
C132415 C141418  1.428   .     D
C139416 C148419  1.460   .     S
C140417 C149420  1.383   .     S
C141418 C150421  1.363   .     S
C148419 C157422  1.359   .     D
C148419 C175428  1.503   .     S
C149420 C158423  1.454   .     D
C149420 C176429  1.456   .     S
C150421 C159424  1.411   .     D
C150421 C177430  1.561   .     S
C157422 C166425  1.413   .     S
C157422 H85497  1.130   .     S
C158423 C167426  1.377   .     S
C158423 H86498  1.071   .     S
C159424 C168427  1.478   .     S
C159424 H87499  1.055   .     S
C166425 N4446   1.384   .     S
C167426 N5447   1.478   .     S
C168427 N6448   1.449   .     S
C175428 H94500  1.143   .     S
C175428 H103503  1.089   .     S
C175428 H112506  1.125   .     S
C176429 H95501  1.097   .     S
C176429 H104504  1.155   .     S
C176429 H113507  1.141   .     S
C177430 H96502  1.122   .     S
C177430 H105505  1.106   .     S
C177430 H114508  1.092   .     S
C184431 H121509  1.144   .     S
C184431 H130512  1.104   .     S
C184431 H139515  1.125   .     S
C185432 H122510  1.138   .     S
C185432 H131513  1.123   .     S
C185432 H140516  1.125   .     S
C186433 H123511  1.069   .     S
C186433 H132514  1.133   .     S
C186433 H141517  1.108   .     S
C193434 C202437  1.508   .     S
C193434 C211443  1.296   .     D
C193434 C204439  1.507   1_455 S
C194435 C203438  1.498   .     S
C194435 C212444  1.357   .     D
C194435 C202437  1.436   1_545 S
C195436 C204439  1.425   .     S
C195436 C213445  1.395   .     D
C195436 C203438  1.520   1_665 S
C202437 O4440   1.265   .     D
C202437 C194435  1.436   1_565 S
C203438 O5441   1.174   .     D
C203438 C195436  1.520   1_445 S
C204439 O6442   1.253   .     D
C204439 C193434  1.507   1_655 S
C211443 N4446   1.490   .     S
C211443 H148518  1.107   .     S
C212444 N5447   1.408   .     S
C212444 H149519  1.051   .     S
C213445 N6448   1.424   .     S
C213445 H150520  1.106   .     S
N4446  H157521  1.051   .     S
N5447  H158522  1.018   .     S
N6448  H159523  1.081   .     S
C220449 C229452  1.479   .     S
C220449 C231454  1.518   .     S
C220449 C238458  1.286   .     D
C221450 C229452  1.445   .     S
C221450 C230453  1.516   .     S
C221450 C239459  1.353   .     D
C222451 C230453  1.496   .     S
C222451 C231454  1.435   .     S
C222451 C240460  1.405   .     D
C229452 O13455  1.281   .     D
C230453 O14456  1.172   .     D
C231454 O15457  1.235   .     D
C238458 N13461  1.465   .     S
C238458 H166524  1.118   .     S
C239459 N14462  1.438   .     S
C239459 H167525  1.058   .     S
C240460 N15463  1.420   .     S
C240460 H168526  1.094   .     S
N13461 H175527  1.075   .     S
N14462 H176528  1.007   .     S
N15463 H177529  1.062   .     S
C247491 H232545  1.063   .     S
C247491 H233546  1.141   .     S
C247491 H234547  1.121   .     S
C248492 H184530  1.123   .     S
C248492 H185531  1.140   .     S
C248492 H186532  1.125   .     S
C249493 H202536  1.111   .     S
C249493 H203537  1.088   .     S
C249493 H204538  1.122   .     S
C256494 H226542  1.110   .     S
C256494 H227543  1.098   .     S
C256494 H228544  1.153   .     S
C257495 H187533  1.119   .     S
C257495 H188534  1.117   .     S
C257495 H189535  1.145   .     S
C258496 H205539  1.097   .     S
C258496 H206540  1.078   .     S
C258496 H207541  1.137   .     S
