data_1150
_audit_creation_date              2023-09-08
_audit_creation_method            'Materials Studio'
_symmetry_space_group_name_H-M    'P1'
_symmetry_Int_Tables_number       1
_symmetry_cell_setting            triclinic
loop_
_symmetry_equiv_pos_as_xyz
  x,y,z
_cell_length_a                    39.4920
_cell_length_b                    39.4920
_cell_length_c                    83.9040
_cell_angle_alpha                 90.0000
_cell_angle_beta                  90.0000
_cell_angle_gamma                 90.0000
loop_
_atom_site_label
_atom_site_type_symbol
_atom_site_fract_x
_atom_site_fract_y
_atom_site_fract_z
_atom_site_U_iso_or_equiv
_atom_site_adp_type
_atom_site_occupancy
C1     C     0.50000   0.22047   0.63564   0.00000  Uiso   1.00
C2     C     0.50000   0.28267   0.63122   0.00000  Uiso   1.00
C3     C     0.50000   0.25397   0.64160   0.00000  Uiso   1.00
H4     H     0.50000   0.30935   0.63641   0.00000  Uiso   1.00
H5     H     0.50000   0.25776   0.65507   0.00000  Uiso   1.00
H6     H     0.50000   0.07150   0.67721   0.00000  Uiso   1.00
C7     C     0.50000   0.18853   0.64628   0.00000  Uiso   1.00
N8     N     0.50000   0.18848   0.66204   0.00000  Uiso   1.00
C9     C     0.50000   0.15987   0.67350   0.00000  Uiso   1.00
C10    C     0.50000   0.16717   0.68990   0.00000  Uiso   1.00
C11    C     0.50000   0.14158   0.70176   0.00000  Uiso   1.00
C12    C     0.50000   0.10630   0.69815   0.00000  Uiso   1.00
C13    C     0.50000   0.09892   0.68146   0.00000  Uiso   1.00
C14    C     0.50000   0.12499   0.66944   0.00000  Uiso   1.00
H15    H     0.50000   0.19460   0.69414   0.00000  Uiso   1.00
H16    H     0.50000   0.11698   0.65639   0.00000  Uiso   1.00
C17    C     0.50000   0.07857   0.71168   0.00000  Uiso   1.00
C18    C     0.50000   0.04252   0.70882   0.00000  Uiso   1.00
C19    C     0.50000   0.01884   0.72186   0.00000  Uiso   1.00
C20    C     0.50000   0.02969   0.73780   0.00000  Uiso   1.00
C21    C     0.50000   0.06442   0.74089   0.00000  Uiso   1.00
C22    C     0.50000   0.08813   0.72818   0.00000  Uiso   1.00
H23    H     0.50000   0.14884   0.71491   0.00000  Uiso   1.00
H24    H     0.50000   0.03244   0.69609   0.00000  Uiso   1.00
H25    H     0.50000   0.11644   0.73084   0.00000  Uiso   1.00
H26    H     0.50000   0.07396   0.75371   0.00000  Uiso   1.00
C27    C     0.00000   0.72047   0.13564   0.00000  Uiso   1.00
C28    C     0.00000   0.78267   0.13122   0.00000  Uiso   1.00
C29    C     0.00000   0.75397   0.14160   0.00000  Uiso   1.00
H30    H     0.00000   0.80935   0.13641   0.00000  Uiso   1.00
H31    H     0.00000   0.75776   0.15507   0.00000  Uiso   1.00
H32    H     0.00000   0.57150   0.17721   0.00000  Uiso   1.00
C33    C     0.00000   0.68853   0.14628   0.00000  Uiso   1.00
N34    N     0.00000   0.68848   0.16204   0.00000  Uiso   1.00
C35    C     0.00000   0.65987   0.17350   0.00000  Uiso   1.00
C36    C     0.00000   0.66717   0.18990   0.00000  Uiso   1.00
C37    C     0.00000   0.64158   0.20176   0.00000  Uiso   1.00
C38    C     0.00000   0.60630   0.19815   0.00000  Uiso   1.00
C39    C     0.00000   0.59892   0.18146   0.00000  Uiso   1.00
C40    C     0.00000   0.62499   0.16944   0.00000  Uiso   1.00
H41    H     0.00000   0.69460   0.19414   0.00000  Uiso   1.00
H42    H     0.00000   0.61698   0.15639   0.00000  Uiso   1.00
C43    C     0.00000   0.57857   0.21168   0.00000  Uiso   1.00
C44    C     0.00000   0.54252   0.20882   0.00000  Uiso   1.00
C45    C     0.00000   0.51884   0.22186   0.00000  Uiso   1.00
C46    C     0.00000   0.52969   0.23780   0.00000  Uiso   1.00
C47    C     0.00000   0.56442   0.24089   0.00000  Uiso   1.00
C48    C     0.00000   0.58813   0.22818   0.00000  Uiso   1.00
H49    H     0.00000   0.64884   0.21491   0.00000  Uiso   1.00
H50    H     0.00000   0.53244   0.19609   0.00000  Uiso   1.00
H51    H     0.00000   0.61644   0.23084   0.00000  Uiso   1.00
H52    H     0.00000   0.57396   0.25371   0.00000  Uiso   1.00
C53    C     0.00000   0.27953   0.13564   0.00000  Uiso   1.00
C54    C     0.00000   0.21733   0.13122   0.00000  Uiso   1.00
C55    C     0.00000   0.24603   0.14160   0.00000  Uiso   1.00
H56    H     0.00000   0.19065   0.13641   0.00000  Uiso   1.00
H57    H     0.00000   0.24224   0.15507   0.00000  Uiso   1.00
H58    H     0.00000   0.42850   0.17721   0.00000  Uiso   1.00
C59    C     0.00000   0.31147   0.14628   0.00000  Uiso   1.00
N60    N     0.00000   0.31152   0.16204   0.00000  Uiso   1.00
C61    C     0.00000   0.34013   0.17350   0.00000  Uiso   1.00
C62    C     0.00000   0.33283   0.18990   0.00000  Uiso   1.00
C63    C     0.00000   0.35842   0.20176   0.00000  Uiso   1.00
C64    C     0.00000   0.39370   0.19815   0.00000  Uiso   1.00
C65    C     0.00000   0.40108   0.18146   0.00000  Uiso   1.00
C66    C     0.00000   0.37501   0.16944   0.00000  Uiso   1.00
H67    H     0.00000   0.30540   0.19414   0.00000  Uiso   1.00
H68    H     0.00000   0.38302   0.15639   0.00000  Uiso   1.00
C69    C     0.00000   0.42143   0.21168   0.00000  Uiso   1.00
C70    C     0.00000   0.45748   0.20882   0.00000  Uiso   1.00
C71    C     0.00000   0.48116   0.22186   0.00000  Uiso   1.00
C72    C     0.00000   0.47031   0.23780   0.00000  Uiso   1.00
C73    C     0.00000   0.43558   0.24089   0.00000  Uiso   1.00
C74    C     0.00000   0.41187   0.22818   0.00000  Uiso   1.00
H75    H     0.00000   0.35116   0.21491   0.00000  Uiso   1.00
H76    H     0.00000   0.46756   0.19609   0.00000  Uiso   1.00
H77    H     0.00000   0.38356   0.23084   0.00000  Uiso   1.00
H78    H     0.00000   0.42604   0.25371   0.00000  Uiso   1.00
C79    C     0.50000   0.77953   0.63564   0.00000  Uiso   1.00
C80    C     0.50000   0.71733   0.63122   0.00000  Uiso   1.00
C81    C     0.50000   0.74603   0.64160   0.00000  Uiso   1.00
H82    H     0.50000   0.69065   0.63641   0.00000  Uiso   1.00
H83    H     0.50000   0.74224   0.65507   0.00000  Uiso   1.00
H84    H     0.50000   0.92850   0.67721   0.00000  Uiso   1.00
C85    C     0.50000   0.81147   0.64628   0.00000  Uiso   1.00
N86    N     0.50000   0.81152   0.66204   0.00000  Uiso   1.00
C87    C     0.50000   0.84013   0.67350   0.00000  Uiso   1.00
C88    C     0.50000   0.83283   0.68990   0.00000  Uiso   1.00
C89    C     0.50000   0.85842   0.70176   0.00000  Uiso   1.00
C90    C     0.50000   0.89370   0.69815   0.00000  Uiso   1.00
C91    C     0.50000   0.90108   0.68146   0.00000  Uiso   1.00
C92    C     0.50000   0.87501   0.66944   0.00000  Uiso   1.00
H93    H     0.50000   0.80540   0.69414   0.00000  Uiso   1.00
H94    H     0.50000   0.88302   0.65639   0.00000  Uiso   1.00
C95    C     0.50000   0.92143   0.71168   0.00000  Uiso   1.00
C96    C     0.50000   0.95748   0.70882   0.00000  Uiso   1.00
C97    C     0.50000   0.98116   0.72186   0.00000  Uiso   1.00
C98    C     0.50000   0.97031   0.73780   0.00000  Uiso   1.00
C99    C     0.50000   0.93558   0.74089   0.00000  Uiso   1.00
C100   C     0.50000   0.91187   0.72818   0.00000  Uiso   1.00
H101   H     0.50000   0.85116   0.71491   0.00000  Uiso   1.00
H102   H     0.50000   0.96756   0.69609   0.00000  Uiso   1.00
H103   H     0.50000   0.88356   0.73084   0.00000  Uiso   1.00
H104   H     0.50000   0.92604   0.75371   0.00000  Uiso   1.00
C105   C     0.77953   0.00000   0.88564   0.00000  Uiso   1.00
C106   C     0.71733   0.00000   0.88122   0.00000  Uiso   1.00
C107   C     0.74603   0.00000   0.89160   0.00000  Uiso   1.00
H108   H     0.69065   0.00000   0.88641   0.00000  Uiso   1.00
H109   H     0.74224   0.00000   0.90507   0.00000  Uiso   1.00
H110   H     0.92850   0.00000   0.92721   0.00000  Uiso   1.00
C111   C     0.81147   0.00000   0.89628   0.00000  Uiso   1.00
N112   N     0.81152   0.00000   0.91204   0.00000  Uiso   1.00
C113   C     0.84013   0.00000   0.92350   0.00000  Uiso   1.00
C114   C     0.83283   0.00000   0.93990   0.00000  Uiso   1.00
C115   C     0.85842   0.00000   0.95176   0.00000  Uiso   1.00
C116   C     0.89370   0.00000   0.94815   0.00000  Uiso   1.00
C117   C     0.90108   0.00000   0.93146   0.00000  Uiso   1.00
C118   C     0.87501   0.00000   0.91944   0.00000  Uiso   1.00
H119   H     0.80540   0.00000   0.94414   0.00000  Uiso   1.00
H120   H     0.88302   0.00000   0.90639   0.00000  Uiso   1.00
C121   C     0.92143   0.00000   0.96168   0.00000  Uiso   1.00
C122   C     0.95748   0.00000   0.95882   0.00000  Uiso   1.00
C123   C     0.98116   0.00000   0.97186   0.00000  Uiso   1.00
C124   C     0.97031   0.00000   0.98780   0.00000  Uiso   1.00
C125   C     0.93558   0.00000   0.99089   0.00000  Uiso   1.00
C126   C     0.91187   0.00000   0.97818   0.00000  Uiso   1.00
H127   H     0.85116   0.00000   0.96491   0.00000  Uiso   1.00
H128   H     0.96756   0.00000   0.94609   0.00000  Uiso   1.00
H129   H     0.88356   0.00000   0.98084   0.00000  Uiso   1.00
H130   H     0.92604   0.00000   0.00371   0.00000  Uiso   1.00
C131   C     0.27953   0.50000   0.38564   0.00000  Uiso   1.00
C132   C     0.21733   0.50000   0.38122   0.00000  Uiso   1.00
C133   C     0.24603   0.50000   0.39160   0.00000  Uiso   1.00
H134   H     0.19065   0.50000   0.38641   0.00000  Uiso   1.00
H135   H     0.24224   0.50000   0.40507   0.00000  Uiso   1.00
H136   H     0.42850   0.50000   0.42721   0.00000  Uiso   1.00
C137   C     0.31147   0.50000   0.39628   0.00000  Uiso   1.00
N138   N     0.31152   0.50000   0.41204   0.00000  Uiso   1.00
C139   C     0.34013   0.50000   0.42350   0.00000  Uiso   1.00
C140   C     0.33283   0.50000   0.43990   0.00000  Uiso   1.00
C141   C     0.35842   0.50000   0.45176   0.00000  Uiso   1.00
C142   C     0.39370   0.50000   0.44815   0.00000  Uiso   1.00
C143   C     0.40108   0.50000   0.43146   0.00000  Uiso   1.00
C144   C     0.37501   0.50000   0.41944   0.00000  Uiso   1.00
H145   H     0.30540   0.50000   0.44414   0.00000  Uiso   1.00
H146   H     0.38302   0.50000   0.40639   0.00000  Uiso   1.00
C147   C     0.42143   0.50000   0.46168   0.00000  Uiso   1.00
C148   C     0.45748   0.50000   0.45882   0.00000  Uiso   1.00
C149   C     0.48116   0.50000   0.47186   0.00000  Uiso   1.00
C150   C     0.47031   0.50000   0.48780   0.00000  Uiso   1.00
C151   C     0.43558   0.50000   0.49089   0.00000  Uiso   1.00
C152   C     0.41187   0.50000   0.47818   0.00000  Uiso   1.00
H153   H     0.35116   0.50000   0.46491   0.00000  Uiso   1.00
H154   H     0.46756   0.50000   0.44609   0.00000  Uiso   1.00
H155   H     0.38356   0.50000   0.48084   0.00000  Uiso   1.00
H156   H     0.42604   0.50000   0.50371   0.00000  Uiso   1.00
C157   C     0.72047   0.50000   0.38564   0.00000  Uiso   1.00
C158   C     0.78267   0.50000   0.38122   0.00000  Uiso   1.00
C159   C     0.75397   0.50000   0.39160   0.00000  Uiso   1.00
H160   H     0.80935   0.50000   0.38641   0.00000  Uiso   1.00
H161   H     0.75776   0.50000   0.40507   0.00000  Uiso   1.00
H162   H     0.57150   0.50000   0.42721   0.00000  Uiso   1.00
C163   C     0.68853   0.50000   0.39628   0.00000  Uiso   1.00
N164   N     0.68848   0.50000   0.41204   0.00000  Uiso   1.00
C165   C     0.65987   0.50000   0.42350   0.00000  Uiso   1.00
C166   C     0.66717   0.50000   0.43990   0.00000  Uiso   1.00
C167   C     0.64158   0.50000   0.45176   0.00000  Uiso   1.00
C168   C     0.60630   0.50000   0.44815   0.00000  Uiso   1.00
C169   C     0.59892   0.50000   0.43146   0.00000  Uiso   1.00
C170   C     0.62499   0.50000   0.41944   0.00000  Uiso   1.00
H171   H     0.69460   0.50000   0.44414   0.00000  Uiso   1.00
H172   H     0.61698   0.50000   0.40639   0.00000  Uiso   1.00
C173   C     0.57857   0.50000   0.46168   0.00000  Uiso   1.00
C174   C     0.54252   0.50000   0.45882   0.00000  Uiso   1.00
C175   C     0.51884   0.50000   0.47186   0.00000  Uiso   1.00
C176   C     0.52969   0.50000   0.48780   0.00000  Uiso   1.00
C177   C     0.56442   0.50000   0.49089   0.00000  Uiso   1.00
C178   C     0.58813   0.50000   0.47818   0.00000  Uiso   1.00
H179   H     0.64884   0.50000   0.46491   0.00000  Uiso   1.00
H180   H     0.53244   0.50000   0.44609   0.00000  Uiso   1.00
H181   H     0.61644   0.50000   0.48084   0.00000  Uiso   1.00
H182   H     0.57396   0.50000   0.50371   0.00000  Uiso   1.00
C183   C     0.00000   0.22047   0.11436   0.00000  Uiso   1.00
C184   C     0.00000   0.28267   0.11878   0.00000  Uiso   1.00
C185   C     0.00000   0.25397   0.10840   0.00000  Uiso   1.00
H186   H     0.00000   0.30935   0.11359   0.00000  Uiso   1.00
H187   H     0.00000   0.25776   0.09493   0.00000  Uiso   1.00
H188   H     0.00000   0.07150   0.07279   0.00000  Uiso   1.00
C189   C     0.00000   0.18853   0.10372   0.00000  Uiso   1.00
N190   N     0.00000   0.18848   0.08796   0.00000  Uiso   1.00
C191   C     0.00000   0.15987   0.07650   0.00000  Uiso   1.00
C192   C     0.00000   0.16717   0.06010   0.00000  Uiso   1.00
C193   C     0.00000   0.14158   0.04824   0.00000  Uiso   1.00
C194   C     0.00000   0.10630   0.05185   0.00000  Uiso   1.00
C195   C     0.00000   0.09892   0.06854   0.00000  Uiso   1.00
C196   C     0.00000   0.12499   0.08056   0.00000  Uiso   1.00
H197   H     0.00000   0.19460   0.05586   0.00000  Uiso   1.00
H198   H     0.00000   0.11698   0.09361   0.00000  Uiso   1.00
C199   C     0.00000   0.07857   0.03832   0.00000  Uiso   1.00
C200   C     0.00000   0.04252   0.04118   0.00000  Uiso   1.00
C201   C     0.00000   0.01884   0.02814   0.00000  Uiso   1.00
C202   C     0.00000   0.02969   0.01220   0.00000  Uiso   1.00
C203   C     0.00000   0.06442   0.00911   0.00000  Uiso   1.00
C204   C     0.00000   0.08813   0.02182   0.00000  Uiso   1.00
H205   H     0.00000   0.14884   0.03509   0.00000  Uiso   1.00
H206   H     0.00000   0.03244   0.05391   0.00000  Uiso   1.00
H207   H     0.00000   0.11644   0.01916   0.00000  Uiso   1.00
H208   H     0.00000   0.07396   0.99629   0.00000  Uiso   1.00
C209   C     0.50000   0.72047   0.61436   0.00000  Uiso   1.00
C210   C     0.50000   0.78267   0.61878   0.00000  Uiso   1.00
C211   C     0.50000   0.75397   0.60840   0.00000  Uiso   1.00
H212   H     0.50000   0.80935   0.61359   0.00000  Uiso   1.00
H213   H     0.50000   0.75776   0.59493   0.00000  Uiso   1.00
H214   H     0.50000   0.57150   0.57279   0.00000  Uiso   1.00
C215   C     0.50000   0.68853   0.60372   0.00000  Uiso   1.00
N216   N     0.50000   0.68848   0.58796   0.00000  Uiso   1.00
C217   C     0.50000   0.65987   0.57650   0.00000  Uiso   1.00
C218   C     0.50000   0.66717   0.56010   0.00000  Uiso   1.00
C219   C     0.50000   0.64158   0.54824   0.00000  Uiso   1.00
C220   C     0.50000   0.60630   0.55185   0.00000  Uiso   1.00
C221   C     0.50000   0.59892   0.56854   0.00000  Uiso   1.00
C222   C     0.50000   0.62499   0.58056   0.00000  Uiso   1.00
H223   H     0.50000   0.69460   0.55586   0.00000  Uiso   1.00
H224   H     0.50000   0.61698   0.59361   0.00000  Uiso   1.00
C225   C     0.50000   0.57857   0.53832   0.00000  Uiso   1.00
C226   C     0.50000   0.54252   0.54118   0.00000  Uiso   1.00
C227   C     0.50000   0.51884   0.52814   0.00000  Uiso   1.00
C228   C     0.50000   0.52969   0.51220   0.00000  Uiso   1.00
C229   C     0.50000   0.56442   0.50911   0.00000  Uiso   1.00
C230   C     0.50000   0.58813   0.52182   0.00000  Uiso   1.00
H231   H     0.50000   0.64884   0.53509   0.00000  Uiso   1.00
H232   H     0.50000   0.53244   0.55391   0.00000  Uiso   1.00
H233   H     0.50000   0.61644   0.51916   0.00000  Uiso   1.00
H234   H     0.50000   0.57396   0.49629   0.00000  Uiso   1.00
C235   C     0.50000   0.27953   0.61436   0.00000  Uiso   1.00
C236   C     0.50000   0.21733   0.61878   0.00000  Uiso   1.00
C237   C     0.50000   0.24603   0.60840   0.00000  Uiso   1.00
H238   H     0.50000   0.19065   0.61359   0.00000  Uiso   1.00
H239   H     0.50000   0.24224   0.59493   0.00000  Uiso   1.00
H240   H     0.50000   0.42850   0.57279   0.00000  Uiso   1.00
C241   C     0.50000   0.31147   0.60372   0.00000  Uiso   1.00
N242   N     0.50000   0.31152   0.58796   0.00000  Uiso   1.00
C243   C     0.50000   0.34013   0.57650   0.00000  Uiso   1.00
C244   C     0.50000   0.33283   0.56010   0.00000  Uiso   1.00
C245   C     0.50000   0.35842   0.54824   0.00000  Uiso   1.00
C246   C     0.50000   0.39370   0.55185   0.00000  Uiso   1.00
C247   C     0.50000   0.40108   0.56854   0.00000  Uiso   1.00
C248   C     0.50000   0.37501   0.58056   0.00000  Uiso   1.00
H249   H     0.50000   0.30540   0.55586   0.00000  Uiso   1.00
H250   H     0.50000   0.38302   0.59361   0.00000  Uiso   1.00
C251   C     0.50000   0.42143   0.53832   0.00000  Uiso   1.00
C252   C     0.50000   0.45748   0.54118   0.00000  Uiso   1.00
C253   C     0.50000   0.48116   0.52814   0.00000  Uiso   1.00
C254   C     0.50000   0.47031   0.51220   0.00000  Uiso   1.00
C255   C     0.50000   0.43558   0.50911   0.00000  Uiso   1.00
C256   C     0.50000   0.41187   0.52182   0.00000  Uiso   1.00
H257   H     0.50000   0.35116   0.53509   0.00000  Uiso   1.00
H258   H     0.50000   0.46756   0.55391   0.00000  Uiso   1.00
H259   H     0.50000   0.38356   0.51916   0.00000  Uiso   1.00
H260   H     0.50000   0.42604   0.49629   0.00000  Uiso   1.00
C261   C     0.00000   0.77953   0.11436   0.00000  Uiso   1.00
C262   C     0.00000   0.71733   0.11878   0.00000  Uiso   1.00
C263   C     0.00000   0.74603   0.10840   0.00000  Uiso   1.00
H264   H     0.00000   0.69065   0.11359   0.00000  Uiso   1.00
H265   H     0.00000   0.74224   0.09493   0.00000  Uiso   1.00
H266   H     0.00000   0.92850   0.07279   0.00000  Uiso   1.00
C267   C     0.00000   0.81147   0.10372   0.00000  Uiso   1.00
N268   N     0.00000   0.81152   0.08796   0.00000  Uiso   1.00
C269   C     0.00000   0.84013   0.07650   0.00000  Uiso   1.00
C270   C     0.00000   0.83283   0.06010   0.00000  Uiso   1.00
C271   C     0.00000   0.85842   0.04824   0.00000  Uiso   1.00
C272   C     0.00000   0.89370   0.05185   0.00000  Uiso   1.00
C273   C     0.00000   0.90108   0.06854   0.00000  Uiso   1.00
C274   C     0.00000   0.87501   0.08056   0.00000  Uiso   1.00
H275   H     0.00000   0.80540   0.05586   0.00000  Uiso   1.00
H276   H     0.00000   0.88302   0.09361   0.00000  Uiso   1.00
C277   C     0.00000   0.92143   0.03832   0.00000  Uiso   1.00
C278   C     0.00000   0.95748   0.04118   0.00000  Uiso   1.00
C279   C     0.00000   0.98116   0.02814   0.00000  Uiso   1.00
C280   C     0.00000   0.97031   0.01220   0.00000  Uiso   1.00
C281   C     0.00000   0.93558   0.00911   0.00000  Uiso   1.00
C282   C     0.00000   0.91187   0.02182   0.00000  Uiso   1.00
H283   H     0.00000   0.85116   0.03509   0.00000  Uiso   1.00
H284   H     0.00000   0.96756   0.05391   0.00000  Uiso   1.00
H285   H     0.00000   0.88356   0.01916   0.00000  Uiso   1.00
H286   H     0.00000   0.92604   0.99629   0.00000  Uiso   1.00
C287   C     0.72047   0.00000   0.86436   0.00000  Uiso   1.00
C288   C     0.78267   0.00000   0.86878   0.00000  Uiso   1.00
C289   C     0.75397   0.00000   0.85840   0.00000  Uiso   1.00
H290   H     0.80935   0.00000   0.86359   0.00000  Uiso   1.00
H291   H     0.75776   0.00000   0.84493   0.00000  Uiso   1.00
H292   H     0.57150   0.00000   0.82279   0.00000  Uiso   1.00
C293   C     0.68853   0.00000   0.85372   0.00000  Uiso   1.00
N294   N     0.68848   0.00000   0.83796   0.00000  Uiso   1.00
C295   C     0.65987   0.00000   0.82650   0.00000  Uiso   1.00
C296   C     0.66717   0.00000   0.81010   0.00000  Uiso   1.00
C297   C     0.64158   0.00000   0.79824   0.00000  Uiso   1.00
C298   C     0.60630   0.00000   0.80185   0.00000  Uiso   1.00
C299   C     0.59892   0.00000   0.81854   0.00000  Uiso   1.00
C300   C     0.62499   0.00000   0.83056   0.00000  Uiso   1.00
H301   H     0.69460   0.00000   0.80586   0.00000  Uiso   1.00
H302   H     0.61698   0.00000   0.84361   0.00000  Uiso   1.00
C303   C     0.57857   0.00000   0.78832   0.00000  Uiso   1.00
C304   C     0.54252   0.00000   0.79118   0.00000  Uiso   1.00
C305   C     0.51884   0.00000   0.77814   0.00000  Uiso   1.00
C306   C     0.52969   0.00000   0.76220   0.00000  Uiso   1.00
C307   C     0.56442   0.00000   0.75911   0.00000  Uiso   1.00
C308   C     0.58813   0.00000   0.77182   0.00000  Uiso   1.00
H309   H     0.64884   0.00000   0.78509   0.00000  Uiso   1.00
H310   H     0.53244   0.00000   0.80391   0.00000  Uiso   1.00
H311   H     0.61644   0.00000   0.76916   0.00000  Uiso   1.00
H312   H     0.57396   0.00000   0.74629   0.00000  Uiso   1.00
C313   C     0.77953   0.50000   0.36436   0.00000  Uiso   1.00
C314   C     0.71733   0.50000   0.36878   0.00000  Uiso   1.00
C315   C     0.74603   0.50000   0.35840   0.00000  Uiso   1.00
H316   H     0.69065   0.50000   0.36359   0.00000  Uiso   1.00
H317   H     0.74224   0.50000   0.34493   0.00000  Uiso   1.00
H318   H     0.92850   0.50000   0.32279   0.00000  Uiso   1.00
C319   C     0.81147   0.50000   0.35372   0.00000  Uiso   1.00
N320   N     0.81152   0.50000   0.33796   0.00000  Uiso   1.00
C321   C     0.84013   0.50000   0.32650   0.00000  Uiso   1.00
C322   C     0.83283   0.50000   0.31010   0.00000  Uiso   1.00
C323   C     0.85842   0.50000   0.29824   0.00000  Uiso   1.00
C324   C     0.89370   0.50000   0.30185   0.00000  Uiso   1.00
C325   C     0.90108   0.50000   0.31854   0.00000  Uiso   1.00
C326   C     0.87501   0.50000   0.33056   0.00000  Uiso   1.00
H327   H     0.80540   0.50000   0.30586   0.00000  Uiso   1.00
H328   H     0.88302   0.50000   0.34361   0.00000  Uiso   1.00
C329   C     0.92143   0.50000   0.28832   0.00000  Uiso   1.00
C330   C     0.95748   0.50000   0.29118   0.00000  Uiso   1.00
C331   C     0.98116   0.50000   0.27814   0.00000  Uiso   1.00
C332   C     0.97031   0.50000   0.26220   0.00000  Uiso   1.00
C333   C     0.93558   0.50000   0.25911   0.00000  Uiso   1.00
C334   C     0.91187   0.50000   0.27182   0.00000  Uiso   1.00
H335   H     0.85116   0.50000   0.28509   0.00000  Uiso   1.00
H336   H     0.96756   0.50000   0.30391   0.00000  Uiso   1.00
H337   H     0.88356   0.50000   0.26916   0.00000  Uiso   1.00
H338   H     0.92604   0.50000   0.24629   0.00000  Uiso   1.00
C339   C     0.22047   0.50000   0.36436   0.00000  Uiso   1.00
C340   C     0.28267   0.50000   0.36878   0.00000  Uiso   1.00
C341   C     0.25397   0.50000   0.35840   0.00000  Uiso   1.00
H342   H     0.30935   0.50000   0.36359   0.00000  Uiso   1.00
H343   H     0.25776   0.50000   0.34493   0.00000  Uiso   1.00
H344   H     0.07150   0.50000   0.32279   0.00000  Uiso   1.00
C345   C     0.18853   0.50000   0.35372   0.00000  Uiso   1.00
N346   N     0.18848   0.50000   0.33796   0.00000  Uiso   1.00
C347   C     0.15987   0.50000   0.32650   0.00000  Uiso   1.00
C348   C     0.16717   0.50000   0.31010   0.00000  Uiso   1.00
C349   C     0.14158   0.50000   0.29824   0.00000  Uiso   1.00
C350   C     0.10630   0.50000   0.30185   0.00000  Uiso   1.00
C351   C     0.09892   0.50000   0.31854   0.00000  Uiso   1.00
C352   C     0.12499   0.50000   0.33056   0.00000  Uiso   1.00
H353   H     0.19460   0.50000   0.30586   0.00000  Uiso   1.00
H354   H     0.11698   0.50000   0.34361   0.00000  Uiso   1.00
C355   C     0.07857   0.50000   0.28832   0.00000  Uiso   1.00
C356   C     0.04252   0.50000   0.29118   0.00000  Uiso   1.00
C357   C     0.01884   0.50000   0.27814   0.00000  Uiso   1.00
C358   C     0.02969   0.50000   0.26220   0.00000  Uiso   1.00
C359   C     0.06442   0.50000   0.25911   0.00000  Uiso   1.00
C360   C     0.08813   0.50000   0.27182   0.00000  Uiso   1.00
H361   H     0.14884   0.50000   0.28509   0.00000  Uiso   1.00
H362   H     0.03244   0.50000   0.30391   0.00000  Uiso   1.00
H363   H     0.11644   0.50000   0.26916   0.00000  Uiso   1.00
H364   H     0.07396   0.50000   0.24629   0.00000  Uiso   1.00
C365   C     0.27953   0.00000   0.86436   0.00000  Uiso   1.00
C366   C     0.21733   0.00000   0.86878   0.00000  Uiso   1.00
C367   C     0.24603   0.00000   0.85840   0.00000  Uiso   1.00
H368   H     0.19065   0.00000   0.86359   0.00000  Uiso   1.00
H369   H     0.24224   0.00000   0.84493   0.00000  Uiso   1.00
H370   H     0.42850   0.00000   0.82279   0.00000  Uiso   1.00
C371   C     0.31147   0.00000   0.85372   0.00000  Uiso   1.00
N372   N     0.31152   0.00000   0.83796   0.00000  Uiso   1.00
C373   C     0.34013   0.00000   0.82650   0.00000  Uiso   1.00
C374   C     0.33283   0.00000   0.81010   0.00000  Uiso   1.00
C375   C     0.35842   0.00000   0.79824   0.00000  Uiso   1.00
C376   C     0.39370   0.00000   0.80185   0.00000  Uiso   1.00
C377   C     0.40108   0.00000   0.81854   0.00000  Uiso   1.00
C378   C     0.37501   0.00000   0.83056   0.00000  Uiso   1.00
H379   H     0.30540   0.00000   0.80586   0.00000  Uiso   1.00
H380   H     0.38302   0.00000   0.84361   0.00000  Uiso   1.00
C381   C     0.42143   0.00000   0.78832   0.00000  Uiso   1.00
C382   C     0.45748   0.00000   0.79118   0.00000  Uiso   1.00
C383   C     0.48116   0.00000   0.77814   0.00000  Uiso   1.00
C384   C     0.47031   0.00000   0.76220   0.00000  Uiso   1.00
C385   C     0.43558   0.00000   0.75911   0.00000  Uiso   1.00
C386   C     0.41187   0.00000   0.77182   0.00000  Uiso   1.00
H387   H     0.35116   0.00000   0.78509   0.00000  Uiso   1.00
H388   H     0.46756   0.00000   0.80391   0.00000  Uiso   1.00
H389   H     0.38356   0.00000   0.76916   0.00000  Uiso   1.00
H390   H     0.42604   0.00000   0.74629   0.00000  Uiso   1.00
C391   C     0.22047   0.00000   0.88564   0.00000  Uiso   1.00
C392   C     0.28267   0.00000   0.88122   0.00000  Uiso   1.00
C393   C     0.25397   0.00000   0.89160   0.00000  Uiso   1.00
H394   H     0.30935   0.00000   0.88641   0.00000  Uiso   1.00
H395   H     0.25776   0.00000   0.90507   0.00000  Uiso   1.00
H396   H     0.07150   0.00000   0.92721   0.00000  Uiso   1.00
C397   C     0.18853   0.00000   0.89628   0.00000  Uiso   1.00
N398   N     0.18848   0.00000   0.91204   0.00000  Uiso   1.00
C399   C     0.15987   0.00000   0.92350   0.00000  Uiso   1.00
C400   C     0.16717   0.00000   0.93990   0.00000  Uiso   1.00
C401   C     0.14158   0.00000   0.95176   0.00000  Uiso   1.00
C402   C     0.10630   0.00000   0.94815   0.00000  Uiso   1.00
C403   C     0.09892   0.00000   0.93146   0.00000  Uiso   1.00
C404   C     0.12499   0.00000   0.91944   0.00000  Uiso   1.00
H405   H     0.19460   0.00000   0.94414   0.00000  Uiso   1.00
H406   H     0.11698   0.00000   0.90639   0.00000  Uiso   1.00
C407   C     0.07857   0.00000   0.96168   0.00000  Uiso   1.00
C408   C     0.04252   0.00000   0.95882   0.00000  Uiso   1.00
C409   C     0.01884   0.00000   0.97186   0.00000  Uiso   1.00
C410   C     0.02969   0.00000   0.98780   0.00000  Uiso   1.00
C411   C     0.06442   0.00000   0.99089   0.00000  Uiso   1.00
C412   C     0.08813   0.00000   0.97818   0.00000  Uiso   1.00
H413   H     0.14884   0.00000   0.96491   0.00000  Uiso   1.00
H414   H     0.03244   0.00000   0.94609   0.00000  Uiso   1.00
H415   H     0.11644   0.00000   0.98084   0.00000  Uiso   1.00
H416   H     0.07396   0.00000   0.00371   0.00000  Uiso   1.00
C417   C     0.50000   0.00000   0.75000   0.00000  Uiso   1.00
C418   C     0.00000   0.50000   0.25000   0.00000  Uiso   1.00
C419   C     0.00000   0.00000   0.00000   0.00000  Uiso   1.00
C420   C     0.50000   0.50000   0.50000   0.00000  Uiso   1.00
H421   H     0.50000   0.16231   0.64060   0.00000  Uiso   1.00
H422   H     0.00000   0.66231   0.14060   0.00000  Uiso   1.00
H423   H     0.00000   0.33769   0.14060   0.00000  Uiso   1.00
H424   H     0.50000   0.83769   0.64060   0.00000  Uiso   1.00
H425   H     0.83769   0.00000   0.89060   0.00000  Uiso   1.00
H426   H     0.33769   0.50000   0.39060   0.00000  Uiso   1.00
H427   H     0.66231   0.50000   0.39060   0.00000  Uiso   1.00
H428   H     0.00000   0.16231   0.10940   0.00000  Uiso   1.00
H429   H     0.50000   0.66231   0.60940   0.00000  Uiso   1.00
H430   H     0.50000   0.33769   0.60940   0.00000  Uiso   1.00
H431   H     0.00000   0.83769   0.10940   0.00000  Uiso   1.00
H432   H     0.66231   0.00000   0.85940   0.00000  Uiso   1.00
H433   H     0.83769   0.50000   0.35940   0.00000  Uiso   1.00
H434   H     0.16231   0.50000   0.35940   0.00000  Uiso   1.00
H435   H     0.33769   0.00000   0.85940   0.00000  Uiso   1.00
H436   H     0.16231   0.00000   0.89060   0.00000  Uiso   1.00
loop_
_geom_bond_atom_site_label_1
_geom_bond_atom_site_label_2
_geom_bond_distance
_geom_bond_site_symmetry_2
_ccdc_geom_bond_type
C1     C3      1.414   .     D
C1     C7      1.545   .     S
C1     C236    1.420   .     S
C2     C3      1.429   .     S
C2     H4      1.140   .     S
C2     C235    1.420   .     D
C3     H5      1.140   .     S
H6     C13     1.140   .     S
C7     N8      1.322   .     D
C7     H421    1.140   .     S
N8     C9      1.484   .     S
C9     C10     1.406   .     D
C9     C14     1.419   .     S
C10    C11     1.418   .     S
C10    H15     1.140   .     S
C11    C12     1.426   .     D
C11    H23     1.140   .     S
C12    C13     1.430   .     S
C12    C17     1.577   .     S
C13    C14     1.441   .     D
C14    H16     1.140   .     S
C17    C18     1.444   .     D
C17    C22     1.435   .     S
C18    C19     1.439   .     S
C18    H24     1.140   .     S
C19    C20     1.404   .     D
C19    C97     1.488   1_545 S
C20    C21     1.396   .     S
C20    C417    1.556   .     S
C21    C22     1.419   .     D
C21    H26     1.140   .     S
C22    H25     1.140   .     S
C27    C29     1.414   .     D
C27    C33     1.545   .     S
C27    C262    1.420   .     S
C28    C29     1.429   .     S
C28    H30     1.140   .     S
C28    C261    1.420   .     D
C29    H31     1.140   .     S
H32    C39     1.140   .     S
C33    N34     1.322   .     D
C33    H422    1.140   .     S
N34    C35     1.484   .     S
C35    C36     1.406   .     D
C35    C40     1.419   .     S
C36    C37     1.418   .     S
C36    H41     1.140   .     S
C37    C38     1.426   .     D
C37    H49     1.140   .     S
C38    C39     1.430   .     S
C38    C43     1.577   .     S
C39    C40     1.441   .     D
C40    H42     1.140   .     S
C43    C44     1.444   .     D
C43    C48     1.435   .     S
C44    C45     1.439   .     S
C44    H50     1.140   .     S
C45    C46     1.404   .     D
C45    C71     1.488   .     S
C46    C47     1.396   .     S
C46    C418    1.556   .     S
C47    C48     1.419   .     D
C47    H52     1.140   .     S
C48    H51     1.140   .     S
C53    C55     1.414   .     S
C53    C59     1.545   .     S
C53    C184    1.420   .     D
C54    C55     1.429   .     D
C54    H56     1.140   .     S
C54    C183    1.420   .     S
C55    H57     1.140   .     S
H58    C65     1.140   .     S
C59    N60     1.322   .     D
C59    H423    1.140   .     S
N60    C61     1.484   .     S
C61    C62     1.406   .     S
C61    C66     1.419   .     D
C62    C63     1.418   .     D
C62    H67     1.140   .     S
C63    C64     1.426   .     S
C63    H75     1.140   .     S
C64    C65     1.430   .     D
C64    C69     1.577   .     S
C65    C66     1.441   .     S
C66    H68     1.140   .     S
C69    C70     1.444   .     S
C69    C74     1.435   .     D
C70    C71     1.439   .     D
C70    H76     1.140   .     S
C71    C72     1.404   .     S
C72    C73     1.396   .     D
C72    C418    1.556   .     S
C73    C74     1.419   .     S
C73    H78     1.140   .     S
C74    H77     1.140   .     S
C79    C81     1.414   .     D
C79    C85     1.545   .     S
C79    C210    1.420   .     S
C80    C81     1.429   .     S
C80    H82     1.140   .     S
C80    C209    1.420   .     D
C81    H83     1.140   .     S
H84    C91     1.140   .     S
C85    N86     1.322   .     D
C85    H424    1.140   .     S
N86    C87     1.484   .     S
C87    C88     1.406   .     D
C87    C92     1.419   .     S
C88    C89     1.418   .     S
C88    H93     1.140   .     S
C89    C90     1.426   .     D
C89    H101    1.140   .     S
C90    C91     1.430   .     S
C90    C95     1.577   .     S
C91    C92     1.441   .     D
C92    H94     1.140   .     S
C95    C96     1.444   .     D
C95    C100    1.435   .     S
C96    C97     1.439   .     S
C96    H102    1.140   .     S
C97    C98     1.404   .     D
C97    C19     1.488   1_565 S
C98    C99     1.396   .     S
C98    C417    1.556   1_565 S
C99    C100    1.419   .     D
C99    H104    1.140   .     S
C100   H103    1.140   .     S
C105   C107    1.414   .     S
C105   C111    1.545   .     S
C105   C288    1.420   .     D
C106   C107    1.429   .     D
C106   H108    1.140   .     S
C106   C287    1.420   .     S
C107   H109    1.140   .     S
H110   C117    1.140   .     S
C111   N112    1.322   .     D
C111   H425    1.140   .     S
N112   C113    1.484   .     S
C113   C114    1.406   .     S
C113   C118    1.419   .     D
C114   C115    1.418   .     D
C114   H119    1.140   .     S
C115   C116    1.426   .     S
C115   H127    1.140   .     S
C116   C117    1.430   .     D
C116   C121    1.577   .     S
C117   C118    1.441   .     S
C118   H120    1.140   .     S
C121   C122    1.444   .     D
C121   C126    1.435   .     S
C122   C123    1.439   .     S
C122   H128    1.140   .     S
C123   C124    1.404   .     D
C123   C409    1.488   1_655 S
C124   C125    1.396   .     S
C124   C419    1.556   1_656 S
C125   C126    1.419   .     D
C125   H130    1.140   1_556 S
C126   H129    1.140   .     S
H130   C125    1.140   1_554 S
C131   C133    1.414   .     D
C131   C137    1.545   .     S
C131   C340    1.420   .     S
C132   C133    1.429   .     S
C132   H134    1.140   .     S
C132   C339    1.420   .     D
C133   H135    1.140   .     S
H136   C143    1.140   .     S
C137   N138    1.322   .     D
C137   H426    1.140   .     S
N138   C139    1.484   .     S
C139   C140    1.406   .     D
C139   C144    1.419   .     S
C140   C141    1.418   .     S
C140   H145    1.140   .     S
C141   C142    1.426   .     D
C141   H153    1.140   .     S
C142   C143    1.430   .     S
C142   C147    1.577   .     S
C143   C144    1.441   .     D
C144   H146    1.140   .     S
C147   C148    1.444   .     D
C147   C152    1.435   .     S
C148   C149    1.439   .     S
C148   H154    1.140   .     S
C149   C150    1.404   .     D
C149   C175    1.488   .     S
C150   C151    1.396   .     S
C150   C420    1.556   .     S
C151   C152    1.419   .     D
C151   H156    1.140   .     S
C152   H155    1.140   .     S
C157   C159    1.414   .     S
C157   C163    1.545   .     S
C157   C314    1.420   .     D
C158   C159    1.429   .     D
C158   H160    1.140   .     S
C158   C313    1.420   .     S
C159   H161    1.140   .     S
H162   C169    1.140   .     S
C163   N164    1.322   .     D
C163   H427    1.140   .     S
N164   C165    1.484   .     S
C165   C166    1.406   .     S
C165   C170    1.419   .     D
C166   C167    1.418   .     D
C166   H171    1.140   .     S
C167   C168    1.426   .     S
C167   H179    1.140   .     S
C168   C169    1.430   .     D
C168   C173    1.577   .     S
C169   C170    1.441   .     S
C170   H172    1.140   .     S
C173   C174    1.444   .     S
C173   C178    1.435   .     D
C174   C175    1.439   .     D
C174   H180    1.140   .     S
C175   C176    1.404   .     S
C176   C177    1.396   .     D
C176   C420    1.556   .     S
C177   C178    1.419   .     S
C177   H182    1.140   .     S
C178   H181    1.140   .     S
C183   C185    1.414   .     D
C183   C189    1.545   .     S
C184   C185    1.429   .     S
C184   H186    1.140   .     S
C185   H187    1.140   .     S
H188   C195    1.140   .     S
C189   N190    1.322   .     D
C189   H428    1.140   .     S
N190   C191    1.484   .     S
C191   C192    1.406   .     S
C191   C196    1.419   .     D
C192   C193    1.418   .     D
C192   H197    1.140   .     S
C193   C194    1.426   .     S
C193   H205    1.140   .     S
C194   C195    1.430   .     D
C194   C199    1.577   .     S
C195   C196    1.441   .     S
C196   H198    1.140   .     S
C199   C200    1.444   .     D
C199   C204    1.435   .     S
C200   C201    1.439   .     S
C200   H206    1.140   .     S
C201   C202    1.404   .     D
C201   C279    1.488   1_545 S
C202   C203    1.396   .     S
C202   C419    1.556   .     S
C203   C204    1.419   .     D
C203   H208    1.140   1_554 S
C204   H207    1.140   .     S
H208   C203    1.140   1_556 S
C209   C211    1.414   .     S
C209   C215    1.545   .     S
C210   C211    1.429   .     D
C210   H212    1.140   .     S
C211   H213    1.140   .     S
H214   C221    1.140   .     S
C215   N216    1.322   .     D
C215   H429    1.140   .     S
N216   C217    1.484   .     S
C217   C218    1.406   .     D
C217   C222    1.419   .     S
C218   C219    1.418   .     S
C218   H223    1.140   .     S
C219   C220    1.426   .     D
C219   H231    1.140   .     S
C220   C221    1.430   .     S
C220   C225    1.577   .     S
C221   C222    1.441   .     D
C222   H224    1.140   .     S
C225   C226    1.444   .     D
C225   C230    1.435   .     S
C226   C227    1.439   .     S
C226   H232    1.140   .     S
C227   C228    1.404   .     D
C227   C253    1.488   .     S
C228   C229    1.396   .     S
C228   C420    1.556   .     S
C229   C230    1.419   .     D
C229   H234    1.140   .     S
C230   H233    1.140   .     S
C235   C237    1.414   .     S
C235   C241    1.545   .     S
C236   C237    1.429   .     D
C236   H238    1.140   .     S
C237   H239    1.140   .     S
H240   C247    1.140   .     S
C241   N242    1.322   .     D
C241   H430    1.140   .     S
N242   C243    1.484   .     S
C243   C244    1.406   .     D
C243   C248    1.419   .     S
C244   C245    1.418   .     S
C244   H249    1.140   .     S
C245   C246    1.426   .     D
C245   H257    1.140   .     S
C246   C247    1.430   .     S
C246   C251    1.577   .     S
C247   C248    1.441   .     D
C248   H250    1.140   .     S
C251   C252    1.444   .     S
C251   C256    1.435   .     D
C252   C253    1.439   .     D
C252   H258    1.140   .     S
C253   C254    1.404   .     S
C254   C255    1.396   .     D
C254   C420    1.556   .     S
C255   C256    1.419   .     S
C255   H260    1.140   .     S
C256   H259    1.140   .     S
C261   C263    1.414   .     S
C261   C267    1.545   .     S
C262   C263    1.429   .     D
C262   H264    1.140   .     S
C263   H265    1.140   .     S
H266   C273    1.140   .     S
C267   N268    1.322   .     D
C267   H431    1.140   .     S
N268   C269    1.484   .     S
C269   C270    1.406   .     D
C269   C274    1.419   .     S
C270   C271    1.418   .     S
C270   H275    1.140   .     S
C271   C272    1.426   .     D
C271   H283    1.140   .     S
C272   C273    1.430   .     S
C272   C277    1.577   .     S
C273   C274    1.441   .     D
C274   H276    1.140   .     S
C277   C278    1.444   .     S
C277   C282    1.435   .     D
C278   C279    1.439   .     D
C278   H284    1.140   .     S
C279   C280    1.404   .     S
C279   C201    1.488   1_565 S
C280   C281    1.396   .     D
C280   C419    1.556   1_565 S
C281   C282    1.419   .     S
C281   H286    1.140   1_554 S
C282   H285    1.140   .     S
H286   C281    1.140   1_556 S
C287   C289    1.414   .     D
C287   C293    1.545   .     S
C288   C289    1.429   .     S
C288   H290    1.140   .     S
C289   H291    1.140   .     S
H292   C299    1.140   .     S
C293   N294    1.322   .     D
C293   H432    1.140   .     S
N294   C295    1.484   .     S
C295   C296    1.406   .     S
C295   C300    1.419   .     D
C296   C297    1.418   .     D
C296   H301    1.140   .     S
C297   C298    1.426   .     S
C297   H309    1.140   .     S
C298   C299    1.430   .     D
C298   C303    1.577   .     S
C299   C300    1.441   .     S
C300   H302    1.140   .     S
C303   C304    1.444   .     D
C303   C308    1.435   .     S
C304   C305    1.439   .     S
C304   H310    1.140   .     S
C305   C306    1.404   .     D
C305   C383    1.488   .     S
C306   C307    1.396   .     S
C306   C417    1.556   .     S
C307   C308    1.419   .     D
C307   H312    1.140   .     S
C308   H311    1.140   .     S
C313   C315    1.414   .     D
C313   C319    1.545   .     S
C314   C315    1.429   .     S
C314   H316    1.140   .     S
C315   H317    1.140   .     S
H318   C325    1.140   .     S
C319   N320    1.322   .     D
C319   H433    1.140   .     S
N320   C321    1.484   .     S
C321   C322    1.406   .     S
C321   C326    1.419   .     D
C322   C323    1.418   .     D
C322   H327    1.140   .     S
C323   C324    1.426   .     S
C323   H335    1.140   .     S
C324   C325    1.430   .     D
C324   C329    1.577   .     S
C325   C326    1.441   .     S
C326   H328    1.140   .     S
C329   C330    1.444   .     D
C329   C334    1.435   .     S
C330   C331    1.439   .     S
C330   H336    1.140   .     S
C331   C332    1.404   .     D
C331   C357    1.488   1_655 S
C332   C333    1.396   .     S
C332   C418    1.556   1_655 S
C333   C334    1.419   .     D
C333   H338    1.140   .     S
C334   H337    1.140   .     S
C339   C341    1.414   .     S
C339   C345    1.545   .     S
C340   C341    1.429   .     D
C340   H342    1.140   .     S
C341   H343    1.140   .     S
H344   C351    1.140   .     S
C345   N346    1.322   .     D
C345   H434    1.140   .     S
N346   C347    1.484   .     S
C347   C348    1.406   .     D
C347   C352    1.419   .     S
C348   C349    1.418   .     S
C348   H353    1.140   .     S
C349   C350    1.426   .     D
C349   H361    1.140   .     S
C350   C351    1.430   .     S
C350   C355    1.577   .     S
C351   C352    1.441   .     D
C352   H354    1.140   .     S
C355   C356    1.444   .     S
C355   C360    1.435   .     D
C356   C357    1.439   .     D
C356   H362    1.140   .     S
C357   C358    1.404   .     S
C357   C331    1.488   1_455 S
C358   C359    1.396   .     D
C358   C418    1.556   .     S
C359   C360    1.419   .     S
C359   H364    1.140   .     S
C360   H363    1.140   .     S
C365   C367    1.414   .     D
C365   C371    1.545   .     S
C365   C392    1.420   .     S
C366   C367    1.429   .     S
C366   H368    1.140   .     S
C366   C391    1.420   .     D
C367   H369    1.140   .     S
H370   C377    1.140   .     S
C371   N372    1.322   .     D
C371   H435    1.140   .     S
N372   C373    1.484   .     S
C373   C374    1.406   .     D
C373   C378    1.419   .     S
C374   C375    1.418   .     S
C374   H379    1.140   .     S
C375   C376    1.426   .     D
C375   H387    1.140   .     S
C376   C377    1.430   .     S
C376   C381    1.577   .     S
C377   C378    1.441   .     D
C378   H380    1.140   .     S
C381   C382    1.444   .     S
C381   C386    1.435   .     D
C382   C383    1.439   .     D
C382   H388    1.140   .     S
C383   C384    1.404   .     S
C384   C385    1.396   .     D
C384   C417    1.556   .     S
C385   C386    1.419   .     S
C385   H390    1.140   .     S
C386   H389    1.140   .     S
C391   C393    1.414   .     S
C391   C397    1.545   .     S
C392   C393    1.429   .     D
C392   H394    1.140   .     S
C393   H395    1.140   .     S
H396   C403    1.140   .     S
C397   N398    1.322   .     D
C397   H436    1.140   .     S
N398   C399    1.484   .     S
C399   C400    1.406   .     D
C399   C404    1.419   .     S
C400   C401    1.418   .     S
C400   H405    1.140   .     S
C401   C402    1.426   .     D
C401   H413    1.140   .     S
C402   C403    1.430   .     S
C402   C407    1.577   .     S
C403   C404    1.441   .     D
C404   H406    1.140   .     S
C407   C408    1.444   .     S
C407   C412    1.435   .     D
C408   C409    1.439   .     D
C408   H414    1.140   .     S
C409   C410    1.404   .     S
C409   C123    1.488   1_455 S
C410   C411    1.396   .     D
C410   C419    1.556   1_556 S
C411   C412    1.419   .     S
C411   H416    1.140   1_556 S
C412   H415    1.140   .     S
H416   C411    1.140   1_554 S
C417   C98     1.556   1_545 S
C418   C332    1.556   1_455 S
C419   C124    1.556   1_454 S
C419   C280    1.556   1_545 S
C419   C410    1.556   1_554 S
