data_1152
_audit_creation_date              2023-09-08
_audit_creation_method            'Materials Studio'
_symmetry_space_group_name_H-M    'P1'
_symmetry_Int_Tables_number       1
_symmetry_cell_setting            triclinic
loop_
_symmetry_equiv_pos_as_xyz
  x,y,z
_cell_length_a                    39.4920
_cell_length_b                    39.4920
_cell_length_c                    27.9680
_cell_angle_alpha                 90.0000
_cell_angle_beta                  90.0000
_cell_angle_gamma                 90.0000
loop_
_atom_site_label
_atom_site_type_symbol
_atom_site_fract_x
_atom_site_fract_y
_atom_site_fract_z
_atom_site_U_iso_or_equiv
_atom_site_adp_type
_atom_site_occupancy
C1     C     0.00000   0.22408   0.16217   0.00000  Uiso   1.00
C2     C     0.00000   0.21593   0.11268   0.00000  Uiso   1.00
C3     C     0.00000   0.25883   0.17366   0.00000  Uiso   1.00
H4     H     0.00000   0.18831   0.10082   0.00000  Uiso   1.00
H5     H     0.00000   0.26718   0.21268   0.00000  Uiso   1.00
H6     H     0.00000   0.08572   0.29732   0.00000  Uiso   1.00
C7     C     0.00000   0.19559   0.19946   0.00000  Uiso   1.00
N8     N     0.00000   0.19968   0.24650   0.00000  Uiso   1.00
C9     C     0.00000   0.17298   0.28379   0.00000  Uiso   1.00
C10    C     0.00000   0.18145   0.33310   0.00000  Uiso   1.00
C11    C     0.00000   0.15627   0.36999   0.00000  Uiso   1.00
C12    C     0.00000   0.12110   0.35951   0.00000  Uiso   1.00
C13    C     0.00000   0.11325   0.30957   0.00000  Uiso   1.00
C14    C     0.00000   0.13815   0.27321   0.00000  Uiso   1.00
H15    H     0.00000   0.16801   0.18743   0.00000  Uiso   1.00
H16    H     0.00000   0.20915   0.34459   0.00000  Uiso   1.00
H17    H     0.00000   0.12930   0.23441   0.00000  Uiso   1.00
C18    C     0.00000   0.09263   0.39855   0.00000  Uiso   1.00
C19    C     0.00000   0.05865   0.38429   0.00000  Uiso   1.00
C20    C     0.00000   0.03228   0.41702   0.00000  Uiso   1.00
C21    C     0.00000   0.03434   0.46702   0.00000  Uiso   1.00
C22    C     0.00000   0.06873   0.48296   0.00000  Uiso   1.00
C23    C     0.00000   0.09715   0.44967   0.00000  Uiso   1.00
H24    H     0.00000   0.16425   0.40916   0.00000  Uiso   1.00
H25    H     0.00000   0.05194   0.34465   0.00000  Uiso   1.00
H26    H     0.00000   0.12422   0.46383   0.00000  Uiso   1.00
H27    H     0.00000   0.07465   0.52286   0.00000  Uiso   1.00
C28    C     0.50000   0.72408   0.66217   0.00000  Uiso   1.00
C29    C     0.50000   0.71593   0.61268   0.00000  Uiso   1.00
C30    C     0.50000   0.75883   0.67366   0.00000  Uiso   1.00
H31    H     0.50000   0.68831   0.60082   0.00000  Uiso   1.00
H32    H     0.50000   0.76718   0.71268   0.00000  Uiso   1.00
H33    H     0.50000   0.58572   0.79732   0.00000  Uiso   1.00
C34    C     0.50000   0.69559   0.69946   0.00000  Uiso   1.00
N35    N     0.50000   0.69968   0.74650   0.00000  Uiso   1.00
C36    C     0.50000   0.67298   0.78379   0.00000  Uiso   1.00
C37    C     0.50000   0.68145   0.83310   0.00000  Uiso   1.00
C38    C     0.50000   0.65627   0.86999   0.00000  Uiso   1.00
C39    C     0.50000   0.62110   0.85951   0.00000  Uiso   1.00
C40    C     0.50000   0.61325   0.80957   0.00000  Uiso   1.00
C41    C     0.50000   0.63815   0.77321   0.00000  Uiso   1.00
H42    H     0.50000   0.66801   0.68743   0.00000  Uiso   1.00
H43    H     0.50000   0.70915   0.84459   0.00000  Uiso   1.00
H44    H     0.50000   0.62930   0.73441   0.00000  Uiso   1.00
C45    C     0.50000   0.59263   0.89855   0.00000  Uiso   1.00
C46    C     0.50000   0.55865   0.88429   0.00000  Uiso   1.00
C47    C     0.50000   0.53228   0.91702   0.00000  Uiso   1.00
C48    C     0.50000   0.53434   0.96702   0.00000  Uiso   1.00
C49    C     0.50000   0.56873   0.98296   0.00000  Uiso   1.00
C50    C     0.50000   0.59715   0.94967   0.00000  Uiso   1.00
H51    H     0.50000   0.66425   0.90916   0.00000  Uiso   1.00
H52    H     0.50000   0.55194   0.84465   0.00000  Uiso   1.00
H53    H     0.50000   0.62422   0.96383   0.00000  Uiso   1.00
C54    C     0.50000   0.27592   0.66217   0.00000  Uiso   1.00
C55    C     0.50000   0.28407   0.61268   0.00000  Uiso   1.00
C56    C     0.50000   0.24117   0.67366   0.00000  Uiso   1.00
H57    H     0.50000   0.31169   0.60082   0.00000  Uiso   1.00
H58    H     0.50000   0.23282   0.71268   0.00000  Uiso   1.00
H59    H     0.50000   0.41428   0.79732   0.00000  Uiso   1.00
C60    C     0.50000   0.30441   0.69946   0.00000  Uiso   1.00
N61    N     0.50000   0.30032   0.74650   0.00000  Uiso   1.00
C62    C     0.50000   0.32702   0.78379   0.00000  Uiso   1.00
C63    C     0.50000   0.31855   0.83310   0.00000  Uiso   1.00
C64    C     0.50000   0.34373   0.86999   0.00000  Uiso   1.00
C65    C     0.50000   0.37890   0.85951   0.00000  Uiso   1.00
C66    C     0.50000   0.38675   0.80957   0.00000  Uiso   1.00
C67    C     0.50000   0.36185   0.77321   0.00000  Uiso   1.00
H68    H     0.50000   0.33199   0.68743   0.00000  Uiso   1.00
H69    H     0.50000   0.29085   0.84459   0.00000  Uiso   1.00
H70    H     0.50000   0.37070   0.73441   0.00000  Uiso   1.00
C71    C     0.50000   0.40737   0.89855   0.00000  Uiso   1.00
C72    C     0.50000   0.44135   0.88429   0.00000  Uiso   1.00
C73    C     0.50000   0.46772   0.91702   0.00000  Uiso   1.00
C74    C     0.50000   0.46566   0.96702   0.00000  Uiso   1.00
C75    C     0.50000   0.43127   0.98296   0.00000  Uiso   1.00
C76    C     0.50000   0.40285   0.94967   0.00000  Uiso   1.00
H77    H     0.50000   0.33575   0.90916   0.00000  Uiso   1.00
H78    H     0.50000   0.44806   0.84465   0.00000  Uiso   1.00
H79    H     0.50000   0.37578   0.96383   0.00000  Uiso   1.00
C80    C     0.00000   0.77592   0.16217   0.00000  Uiso   1.00
C81    C     0.00000   0.78407   0.11268   0.00000  Uiso   1.00
C82    C     0.00000   0.74117   0.17366   0.00000  Uiso   1.00
H83    H     0.00000   0.81169   0.10082   0.00000  Uiso   1.00
H84    H     0.00000   0.73282   0.21268   0.00000  Uiso   1.00
H85    H     0.00000   0.91428   0.29732   0.00000  Uiso   1.00
C86    C     0.00000   0.80441   0.19946   0.00000  Uiso   1.00
N87    N     0.00000   0.80032   0.24650   0.00000  Uiso   1.00
C88    C     0.00000   0.82702   0.28379   0.00000  Uiso   1.00
C89    C     0.00000   0.81855   0.33310   0.00000  Uiso   1.00
C90    C     0.00000   0.84373   0.36999   0.00000  Uiso   1.00
C91    C     0.00000   0.87890   0.35951   0.00000  Uiso   1.00
C92    C     0.00000   0.88675   0.30957   0.00000  Uiso   1.00
C93    C     0.00000   0.86185   0.27321   0.00000  Uiso   1.00
H94    H     0.00000   0.83199   0.18743   0.00000  Uiso   1.00
H95    H     0.00000   0.79085   0.34459   0.00000  Uiso   1.00
H96    H     0.00000   0.87070   0.23441   0.00000  Uiso   1.00
C97    C     0.00000   0.90737   0.39855   0.00000  Uiso   1.00
C98    C     0.00000   0.94135   0.38429   0.00000  Uiso   1.00
C99    C     0.00000   0.96772   0.41702   0.00000  Uiso   1.00
C100   C     0.00000   0.96566   0.46702   0.00000  Uiso   1.00
C101   C     0.00000   0.93127   0.48296   0.00000  Uiso   1.00
C102   C     0.00000   0.90285   0.44967   0.00000  Uiso   1.00
H103   H     0.00000   0.83575   0.40916   0.00000  Uiso   1.00
H104   H     0.00000   0.94806   0.34465   0.00000  Uiso   1.00
H105   H     0.00000   0.87578   0.46383   0.00000  Uiso   1.00
H106   H     0.00000   0.92535   0.52286   0.00000  Uiso   1.00
C107   C     0.77592   0.50000   0.41217   0.00000  Uiso   1.00
C108   C     0.78407   0.50000   0.36268   0.00000  Uiso   1.00
C109   C     0.74117   0.50000   0.42366   0.00000  Uiso   1.00
H110   H     0.81169   0.50000   0.35082   0.00000  Uiso   1.00
H111   H     0.73282   0.50000   0.46268   0.00000  Uiso   1.00
H112   H     0.91428   0.50000   0.54732   0.00000  Uiso   1.00
C113   C     0.80441   0.50000   0.44946   0.00000  Uiso   1.00
N114   N     0.80032   0.50000   0.49650   0.00000  Uiso   1.00
C115   C     0.82702   0.50000   0.53379   0.00000  Uiso   1.00
C116   C     0.81855   0.50000   0.58310   0.00000  Uiso   1.00
C117   C     0.84373   0.50000   0.61999   0.00000  Uiso   1.00
C118   C     0.87890   0.50000   0.60951   0.00000  Uiso   1.00
C119   C     0.88675   0.50000   0.55957   0.00000  Uiso   1.00
C120   C     0.86185   0.50000   0.52321   0.00000  Uiso   1.00
H121   H     0.83199   0.50000   0.43743   0.00000  Uiso   1.00
H122   H     0.79085   0.50000   0.59459   0.00000  Uiso   1.00
H123   H     0.87070   0.50000   0.48441   0.00000  Uiso   1.00
C124   C     0.90737   0.50000   0.64855   0.00000  Uiso   1.00
C125   C     0.94135   0.50000   0.63429   0.00000  Uiso   1.00
C126   C     0.96772   0.50000   0.66702   0.00000  Uiso   1.00
C127   C     0.96566   0.50000   0.71702   0.00000  Uiso   1.00
C128   C     0.93127   0.50000   0.73296   0.00000  Uiso   1.00
C129   C     0.90285   0.50000   0.69967   0.00000  Uiso   1.00
H130   H     0.83575   0.50000   0.65916   0.00000  Uiso   1.00
H131   H     0.94806   0.50000   0.59465   0.00000  Uiso   1.00
H132   H     0.87578   0.50000   0.71383   0.00000  Uiso   1.00
H133   H     0.92535   0.50000   0.77286   0.00000  Uiso   1.00
C134   C     0.72408   0.00000   0.91217   0.00000  Uiso   1.00
C135   C     0.71593   0.00000   0.86268   0.00000  Uiso   1.00
C136   C     0.75883   0.00000   0.92366   0.00000  Uiso   1.00
H137   H     0.68831   0.00000   0.85082   0.00000  Uiso   1.00
H138   H     0.76718   0.00000   0.96268   0.00000  Uiso   1.00
H139   H     0.58572   0.00000   0.04732   0.00000  Uiso   1.00
C140   C     0.69559   0.00000   0.94946   0.00000  Uiso   1.00
N141   N     0.69968   0.00000   0.99650   0.00000  Uiso   1.00
C142   C     0.67298   0.00000   0.03379   0.00000  Uiso   1.00
C143   C     0.68145   0.00000   0.08310   0.00000  Uiso   1.00
C144   C     0.65627   0.00000   0.11999   0.00000  Uiso   1.00
C145   C     0.62110   0.00000   0.10951   0.00000  Uiso   1.00
C146   C     0.61325   0.00000   0.05957   0.00000  Uiso   1.00
C147   C     0.63815   0.00000   0.02321   0.00000  Uiso   1.00
H148   H     0.66801   0.00000   0.93743   0.00000  Uiso   1.00
H149   H     0.70915   0.00000   0.09459   0.00000  Uiso   1.00
H150   H     0.62930   0.00000   0.98441   0.00000  Uiso   1.00
C151   C     0.59263   0.00000   0.14855   0.00000  Uiso   1.00
C152   C     0.55865   0.00000   0.13429   0.00000  Uiso   1.00
C153   C     0.53228   0.00000   0.16702   0.00000  Uiso   1.00
C154   C     0.53434   0.00000   0.21702   0.00000  Uiso   1.00
C155   C     0.56873   0.00000   0.23296   0.00000  Uiso   1.00
C156   C     0.59715   0.00000   0.19967   0.00000  Uiso   1.00
H157   H     0.66425   0.00000   0.15916   0.00000  Uiso   1.00
H158   H     0.55194   0.00000   0.09465   0.00000  Uiso   1.00
H159   H     0.62422   0.00000   0.21383   0.00000  Uiso   1.00
H160   H     0.57465   0.00000   0.27286   0.00000  Uiso   1.00
C161   C     0.50000   0.22408   0.58783   0.00000  Uiso   1.00
C162   C     0.50000   0.21593   0.63732   0.00000  Uiso   1.00
C163   C     0.50000   0.25883   0.57634   0.00000  Uiso   1.00
H164   H     0.50000   0.18831   0.64918   0.00000  Uiso   1.00
H165   H     0.50000   0.26718   0.53732   0.00000  Uiso   1.00
H166   H     0.50000   0.08572   0.45268   0.00000  Uiso   1.00
C167   C     0.50000   0.19559   0.55054   0.00000  Uiso   1.00
N168   N     0.50000   0.19968   0.50350   0.00000  Uiso   1.00
C169   C     0.50000   0.17298   0.46621   0.00000  Uiso   1.00
C170   C     0.50000   0.18145   0.41690   0.00000  Uiso   1.00
C171   C     0.50000   0.15627   0.38001   0.00000  Uiso   1.00
C172   C     0.50000   0.12110   0.39049   0.00000  Uiso   1.00
C173   C     0.50000   0.11325   0.44043   0.00000  Uiso   1.00
C174   C     0.50000   0.13815   0.47679   0.00000  Uiso   1.00
H175   H     0.50000   0.16801   0.56257   0.00000  Uiso   1.00
H176   H     0.50000   0.20915   0.40541   0.00000  Uiso   1.00
H177   H     0.50000   0.12930   0.51559   0.00000  Uiso   1.00
C178   C     0.50000   0.09263   0.35145   0.00000  Uiso   1.00
C179   C     0.50000   0.05865   0.36571   0.00000  Uiso   1.00
C180   C     0.50000   0.03228   0.33298   0.00000  Uiso   1.00
C181   C     0.50000   0.03434   0.28298   0.00000  Uiso   1.00
C182   C     0.50000   0.06873   0.26704   0.00000  Uiso   1.00
C183   C     0.50000   0.09715   0.30033   0.00000  Uiso   1.00
H184   H     0.50000   0.16425   0.34084   0.00000  Uiso   1.00
H185   H     0.50000   0.05194   0.40535   0.00000  Uiso   1.00
H186   H     0.50000   0.12422   0.28617   0.00000  Uiso   1.00
H187   H     0.50000   0.07465   0.22714   0.00000  Uiso   1.00
C188   C     0.00000   0.72408   0.08783   0.00000  Uiso   1.00
C189   C     0.00000   0.71593   0.13732   0.00000  Uiso   1.00
C190   C     0.00000   0.75883   0.07634   0.00000  Uiso   1.00
H191   H     0.00000   0.68831   0.14918   0.00000  Uiso   1.00
H192   H     0.00000   0.76718   0.03732   0.00000  Uiso   1.00
H193   H     0.00000   0.58572   0.95268   0.00000  Uiso   1.00
C194   C     0.00000   0.69559   0.05054   0.00000  Uiso   1.00
N195   N     0.00000   0.69968   0.00350   0.00000  Uiso   1.00
C196   C     0.00000   0.67298   0.96621   0.00000  Uiso   1.00
C197   C     0.00000   0.68145   0.91690   0.00000  Uiso   1.00
C198   C     0.00000   0.65627   0.88001   0.00000  Uiso   1.00
C199   C     0.00000   0.62110   0.89049   0.00000  Uiso   1.00
C200   C     0.00000   0.61325   0.94043   0.00000  Uiso   1.00
C201   C     0.00000   0.63815   0.97679   0.00000  Uiso   1.00
H202   H     0.00000   0.66801   0.06257   0.00000  Uiso   1.00
H203   H     0.00000   0.70915   0.90541   0.00000  Uiso   1.00
H204   H     0.00000   0.62930   0.01559   0.00000  Uiso   1.00
C205   C     0.00000   0.59263   0.85145   0.00000  Uiso   1.00
C206   C     0.00000   0.55865   0.86571   0.00000  Uiso   1.00
C207   C     0.00000   0.53228   0.83298   0.00000  Uiso   1.00
C208   C     0.00000   0.53434   0.78298   0.00000  Uiso   1.00
C209   C     0.00000   0.56873   0.76704   0.00000  Uiso   1.00
C210   C     0.00000   0.59715   0.80033   0.00000  Uiso   1.00
H211   H     0.00000   0.66425   0.84084   0.00000  Uiso   1.00
H212   H     0.00000   0.55194   0.90535   0.00000  Uiso   1.00
H213   H     0.00000   0.62422   0.78617   0.00000  Uiso   1.00
H214   H     0.00000   0.57465   0.72714   0.00000  Uiso   1.00
C215   C     0.00000   0.27592   0.08783   0.00000  Uiso   1.00
C216   C     0.00000   0.28407   0.13732   0.00000  Uiso   1.00
C217   C     0.00000   0.24117   0.07634   0.00000  Uiso   1.00
H218   H     0.00000   0.31169   0.14918   0.00000  Uiso   1.00
H219   H     0.00000   0.23282   0.03732   0.00000  Uiso   1.00
H220   H     0.00000   0.41428   0.95268   0.00000  Uiso   1.00
C221   C     0.00000   0.30441   0.05054   0.00000  Uiso   1.00
N222   N     0.00000   0.30032   0.00350   0.00000  Uiso   1.00
C223   C     0.00000   0.32702   0.96621   0.00000  Uiso   1.00
C224   C     0.00000   0.31855   0.91690   0.00000  Uiso   1.00
C225   C     0.00000   0.34373   0.88001   0.00000  Uiso   1.00
C226   C     0.00000   0.37890   0.89049   0.00000  Uiso   1.00
C227   C     0.00000   0.38675   0.94043   0.00000  Uiso   1.00
C228   C     0.00000   0.36185   0.97679   0.00000  Uiso   1.00
H229   H     0.00000   0.33199   0.06257   0.00000  Uiso   1.00
H230   H     0.00000   0.29085   0.90541   0.00000  Uiso   1.00
H231   H     0.00000   0.37070   0.01559   0.00000  Uiso   1.00
C232   C     0.00000   0.40737   0.85145   0.00000  Uiso   1.00
C233   C     0.00000   0.44135   0.86571   0.00000  Uiso   1.00
C234   C     0.00000   0.46772   0.83298   0.00000  Uiso   1.00
C235   C     0.00000   0.46566   0.78298   0.00000  Uiso   1.00
C236   C     0.00000   0.43127   0.76704   0.00000  Uiso   1.00
C237   C     0.00000   0.40285   0.80033   0.00000  Uiso   1.00
H238   H     0.00000   0.33575   0.84084   0.00000  Uiso   1.00
H239   H     0.00000   0.44806   0.90535   0.00000  Uiso   1.00
H240   H     0.00000   0.37578   0.78617   0.00000  Uiso   1.00
H241   H     0.00000   0.42535   0.72714   0.00000  Uiso   1.00
C242   C     0.50000   0.77592   0.58783   0.00000  Uiso   1.00
C243   C     0.50000   0.78407   0.63732   0.00000  Uiso   1.00
C244   C     0.50000   0.74117   0.57634   0.00000  Uiso   1.00
H245   H     0.50000   0.81169   0.64918   0.00000  Uiso   1.00
H246   H     0.50000   0.73282   0.53732   0.00000  Uiso   1.00
H247   H     0.50000   0.91428   0.45268   0.00000  Uiso   1.00
C248   C     0.50000   0.80441   0.55054   0.00000  Uiso   1.00
N249   N     0.50000   0.80032   0.50350   0.00000  Uiso   1.00
C250   C     0.50000   0.82702   0.46621   0.00000  Uiso   1.00
C251   C     0.50000   0.81855   0.41690   0.00000  Uiso   1.00
C252   C     0.50000   0.84373   0.38001   0.00000  Uiso   1.00
C253   C     0.50000   0.87890   0.39049   0.00000  Uiso   1.00
C254   C     0.50000   0.88675   0.44043   0.00000  Uiso   1.00
C255   C     0.50000   0.86185   0.47679   0.00000  Uiso   1.00
H256   H     0.50000   0.83199   0.56257   0.00000  Uiso   1.00
H257   H     0.50000   0.79085   0.40541   0.00000  Uiso   1.00
H258   H     0.50000   0.87070   0.51559   0.00000  Uiso   1.00
C259   C     0.50000   0.90737   0.35145   0.00000  Uiso   1.00
C260   C     0.50000   0.94135   0.36571   0.00000  Uiso   1.00
C261   C     0.50000   0.96772   0.33298   0.00000  Uiso   1.00
C262   C     0.50000   0.96566   0.28298   0.00000  Uiso   1.00
C263   C     0.50000   0.93127   0.26704   0.00000  Uiso   1.00
C264   C     0.50000   0.90285   0.30033   0.00000  Uiso   1.00
H265   H     0.50000   0.83575   0.34084   0.00000  Uiso   1.00
H266   H     0.50000   0.94806   0.40535   0.00000  Uiso   1.00
H267   H     0.50000   0.87578   0.28617   0.00000  Uiso   1.00
H268   H     0.50000   0.92535   0.22714   0.00000  Uiso   1.00
C269   C     0.72408   0.50000   0.33783   0.00000  Uiso   1.00
C270   C     0.71593   0.50000   0.38732   0.00000  Uiso   1.00
C271   C     0.75883   0.50000   0.32634   0.00000  Uiso   1.00
H272   H     0.68831   0.50000   0.39918   0.00000  Uiso   1.00
H273   H     0.76718   0.50000   0.28732   0.00000  Uiso   1.00
H274   H     0.58572   0.50000   0.20268   0.00000  Uiso   1.00
C275   C     0.69559   0.50000   0.30054   0.00000  Uiso   1.00
N276   N     0.69968   0.50000   0.25350   0.00000  Uiso   1.00
C277   C     0.67298   0.50000   0.21621   0.00000  Uiso   1.00
C278   C     0.68145   0.50000   0.16690   0.00000  Uiso   1.00
C279   C     0.65627   0.50000   0.13001   0.00000  Uiso   1.00
C280   C     0.62110   0.50000   0.14049   0.00000  Uiso   1.00
C281   C     0.61325   0.50000   0.19043   0.00000  Uiso   1.00
C282   C     0.63815   0.50000   0.22679   0.00000  Uiso   1.00
H283   H     0.66801   0.50000   0.31257   0.00000  Uiso   1.00
H284   H     0.70915   0.50000   0.15541   0.00000  Uiso   1.00
H285   H     0.62930   0.50000   0.26559   0.00000  Uiso   1.00
C286   C     0.59263   0.50000   0.10145   0.00000  Uiso   1.00
C287   C     0.55865   0.50000   0.11571   0.00000  Uiso   1.00
C288   C     0.53228   0.50000   0.08298   0.00000  Uiso   1.00
C289   C     0.53434   0.50000   0.03298   0.00000  Uiso   1.00
C290   C     0.56873   0.50000   0.01704   0.00000  Uiso   1.00
C291   C     0.59715   0.50000   0.05033   0.00000  Uiso   1.00
H292   H     0.66425   0.50000   0.09084   0.00000  Uiso   1.00
H293   H     0.55194   0.50000   0.15535   0.00000  Uiso   1.00
H294   H     0.62422   0.50000   0.03617   0.00000  Uiso   1.00
C295   C     0.77592   0.00000   0.83783   0.00000  Uiso   1.00
C296   C     0.78407   0.00000   0.88732   0.00000  Uiso   1.00
C297   C     0.74117   0.00000   0.82634   0.00000  Uiso   1.00
H298   H     0.81169   0.00000   0.89918   0.00000  Uiso   1.00
H299   H     0.73282   0.00000   0.78732   0.00000  Uiso   1.00
H300   H     0.91428   0.00000   0.70268   0.00000  Uiso   1.00
C301   C     0.80441   0.00000   0.80054   0.00000  Uiso   1.00
N302   N     0.80032   0.00000   0.75350   0.00000  Uiso   1.00
C303   C     0.82702   0.00000   0.71621   0.00000  Uiso   1.00
C304   C     0.81855   0.00000   0.66690   0.00000  Uiso   1.00
C305   C     0.84373   0.00000   0.63001   0.00000  Uiso   1.00
C306   C     0.87890   0.00000   0.64049   0.00000  Uiso   1.00
C307   C     0.88675   0.00000   0.69043   0.00000  Uiso   1.00
C308   C     0.86185   0.00000   0.72679   0.00000  Uiso   1.00
H309   H     0.83199   0.00000   0.81257   0.00000  Uiso   1.00
H310   H     0.79085   0.00000   0.65541   0.00000  Uiso   1.00
H311   H     0.87070   0.00000   0.76559   0.00000  Uiso   1.00
C312   C     0.90737   0.00000   0.60145   0.00000  Uiso   1.00
C313   C     0.94135   0.00000   0.61571   0.00000  Uiso   1.00
C314   C     0.96772   0.00000   0.58298   0.00000  Uiso   1.00
C315   C     0.96566   0.00000   0.53298   0.00000  Uiso   1.00
C316   C     0.93127   0.00000   0.51704   0.00000  Uiso   1.00
C317   C     0.90285   0.00000   0.55033   0.00000  Uiso   1.00
H318   H     0.83575   0.00000   0.59084   0.00000  Uiso   1.00
H319   H     0.94806   0.00000   0.65535   0.00000  Uiso   1.00
H320   H     0.87578   0.00000   0.53617   0.00000  Uiso   1.00
H321   H     0.92535   0.00000   0.47714   0.00000  Uiso   1.00
C322   C     0.27592   0.50000   0.33783   0.00000  Uiso   1.00
C323   C     0.28407   0.50000   0.38732   0.00000  Uiso   1.00
C324   C     0.24117   0.50000   0.32634   0.00000  Uiso   1.00
H325   H     0.31169   0.50000   0.39918   0.00000  Uiso   1.00
H326   H     0.23282   0.50000   0.28732   0.00000  Uiso   1.00
H327   H     0.41428   0.50000   0.20268   0.00000  Uiso   1.00
C328   C     0.30441   0.50000   0.30054   0.00000  Uiso   1.00
N329   N     0.30032   0.50000   0.25350   0.00000  Uiso   1.00
C330   C     0.32702   0.50000   0.21621   0.00000  Uiso   1.00
C331   C     0.31855   0.50000   0.16690   0.00000  Uiso   1.00
C332   C     0.34373   0.50000   0.13001   0.00000  Uiso   1.00
C333   C     0.37890   0.50000   0.14049   0.00000  Uiso   1.00
C334   C     0.38675   0.50000   0.19043   0.00000  Uiso   1.00
C335   C     0.36185   0.50000   0.22679   0.00000  Uiso   1.00
H336   H     0.33199   0.50000   0.31257   0.00000  Uiso   1.00
H337   H     0.29085   0.50000   0.15541   0.00000  Uiso   1.00
H338   H     0.37070   0.50000   0.26559   0.00000  Uiso   1.00
C339   C     0.40737   0.50000   0.10145   0.00000  Uiso   1.00
C340   C     0.44135   0.50000   0.11571   0.00000  Uiso   1.00
C341   C     0.46772   0.50000   0.08298   0.00000  Uiso   1.00
C342   C     0.46566   0.50000   0.03298   0.00000  Uiso   1.00
C343   C     0.43127   0.50000   0.01704   0.00000  Uiso   1.00
C344   C     0.40285   0.50000   0.05033   0.00000  Uiso   1.00
H345   H     0.33575   0.50000   0.09084   0.00000  Uiso   1.00
H346   H     0.44806   0.50000   0.15535   0.00000  Uiso   1.00
H347   H     0.37578   0.50000   0.03617   0.00000  Uiso   1.00
C348   C     0.22408   0.00000   0.83783   0.00000  Uiso   1.00
C349   C     0.21593   0.00000   0.88732   0.00000  Uiso   1.00
C350   C     0.25883   0.00000   0.82634   0.00000  Uiso   1.00
H351   H     0.18831   0.00000   0.89918   0.00000  Uiso   1.00
H352   H     0.26718   0.00000   0.78732   0.00000  Uiso   1.00
H353   H     0.08572   0.00000   0.70268   0.00000  Uiso   1.00
C354   C     0.19559   0.00000   0.80054   0.00000  Uiso   1.00
N355   N     0.19968   0.00000   0.75350   0.00000  Uiso   1.00
C356   C     0.17298   0.00000   0.71621   0.00000  Uiso   1.00
C357   C     0.18145   0.00000   0.66690   0.00000  Uiso   1.00
C358   C     0.15627   0.00000   0.63001   0.00000  Uiso   1.00
C359   C     0.12110   0.00000   0.64049   0.00000  Uiso   1.00
C360   C     0.11325   0.00000   0.69043   0.00000  Uiso   1.00
C361   C     0.13815   0.00000   0.72679   0.00000  Uiso   1.00
H362   H     0.16801   0.00000   0.81257   0.00000  Uiso   1.00
H363   H     0.20915   0.00000   0.65541   0.00000  Uiso   1.00
H364   H     0.12930   0.00000   0.76559   0.00000  Uiso   1.00
C365   C     0.09263   0.00000   0.60145   0.00000  Uiso   1.00
C366   C     0.05865   0.00000   0.61571   0.00000  Uiso   1.00
C367   C     0.03228   0.00000   0.58298   0.00000  Uiso   1.00
C368   C     0.03434   0.00000   0.53298   0.00000  Uiso   1.00
C369   C     0.06873   0.00000   0.51704   0.00000  Uiso   1.00
C370   C     0.09715   0.00000   0.55033   0.00000  Uiso   1.00
H371   H     0.16425   0.00000   0.59084   0.00000  Uiso   1.00
H372   H     0.05194   0.00000   0.65535   0.00000  Uiso   1.00
H373   H     0.12422   0.00000   0.53617   0.00000  Uiso   1.00
H374   H     0.07465   0.00000   0.47714   0.00000  Uiso   1.00
C375   C     0.27592   0.00000   0.91217   0.00000  Uiso   1.00
C376   C     0.28407   0.00000   0.86268   0.00000  Uiso   1.00
C377   C     0.24117   0.00000   0.92366   0.00000  Uiso   1.00
H378   H     0.31169   0.00000   0.85082   0.00000  Uiso   1.00
H379   H     0.23282   0.00000   0.96268   0.00000  Uiso   1.00
H380   H     0.41428   0.00000   0.04732   0.00000  Uiso   1.00
C381   C     0.30441   0.00000   0.94946   0.00000  Uiso   1.00
N382   N     0.30032   0.00000   0.99650   0.00000  Uiso   1.00
C383   C     0.32702   0.00000   0.03379   0.00000  Uiso   1.00
C384   C     0.31855   0.00000   0.08310   0.00000  Uiso   1.00
C385   C     0.34373   0.00000   0.11999   0.00000  Uiso   1.00
C386   C     0.37890   0.00000   0.10951   0.00000  Uiso   1.00
C387   C     0.38675   0.00000   0.05957   0.00000  Uiso   1.00
C388   C     0.36185   0.00000   0.02321   0.00000  Uiso   1.00
H389   H     0.33199   0.00000   0.93743   0.00000  Uiso   1.00
H390   H     0.29085   0.00000   0.09459   0.00000  Uiso   1.00
H391   H     0.37070   0.00000   0.98441   0.00000  Uiso   1.00
C392   C     0.40737   0.00000   0.14855   0.00000  Uiso   1.00
C393   C     0.44135   0.00000   0.13429   0.00000  Uiso   1.00
C394   C     0.46772   0.00000   0.16702   0.00000  Uiso   1.00
C395   C     0.46566   0.00000   0.21702   0.00000  Uiso   1.00
C396   C     0.43127   0.00000   0.23296   0.00000  Uiso   1.00
C397   C     0.40285   0.00000   0.19967   0.00000  Uiso   1.00
H398   H     0.33575   0.00000   0.15916   0.00000  Uiso   1.00
H399   H     0.44806   0.00000   0.09465   0.00000  Uiso   1.00
H400   H     0.37578   0.00000   0.21383   0.00000  Uiso   1.00
H401   H     0.42535   0.00000   0.27286   0.00000  Uiso   1.00
C402   C     0.22408   0.50000   0.41217   0.00000  Uiso   1.00
C403   C     0.21593   0.50000   0.36268   0.00000  Uiso   1.00
C404   C     0.25883   0.50000   0.42366   0.00000  Uiso   1.00
H405   H     0.18831   0.50000   0.35082   0.00000  Uiso   1.00
H406   H     0.26718   0.50000   0.46268   0.00000  Uiso   1.00
H407   H     0.08572   0.50000   0.54732   0.00000  Uiso   1.00
C408   C     0.19559   0.50000   0.44946   0.00000  Uiso   1.00
N409   N     0.19968   0.50000   0.49650   0.00000  Uiso   1.00
C410   C     0.17298   0.50000   0.53379   0.00000  Uiso   1.00
C411   C     0.18145   0.50000   0.58310   0.00000  Uiso   1.00
C412   C     0.15627   0.50000   0.61999   0.00000  Uiso   1.00
C413   C     0.12110   0.50000   0.60951   0.00000  Uiso   1.00
C414   C     0.11325   0.50000   0.55957   0.00000  Uiso   1.00
C415   C     0.13815   0.50000   0.52321   0.00000  Uiso   1.00
H416   H     0.16801   0.50000   0.43743   0.00000  Uiso   1.00
H417   H     0.20915   0.50000   0.59459   0.00000  Uiso   1.00
H418   H     0.12930   0.50000   0.48441   0.00000  Uiso   1.00
C419   C     0.09263   0.50000   0.64855   0.00000  Uiso   1.00
C420   C     0.05865   0.50000   0.63429   0.00000  Uiso   1.00
C421   C     0.03228   0.50000   0.66702   0.00000  Uiso   1.00
C422   C     0.03434   0.50000   0.71702   0.00000  Uiso   1.00
C423   C     0.06873   0.50000   0.73296   0.00000  Uiso   1.00
C424   C     0.09715   0.50000   0.69967   0.00000  Uiso   1.00
H425   H     0.16425   0.50000   0.65916   0.00000  Uiso   1.00
H426   H     0.05194   0.50000   0.59465   0.00000  Uiso   1.00
H427   H     0.12422   0.50000   0.71383   0.00000  Uiso   1.00
H428   H     0.07465   0.50000   0.77286   0.00000  Uiso   1.00
C429   C     0.00000   0.00000   0.50000   0.00000  Uiso   1.00
C430   C     0.50000   0.50000   0.00000   0.00000  Uiso   1.00
C431   C     0.00000   0.50000   0.75000   0.00000  Uiso   1.00
C432   C     0.50000   0.00000   0.25000   0.00000  Uiso   1.00
H433   H     0.00000   0.00493   0.40396   0.00000  Uiso   1.00
H434   H     0.50000   0.50493   0.90396   0.00000  Uiso   1.00
H435   H     0.50000   0.49507   0.90396   0.00000  Uiso   1.00
H436   H     0.00000   0.99507   0.40396   0.00000  Uiso   1.00
H437   H     0.99507   0.50000   0.65396   0.00000  Uiso   1.00
H438   H     0.50493   0.00000   0.15396   0.00000  Uiso   1.00
H439   H     0.50000   0.00493   0.34604   0.00000  Uiso   1.00
H440   H     0.00000   0.50493   0.84604   0.00000  Uiso   1.00
H441   H     0.00000   0.49507   0.84604   0.00000  Uiso   1.00
H442   H     0.50000   0.99507   0.34604   0.00000  Uiso   1.00
H443   H     0.50493   0.50000   0.09604   0.00000  Uiso   1.00
H444   H     0.99507   0.00000   0.59604   0.00000  Uiso   1.00
H445   H     0.49507   0.50000   0.09604   0.00000  Uiso   1.00
H446   H     0.00493   0.00000   0.59604   0.00000  Uiso   1.00
H447   H     0.49507   0.00000   0.15396   0.00000  Uiso   1.00
H448   H     0.00493   0.50000   0.65396   0.00000  Uiso   1.00
loop_
_geom_bond_atom_site_label_1
_geom_bond_atom_site_label_2
_geom_bond_distance
_geom_bond_site_symmetry_2
_ccdc_geom_bond_type
C1     C2      1.421   .     S
C1     C3      1.409   .     D
C1     C7      1.534   .     S
C2     H4      1.140   .     S
C2     C217    1.424   .     D
C3     H5      1.140   .     S
C3     C216    1.424   .     S
H6     C13     1.140   .     S
C7     N8      1.325   .     D
C7     H15     1.140   .     S
N8     C9      1.483   .     S
C9     C10     1.419   .     D
C9     C14     1.407   .     S
C10    C11     1.433   .     S
C10    H16     1.140   .     S
C11    C12     1.420   .     D
C11    H24     1.140   .     S
C12    C13     1.431   .     S
C12    C18     1.567   .     S
C13    C14     1.415   .     D
C14    H17     1.140   .     S
C18    C19     1.400   .     D
C18    C23     1.441   .     S
C19    C20     1.387   .     S
C19    H25     1.140   .     S
C20    C21     1.401   .     D
C20    H433    1.140   .     S
C21    C22     1.429   .     S
C21    C429    1.640   .     S
C22    C23     1.458   .     D
C22    H27     1.140   .     S
C23    H26     1.140   .     S
C28    C29     1.421   .     S
C28    C30     1.409   .     S
C28    C34     1.534   .     D
C29    H31     1.140   .     S
C29    C244    1.424   .     D
C30    H32     1.140   .     S
C30    C243    1.424   .     D
H33    C40     1.140   .     S
C34    N35     1.325   .     S
C34    H42     1.140   .     S
N35    C36     1.483   .     D
C36    C37     1.419   .     S
C36    C41     1.407   .     S
C37    C38     1.433   .     D
C37    H43     1.140   .     S
C38    C39     1.420   .     S
C38    H51     1.140   .     S
C39    C40     1.431   .     S
C39    C45     1.567   .     D
C40    C41     1.415   .     D
C41    H44     1.140   .     S
C45    C46     1.400   .     S
C45    C50     1.441   .     S
C46    C47     1.387   .     D
C46    H52     1.140   .     S
C47    C48     1.401   .     S
C47    H434    1.140   .     S
C48    C49     1.429   .     D
C48    C430    1.640   1_556 S
C49    C50     1.458   .     D
C50    H53     1.140   .     S
C54    C55     1.421   .     S
C54    C56     1.409   .     S
C54    C60     1.534   .     D
C55    H57     1.140   .     S
C55    C163    1.424   .     D
C56    H58     1.140   .     S
C56    C162    1.424   .     D
H59    C66     1.140   .     S
C60    N61     1.325   .     S
C60    H68     1.140   .     S
N61    C62     1.483   .     D
C62    C63     1.419   .     S
C62    C67     1.407   .     S
C63    C64     1.433   .     D
C63    H69     1.140   .     S
C64    C65     1.420   .     S
C64    H77     1.140   .     S
C65    C66     1.431   .     S
C65    C71     1.567   .     D
C66    C67     1.415   .     D
C67    H70     1.140   .     S
C71    C72     1.400   .     S
C71    C76     1.441   .     S
C72    C73     1.387   .     D
C72    H78     1.140   .     S
C73    C74     1.401   .     S
C73    H435    1.140   .     S
C74    C75     1.429   .     D
C74    C430    1.640   1_556 S
C75    C76     1.458   .     D
C76    H79     1.140   .     S
C80    C81     1.421   .     S
C80    C82     1.409   .     D
C80    C86     1.534   .     S
C81    H83     1.140   .     S
C81    C190    1.424   .     D
C82    H84     1.140   .     S
C82    C189    1.424   .     S
H85    C92     1.140   .     S
C86    N87     1.325   .     D
C86    H94     1.140   .     S
N87    C88     1.483   .     S
C88    C89     1.419   .     D
C88    C93     1.407   .     S
C89    C90     1.433   .     S
C89    H95     1.140   .     S
C90    C91     1.420   .     D
C90    H103    1.140   .     S
C91    C92     1.431   .     S
C91    C97     1.567   .     S
C92    C93     1.415   .     D
C93    H96     1.140   .     S
C97    C98     1.400   .     D
C97    C102    1.441   .     S
C98    C99     1.387   .     S
C98    H104    1.140   .     S
C99    C100    1.401   .     D
C99    H436    1.140   .     S
C100   C101    1.429   .     S
C100   C429    1.640   1_565 S
C101   C102    1.458   .     D
C101   H106    1.140   .     S
C102   H105    1.140   .     S
C107   C108    1.421   .     S
C107   C109    1.409   .     S
C107   C113    1.534   .     D
C108   H110    1.140   .     S
C108   C271    1.424   .     D
C109   H111    1.140   .     S
C109   C270    1.424   .     D
H112   C119    1.140   .     S
C113   N114    1.325   .     S
C113   H121    1.140   .     S
N114   C115    1.483   .     S
C115   C116    1.419   .     S
C115   C120    1.407   .     D
C116   C117    1.433   .     D
C116   H122    1.140   .     S
C117   C118    1.420   .     S
C117   H130    1.140   .     S
C118   C119    1.431   .     D
C118   C124    1.567   .     S
C119   C120    1.415   .     S
C120   H123    1.140   .     S
C124   C125    1.400   .     S
C124   C129    1.441   .     D
C125   C126    1.387   .     D
C125   H131    1.140   .     S
C126   C127    1.401   .     S
C126   H437    1.140   .     S
C127   C128    1.429   .     D
C127   C431    1.640   1_655 S
C128   C129    1.458   .     S
C128   H133    1.140   .     S
C129   H132    1.140   .     S
C134   C135    1.421   .     S
C134   C136    1.409   .     D
C134   C140    1.534   .     S
C135   H137    1.140   .     S
C135   C297    1.424   .     D
C136   H138    1.140   .     S
C136   C296    1.424   .     S
H139   C146    1.140   .     S
C140   N141    1.325   .     D
C140   H148    1.140   .     S
N141   C142    1.483   1_556 S
C142   C143    1.419   .     D
C142   C147    1.407   .     S
C142   N141    1.483   1_554 S
C143   C144    1.433   .     S
C143   H149    1.140   .     S
C144   C145    1.420   .     D
C144   H157    1.140   .     S
C145   C146    1.431   .     S
C145   C151    1.567   .     S
C146   C147    1.415   .     D
C147   H150    1.140   1_554 S
H150   C147    1.140   1_556 S
C151   C152    1.400   .     D
C151   C156    1.441   .     S
C152   C153    1.387   .     S
C152   H158    1.140   .     S
C153   C154    1.401   .     D
C153   H438    1.140   .     S
C154   C155    1.429   .     S
C154   C432    1.640   .     S
C155   C156    1.458   .     D
C155   H160    1.140   .     S
C156   H159    1.140   .     S
C161   C162    1.421   .     S
C161   C163    1.409   .     S
C161   C167    1.534   .     D
C162   H164    1.140   .     S
C163   H165    1.140   .     S
H166   C173    1.140   .     S
C167   N168    1.325   .     S
C167   H175    1.140   .     S
N168   C169    1.483   .     S
C169   C170    1.419   .     D
C169   C174    1.407   .     S
C170   C171    1.433   .     S
C170   H176    1.140   .     S
C171   C172    1.420   .     D
C171   H184    1.140   .     S
C172   C173    1.431   .     S
C172   C178    1.567   .     S
C173   C174    1.415   .     D
C174   H177    1.140   .     S
C178   C179    1.400   .     S
C178   C183    1.441   .     D
C179   C180    1.387   .     D
C179   H185    1.140   .     S
C180   C181    1.401   .     S
C180   H439    1.140   .     S
C181   C182    1.429   .     D
C181   C432    1.640   .     S
C182   C183    1.458   .     S
C182   H187    1.140   .     S
C183   H186    1.140   .     S
C188   C189    1.421   .     D
C188   C190    1.409   .     S
C188   C194    1.534   .     S
C189   H191    1.140   .     S
C190   H192    1.140   .     S
H193   C200    1.140   .     S
C194   N195    1.325   .     D
C194   H202    1.140   .     S
N195   C196    1.483   1_554 S
C196   C197    1.419   .     D
C196   C201    1.407   .     S
C196   N195    1.483   1_556 S
C197   C198    1.433   .     S
C197   H203    1.140   .     S
C198   C199    1.420   .     D
C198   H211    1.140   .     S
C199   C200    1.431   .     S
C199   C205    1.567   .     S
C200   C201    1.415   .     D
C201   H204    1.140   1_556 S
H204   C201    1.140   1_554 S
C205   C206    1.400   .     S
C205   C210    1.441   .     D
C206   C207    1.387   .     D
C206   H212    1.140   .     S
C207   C208    1.401   .     S
C207   H440    1.140   .     S
C208   C209    1.429   .     D
C208   C431    1.640   .     S
C209   C210    1.458   .     S
C209   H214    1.140   .     S
C210   H213    1.140   .     S
C215   C216    1.421   .     D
C215   C217    1.409   .     S
C215   C221    1.534   .     S
C216   H218    1.140   .     S
C217   H219    1.140   .     S
H220   C227    1.140   .     S
C221   N222    1.325   .     D
C221   H229    1.140   .     S
N222   C223    1.483   1_554 S
C223   C224    1.419   .     D
C223   C228    1.407   .     S
C223   N222    1.483   1_556 S
C224   C225    1.433   .     S
C224   H230    1.140   .     S
C225   C226    1.420   .     D
C225   H238    1.140   .     S
C226   C227    1.431   .     S
C226   C232    1.567   .     S
C227   C228    1.415   .     D
C228   H231    1.140   1_556 S
H231   C228    1.140   1_554 S
C232   C233    1.400   .     S
C232   C237    1.441   .     D
C233   C234    1.387   .     D
C233   H239    1.140   .     S
C234   C235    1.401   .     S
C234   H441    1.140   .     S
C235   C236    1.429   .     D
C235   C431    1.640   .     S
C236   C237    1.458   .     S
C236   H241    1.140   .     S
C237   H240    1.140   .     S
C242   C243    1.421   .     S
C242   C244    1.409   .     S
C242   C248    1.534   .     D
C243   H245    1.140   .     S
C244   H246    1.140   .     S
H247   C254    1.140   .     S
C248   N249    1.325   .     S
C248   H256    1.140   .     S
N249   C250    1.483   .     S
C250   C251    1.419   .     D
C250   C255    1.407   .     S
C251   C252    1.433   .     S
C251   H257    1.140   .     S
C252   C253    1.420   .     D
C252   H265    1.140   .     S
C253   C254    1.431   .     S
C253   C259    1.567   .     S
C254   C255    1.415   .     D
C255   H258    1.140   .     S
C259   C260    1.400   .     S
C259   C264    1.441   .     D
C260   C261    1.387   .     D
C260   H266    1.140   .     S
C261   C262    1.401   .     S
C261   H442    1.140   .     S
C262   C263    1.429   .     D
C262   C432    1.640   1_565 S
C263   C264    1.458   .     S
C263   H268    1.140   .     S
C264   H267    1.140   .     S
C269   C270    1.421   .     S
C269   C271    1.409   .     S
C269   C275    1.534   .     D
C270   H272    1.140   .     S
C271   H273    1.140   .     S
H274   C281    1.140   .     S
C275   N276    1.325   .     S
C275   H283    1.140   .     S
N276   C277    1.483   .     D
C277   C278    1.419   .     S
C277   C282    1.407   .     S
C278   C279    1.433   .     D
C278   H284    1.140   .     S
C279   C280    1.420   .     S
C279   H292    1.140   .     S
C280   C281    1.431   .     S
C280   C286    1.567   .     D
C281   C282    1.415   .     D
C282   H285    1.140   .     S
C286   C287    1.400   .     S
C286   C291    1.441   .     S
C287   C288    1.387   .     D
C287   H293    1.140   .     S
C288   C289    1.401   .     S
C288   H443    1.140   .     S
C289   C290    1.429   .     D
C289   C430    1.640   .     S
C290   C291    1.458   .     D
C291   H294    1.140   .     S
C295   C296    1.421   .     D
C295   C297    1.409   .     S
C295   C301    1.534   .     S
C296   H298    1.140   .     S
C297   H299    1.140   .     S
H300   C307    1.140   .     S
C301   N302    1.325   .     D
C301   H309    1.140   .     S
N302   C303    1.483   .     S
C303   C304    1.419   .     D
C303   C308    1.407   .     S
C304   C305    1.433   .     S
C304   H310    1.140   .     S
C305   C306    1.420   .     D
C305   H318    1.140   .     S
C306   C307    1.431   .     S
C306   C312    1.567   .     S
C307   C308    1.415   .     D
C308   H311    1.140   .     S
C312   C313    1.400   .     S
C312   C317    1.441   .     D
C313   C314    1.387   .     D
C313   H319    1.140   .     S
C314   C315    1.401   .     S
C314   H444    1.140   .     S
C315   C316    1.429   .     D
C315   C429    1.640   1_655 S
C316   C317    1.458   .     S
C316   H321    1.140   .     S
C317   H320    1.140   .     S
C322   C323    1.421   .     S
C322   C324    1.409   .     S
C322   C328    1.534   .     D
C323   H325    1.140   .     S
C323   C404    1.424   .     D
C324   H326    1.140   .     S
C324   C403    1.424   .     D
H327   C334    1.140   .     S
C328   N329    1.325   .     S
C328   H336    1.140   .     S
N329   C330    1.483   .     D
C330   C331    1.419   .     S
C330   C335    1.407   .     S
C331   C332    1.433   .     D
C331   H337    1.140   .     S
C332   C333    1.420   .     S
C332   H345    1.140   .     S
C333   C334    1.431   .     S
C333   C339    1.567   .     D
C334   C335    1.415   .     D
C335   H338    1.140   .     S
C339   C340    1.400   .     S
C339   C344    1.441   .     S
C340   C341    1.387   .     D
C340   H346    1.140   .     S
C341   C342    1.401   .     S
C341   H445    1.140   .     S
C342   C343    1.429   .     D
C342   C430    1.640   .     S
C343   C344    1.458   .     D
C344   H347    1.140   .     S
C348   C349    1.421   .     S
C348   C350    1.409   .     D
C348   C354    1.534   .     S
C349   H351    1.140   .     S
C349   C377    1.424   .     D
C350   H352    1.140   .     S
C350   C376    1.424   .     S
H353   C360    1.140   .     S
C354   N355    1.325   .     D
C354   H362    1.140   .     S
N355   C356    1.483   .     S
C356   C357    1.419   .     D
C356   C361    1.407   .     S
C357   C358    1.433   .     S
C357   H363    1.140   .     S
C358   C359    1.420   .     D
C358   H371    1.140   .     S
C359   C360    1.431   .     S
C359   C365    1.567   .     S
C360   C361    1.415   .     D
C361   H364    1.140   .     S
C365   C366    1.400   .     D
C365   C370    1.441   .     S
C366   C367    1.387   .     S
C366   H372    1.140   .     S
C367   C368    1.401   .     D
C367   H446    1.140   .     S
C368   C369    1.429   .     S
C368   C429    1.640   .     S
C369   C370    1.458   .     D
C369   H374    1.140   .     S
C370   H373    1.140   .     S
C375   C376    1.421   .     D
C375   C377    1.409   .     S
C375   C381    1.534   .     S
C376   H378    1.140   .     S
C377   H379    1.140   .     S
H380   C387    1.140   .     S
C381   N382    1.325   .     D
C381   H389    1.140   .     S
N382   C383    1.483   1_556 S
C383   C384    1.419   .     D
C383   C388    1.407   .     S
C383   N382    1.483   1_554 S
C384   C385    1.433   .     S
C384   H390    1.140   .     S
C385   C386    1.420   .     D
C385   H398    1.140   .     S
C386   C387    1.431   .     S
C386   C392    1.567   .     S
C387   C388    1.415   .     D
C388   H391    1.140   1_554 S
H391   C388    1.140   1_556 S
C392   C393    1.400   .     S
C392   C397    1.441   .     D
C393   C394    1.387   .     D
C393   H399    1.140   .     S
C394   C395    1.401   .     S
C394   H447    1.140   .     S
C395   C396    1.429   .     D
C395   C432    1.640   .     S
C396   C397    1.458   .     S
C396   H401    1.140   .     S
C397   H400    1.140   .     S
C402   C403    1.421   .     S
C402   C404    1.409   .     S
C402   C408    1.534   .     D
C403   H405    1.140   .     S
C404   H406    1.140   .     S
H407   C414    1.140   .     S
C408   N409    1.325   .     S
C408   H416    1.140   .     S
N409   C410    1.483   .     S
C410   C411    1.419   .     D
C410   C415    1.407   .     S
C411   C412    1.433   .     S
C411   H417    1.140   .     S
C412   C413    1.420   .     D
C412   H425    1.140   .     S
C413   C414    1.431   .     S
C413   C419    1.567   .     S
C414   C415    1.415   .     D
C415   H418    1.140   .     S
C419   C420    1.400   .     S
C419   C424    1.441   .     D
C420   C421    1.387   .     D
C420   H426    1.140   .     S
C421   C422    1.401   .     S
C421   H448    1.140   .     S
C422   C423    1.429   .     D
C422   C431    1.640   .     S
C423   C424    1.458   .     S
C423   H428    1.140   .     S
C424   H427    1.140   .     S
C429   C100    1.640   1_545 S
C429   C315    1.640   1_455 S
C430   C48     1.640   1_554 S
C430   C74     1.640   1_554 S
C431   C127    1.640   1_455 S
C432   C262    1.640   1_545 S
