data_1154
_audit_creation_date              2023-09-08
_audit_creation_method            'Materials Studio'
_symmetry_space_group_name_H-M    'P1'
_symmetry_Int_Tables_number       1
_symmetry_cell_setting            triclinic
loop_
_symmetry_equiv_pos_as_xyz
  x,y,z
_cell_length_a                    39.4840
_cell_length_b                    39.4840
_cell_length_c                    16.7730
_cell_angle_alpha                 90.0000
_cell_angle_beta                  90.0000
_cell_angle_gamma                 90.0000
loop_
_atom_site_label
_atom_site_type_symbol
_atom_site_fract_x
_atom_site_fract_y
_atom_site_fract_z
_atom_site_U_iso_or_equiv
_atom_site_adp_type
_atom_site_occupancy
C1     C     0.00000   0.72813   0.69569   0.00000  Uiso   1.00
C2     C     0.00000   0.57730   0.05403   0.00000  Uiso   1.00
C3     C     0.00000   0.58820   0.13561   0.00000  Uiso   1.00
C4     C     0.00000   0.56513   0.20135   0.00000  Uiso   1.00
C5     C     0.00000   0.52996   0.18857   0.00000  Uiso   1.00
C6     C     0.00000   0.51863   0.10958   0.00000  Uiso   1.00
C7     C     0.00000   0.54123   0.04316   0.00000  Uiso   1.00
H8     H     0.00000   0.61638   0.15037   0.00000  Uiso   1.00
H9     H     0.00000   0.53074   0.97984   0.00000  Uiso   1.00
C10    C     0.00000   0.60296   0.98223   0.00000  Uiso   1.00
C11    C     0.00000   0.59206   0.90135   0.00000  Uiso   1.00
C12    C     0.00000   0.61507   0.83600   0.00000  Uiso   1.00
C13    C     0.00000   0.65054   0.84631   0.00000  Uiso   1.00
C14    C     0.00000   0.66206   0.92616   0.00000  Uiso   1.00
C15    C     0.00000   0.63895   0.99209   0.00000  Uiso   1.00
H16    H     0.00000   0.56386   0.88676   0.00000  Uiso   1.00
H17    H     0.00000   0.60503   0.77227   0.00000  Uiso   1.00
H18    H     0.00000   0.69038   0.93941   0.00000  Uiso   1.00
H19    H     0.00000   0.65040   0.05448   0.00000  Uiso   1.00
C20    C     0.00000   0.70643   0.77219   0.00000  Uiso   1.00
N21    N     0.00000   0.67296   0.77538   0.00000  Uiso   1.00
C22    C     0.00000   0.71462   0.61766   0.00000  Uiso   1.00
C23    C     0.00000   0.73598   0.54890   0.00000  Uiso   1.00
H24    H     0.00000   0.72432   0.48672   0.00000  Uiso   1.00
H25    H     0.00000   0.68602   0.60841   0.00000  Uiso   1.00
C26    C     0.50000   0.22813   0.19569   0.00000  Uiso   1.00
C27    C     0.50000   0.07730   0.55403   0.00000  Uiso   1.00
C28    C     0.50000   0.08820   0.63561   0.00000  Uiso   1.00
C29    C     0.50000   0.06513   0.70135   0.00000  Uiso   1.00
C30    C     0.50000   0.02996   0.68857   0.00000  Uiso   1.00
C31    C     0.50000   0.01863   0.60958   0.00000  Uiso   1.00
C32    C     0.50000   0.04123   0.54316   0.00000  Uiso   1.00
H33    H     0.50000   0.11638   0.65037   0.00000  Uiso   1.00
H34    H     0.50000   0.03074   0.47984   0.00000  Uiso   1.00
C35    C     0.50000   0.10296   0.48223   0.00000  Uiso   1.00
C36    C     0.50000   0.09206   0.40135   0.00000  Uiso   1.00
C37    C     0.50000   0.11507   0.33600   0.00000  Uiso   1.00
C38    C     0.50000   0.15054   0.34631   0.00000  Uiso   1.00
C39    C     0.50000   0.16206   0.42616   0.00000  Uiso   1.00
C40    C     0.50000   0.13895   0.49209   0.00000  Uiso   1.00
H41    H     0.50000   0.06386   0.38676   0.00000  Uiso   1.00
H42    H     0.50000   0.10503   0.27227   0.00000  Uiso   1.00
H43    H     0.50000   0.19038   0.43941   0.00000  Uiso   1.00
H44    H     0.50000   0.15040   0.55448   0.00000  Uiso   1.00
C45    C     0.50000   0.20643   0.27219   0.00000  Uiso   1.00
N46    N     0.50000   0.17296   0.27538   0.00000  Uiso   1.00
C47    C     0.50000   0.21462   0.11766   0.00000  Uiso   1.00
C48    C     0.50000   0.23598   0.04890   0.00000  Uiso   1.00
H49    H     0.50000   0.22432   0.98672   0.00000  Uiso   1.00
H50    H     0.50000   0.18602   0.10841   0.00000  Uiso   1.00
C51    C     0.50000   0.77187   0.19569   0.00000  Uiso   1.00
C52    C     0.50000   0.92270   0.55403   0.00000  Uiso   1.00
C53    C     0.50000   0.91180   0.63561   0.00000  Uiso   1.00
C54    C     0.50000   0.93487   0.70135   0.00000  Uiso   1.00
C55    C     0.50000   0.97004   0.68857   0.00000  Uiso   1.00
C56    C     0.50000   0.98137   0.60958   0.00000  Uiso   1.00
C57    C     0.50000   0.95877   0.54316   0.00000  Uiso   1.00
H58    H     0.50000   0.88362   0.65037   0.00000  Uiso   1.00
H59    H     0.50000   0.96926   0.47984   0.00000  Uiso   1.00
C60    C     0.50000   0.89704   0.48223   0.00000  Uiso   1.00
C61    C     0.50000   0.90794   0.40135   0.00000  Uiso   1.00
C62    C     0.50000   0.88493   0.33600   0.00000  Uiso   1.00
C63    C     0.50000   0.84946   0.34631   0.00000  Uiso   1.00
C64    C     0.50000   0.83794   0.42616   0.00000  Uiso   1.00
C65    C     0.50000   0.86105   0.49209   0.00000  Uiso   1.00
H66    H     0.50000   0.93614   0.38676   0.00000  Uiso   1.00
H67    H     0.50000   0.89497   0.27227   0.00000  Uiso   1.00
H68    H     0.50000   0.80962   0.43941   0.00000  Uiso   1.00
H69    H     0.50000   0.84960   0.55448   0.00000  Uiso   1.00
C70    C     0.50000   0.79357   0.27219   0.00000  Uiso   1.00
N71    N     0.50000   0.82704   0.27538   0.00000  Uiso   1.00
C72    C     0.50000   0.78538   0.11766   0.00000  Uiso   1.00
C73    C     0.50000   0.76402   0.04890   0.00000  Uiso   1.00
H74    H     0.50000   0.77568   0.98672   0.00000  Uiso   1.00
H75    H     0.50000   0.81398   0.10841   0.00000  Uiso   1.00
C76    C     0.00000   0.27187   0.69569   0.00000  Uiso   1.00
C77    C     0.00000   0.42270   0.05403   0.00000  Uiso   1.00
C78    C     0.00000   0.41180   0.13561   0.00000  Uiso   1.00
C79    C     0.00000   0.43487   0.20135   0.00000  Uiso   1.00
C80    C     0.00000   0.47004   0.18857   0.00000  Uiso   1.00
C81    C     0.00000   0.48137   0.10958   0.00000  Uiso   1.00
C82    C     0.00000   0.45877   0.04316   0.00000  Uiso   1.00
H83    H     0.00000   0.38362   0.15037   0.00000  Uiso   1.00
H84    H     0.00000   0.46926   0.97984   0.00000  Uiso   1.00
C85    C     0.00000   0.39704   0.98223   0.00000  Uiso   1.00
C86    C     0.00000   0.40794   0.90135   0.00000  Uiso   1.00
C87    C     0.00000   0.38493   0.83600   0.00000  Uiso   1.00
C88    C     0.00000   0.34946   0.84631   0.00000  Uiso   1.00
C89    C     0.00000   0.33794   0.92616   0.00000  Uiso   1.00
C90    C     0.00000   0.36105   0.99209   0.00000  Uiso   1.00
H91    H     0.00000   0.43614   0.88676   0.00000  Uiso   1.00
H92    H     0.00000   0.39497   0.77227   0.00000  Uiso   1.00
H93    H     0.00000   0.30962   0.93941   0.00000  Uiso   1.00
H94    H     0.00000   0.34960   0.05448   0.00000  Uiso   1.00
C95    C     0.00000   0.29357   0.77219   0.00000  Uiso   1.00
N96    N     0.00000   0.32704   0.77538   0.00000  Uiso   1.00
C97    C     0.00000   0.28538   0.61766   0.00000  Uiso   1.00
C98    C     0.00000   0.26402   0.54890   0.00000  Uiso   1.00
H99    H     0.00000   0.27568   0.48672   0.00000  Uiso   1.00
H100   H     0.00000   0.31398   0.60841   0.00000  Uiso   1.00
C101   C     0.27187   0.50000   0.94569   0.00000  Uiso   1.00
C102   C     0.42270   0.50000   0.30403   0.00000  Uiso   1.00
C103   C     0.41180   0.50000   0.38561   0.00000  Uiso   1.00
C104   C     0.43487   0.50000   0.45135   0.00000  Uiso   1.00
C105   C     0.47004   0.50000   0.43857   0.00000  Uiso   1.00
C106   C     0.48137   0.50000   0.35958   0.00000  Uiso   1.00
C107   C     0.45877   0.50000   0.29316   0.00000  Uiso   1.00
H108   H     0.38362   0.50000   0.40037   0.00000  Uiso   1.00
H109   H     0.46926   0.50000   0.22984   0.00000  Uiso   1.00
C110   C     0.39704   0.50000   0.23223   0.00000  Uiso   1.00
C111   C     0.40794   0.50000   0.15135   0.00000  Uiso   1.00
C112   C     0.38493   0.50000   0.08600   0.00000  Uiso   1.00
C113   C     0.34946   0.50000   0.09631   0.00000  Uiso   1.00
C114   C     0.33794   0.50000   0.17616   0.00000  Uiso   1.00
C115   C     0.36105   0.50000   0.24209   0.00000  Uiso   1.00
H116   H     0.43614   0.50000   0.13676   0.00000  Uiso   1.00
H117   H     0.39497   0.50000   0.02227   0.00000  Uiso   1.00
H118   H     0.30962   0.50000   0.18941   0.00000  Uiso   1.00
H119   H     0.34960   0.50000   0.30448   0.00000  Uiso   1.00
C120   C     0.29357   0.50000   0.02219   0.00000  Uiso   1.00
N121   N     0.32704   0.50000   0.02538   0.00000  Uiso   1.00
C122   C     0.28538   0.50000   0.86766   0.00000  Uiso   1.00
C123   C     0.26402   0.50000   0.79890   0.00000  Uiso   1.00
H124   H     0.27568   0.50000   0.73672   0.00000  Uiso   1.00
H125   H     0.31398   0.50000   0.85841   0.00000  Uiso   1.00
C126   C     0.22813   0.00000   0.44569   0.00000  Uiso   1.00
C127   C     0.07730   0.00000   0.80403   0.00000  Uiso   1.00
C128   C     0.08820   0.00000   0.88561   0.00000  Uiso   1.00
C129   C     0.06513   0.00000   0.95135   0.00000  Uiso   1.00
C130   C     0.02996   0.00000   0.93857   0.00000  Uiso   1.00
C131   C     0.01863   0.00000   0.85958   0.00000  Uiso   1.00
C132   C     0.04123   0.00000   0.79316   0.00000  Uiso   1.00
H133   H     0.11638   0.00000   0.90037   0.00000  Uiso   1.00
H134   H     0.03074   0.00000   0.72984   0.00000  Uiso   1.00
C135   C     0.10296   0.00000   0.73223   0.00000  Uiso   1.00
C136   C     0.09206   0.00000   0.65135   0.00000  Uiso   1.00
C137   C     0.11507   0.00000   0.58600   0.00000  Uiso   1.00
C138   C     0.15054   0.00000   0.59631   0.00000  Uiso   1.00
C139   C     0.16206   0.00000   0.67616   0.00000  Uiso   1.00
C140   C     0.13895   0.00000   0.74209   0.00000  Uiso   1.00
H141   H     0.06386   0.00000   0.63676   0.00000  Uiso   1.00
H142   H     0.10503   0.00000   0.52227   0.00000  Uiso   1.00
H143   H     0.19038   0.00000   0.68941   0.00000  Uiso   1.00
H144   H     0.15040   0.00000   0.80448   0.00000  Uiso   1.00
C145   C     0.20643   0.00000   0.52219   0.00000  Uiso   1.00
N146   N     0.17296   0.00000   0.52538   0.00000  Uiso   1.00
C147   C     0.21462   0.00000   0.36766   0.00000  Uiso   1.00
C148   C     0.23598   0.00000   0.29890   0.00000  Uiso   1.00
H149   H     0.22432   0.00000   0.23672   0.00000  Uiso   1.00
H150   H     0.18602   0.00000   0.35841   0.00000  Uiso   1.00
C151   C     0.50000   0.72813   0.05431   0.00000  Uiso   1.00
C152   C     0.50000   0.57730   0.69597   0.00000  Uiso   1.00
C153   C     0.50000   0.58820   0.61439   0.00000  Uiso   1.00
C154   C     0.50000   0.56513   0.54865   0.00000  Uiso   1.00
C155   C     0.50000   0.52996   0.56143   0.00000  Uiso   1.00
C156   C     0.50000   0.51863   0.64042   0.00000  Uiso   1.00
C157   C     0.50000   0.54123   0.70684   0.00000  Uiso   1.00
H158   H     0.50000   0.61638   0.59963   0.00000  Uiso   1.00
H159   H     0.50000   0.53074   0.77016   0.00000  Uiso   1.00
C160   C     0.50000   0.60296   0.76777   0.00000  Uiso   1.00
C161   C     0.50000   0.59206   0.84865   0.00000  Uiso   1.00
C162   C     0.50000   0.61507   0.91400   0.00000  Uiso   1.00
C163   C     0.50000   0.65054   0.90369   0.00000  Uiso   1.00
C164   C     0.50000   0.66206   0.82384   0.00000  Uiso   1.00
C165   C     0.50000   0.63895   0.75791   0.00000  Uiso   1.00
H166   H     0.50000   0.56386   0.86324   0.00000  Uiso   1.00
H167   H     0.50000   0.60503   0.97773   0.00000  Uiso   1.00
H168   H     0.50000   0.69038   0.81059   0.00000  Uiso   1.00
H169   H     0.50000   0.65040   0.69552   0.00000  Uiso   1.00
C170   C     0.50000   0.70643   0.97781   0.00000  Uiso   1.00
N171   N     0.50000   0.67296   0.97462   0.00000  Uiso   1.00
C172   C     0.50000   0.71462   0.13234   0.00000  Uiso   1.00
C173   C     0.50000   0.73598   0.20110   0.00000  Uiso   1.00
H174   H     0.50000   0.72432   0.26328   0.00000  Uiso   1.00
H175   H     0.50000   0.68602   0.14159   0.00000  Uiso   1.00
C176   C     0.00000   0.22813   0.55431   0.00000  Uiso   1.00
C177   C     0.00000   0.07730   0.19597   0.00000  Uiso   1.00
C178   C     0.00000   0.08820   0.11439   0.00000  Uiso   1.00
C179   C     0.00000   0.06513   0.04865   0.00000  Uiso   1.00
C180   C     0.00000   0.02996   0.06143   0.00000  Uiso   1.00
C181   C     0.00000   0.01863   0.14042   0.00000  Uiso   1.00
C182   C     0.00000   0.04123   0.20684   0.00000  Uiso   1.00
H183   H     0.00000   0.11638   0.09963   0.00000  Uiso   1.00
H184   H     0.00000   0.03074   0.27016   0.00000  Uiso   1.00
C185   C     0.00000   0.10296   0.26777   0.00000  Uiso   1.00
C186   C     0.00000   0.09206   0.34865   0.00000  Uiso   1.00
C187   C     0.00000   0.11507   0.41400   0.00000  Uiso   1.00
C188   C     0.00000   0.15054   0.40369   0.00000  Uiso   1.00
C189   C     0.00000   0.16206   0.32384   0.00000  Uiso   1.00
C190   C     0.00000   0.13895   0.25791   0.00000  Uiso   1.00
H191   H     0.00000   0.06386   0.36324   0.00000  Uiso   1.00
H192   H     0.00000   0.10503   0.47773   0.00000  Uiso   1.00
H193   H     0.00000   0.19038   0.31059   0.00000  Uiso   1.00
H194   H     0.00000   0.15040   0.19552   0.00000  Uiso   1.00
C195   C     0.00000   0.20643   0.47781   0.00000  Uiso   1.00
N196   N     0.00000   0.17296   0.47462   0.00000  Uiso   1.00
C197   C     0.00000   0.21462   0.63234   0.00000  Uiso   1.00
C198   C     0.00000   0.23598   0.70110   0.00000  Uiso   1.00
H199   H     0.00000   0.22432   0.76328   0.00000  Uiso   1.00
H200   H     0.00000   0.18602   0.64159   0.00000  Uiso   1.00
C201   C     0.00000   0.77187   0.55431   0.00000  Uiso   1.00
C202   C     0.00000   0.92270   0.19597   0.00000  Uiso   1.00
C203   C     0.00000   0.91180   0.11439   0.00000  Uiso   1.00
C204   C     0.00000   0.93487   0.04865   0.00000  Uiso   1.00
C205   C     0.00000   0.97004   0.06143   0.00000  Uiso   1.00
C206   C     0.00000   0.98137   0.14042   0.00000  Uiso   1.00
C207   C     0.00000   0.95877   0.20684   0.00000  Uiso   1.00
H208   H     0.00000   0.88362   0.09963   0.00000  Uiso   1.00
H209   H     0.00000   0.96926   0.27016   0.00000  Uiso   1.00
C210   C     0.00000   0.89704   0.26777   0.00000  Uiso   1.00
C211   C     0.00000   0.90794   0.34865   0.00000  Uiso   1.00
C212   C     0.00000   0.88493   0.41400   0.00000  Uiso   1.00
C213   C     0.00000   0.84946   0.40369   0.00000  Uiso   1.00
C214   C     0.00000   0.83794   0.32384   0.00000  Uiso   1.00
C215   C     0.00000   0.86105   0.25791   0.00000  Uiso   1.00
H216   H     0.00000   0.93614   0.36324   0.00000  Uiso   1.00
H217   H     0.00000   0.89497   0.47773   0.00000  Uiso   1.00
H218   H     0.00000   0.80962   0.31059   0.00000  Uiso   1.00
H219   H     0.00000   0.84960   0.19552   0.00000  Uiso   1.00
C220   C     0.00000   0.79357   0.47781   0.00000  Uiso   1.00
N221   N     0.00000   0.82704   0.47462   0.00000  Uiso   1.00
C222   C     0.00000   0.78538   0.63234   0.00000  Uiso   1.00
C223   C     0.00000   0.76402   0.70110   0.00000  Uiso   1.00
H224   H     0.00000   0.77568   0.76328   0.00000  Uiso   1.00
H225   H     0.00000   0.81398   0.64159   0.00000  Uiso   1.00
C226   C     0.50000   0.27187   0.05431   0.00000  Uiso   1.00
C227   C     0.50000   0.42270   0.69597   0.00000  Uiso   1.00
C228   C     0.50000   0.41180   0.61439   0.00000  Uiso   1.00
C229   C     0.50000   0.43487   0.54865   0.00000  Uiso   1.00
C230   C     0.50000   0.47004   0.56143   0.00000  Uiso   1.00
C231   C     0.50000   0.48137   0.64042   0.00000  Uiso   1.00
C232   C     0.50000   0.45877   0.70684   0.00000  Uiso   1.00
H233   H     0.50000   0.38362   0.59963   0.00000  Uiso   1.00
H234   H     0.50000   0.46926   0.77016   0.00000  Uiso   1.00
C235   C     0.50000   0.39704   0.76777   0.00000  Uiso   1.00
C236   C     0.50000   0.40794   0.84865   0.00000  Uiso   1.00
C237   C     0.50000   0.38493   0.91400   0.00000  Uiso   1.00
C238   C     0.50000   0.34946   0.90369   0.00000  Uiso   1.00
C239   C     0.50000   0.33794   0.82384   0.00000  Uiso   1.00
C240   C     0.50000   0.36105   0.75791   0.00000  Uiso   1.00
H241   H     0.50000   0.43614   0.86324   0.00000  Uiso   1.00
H242   H     0.50000   0.39497   0.97773   0.00000  Uiso   1.00
H243   H     0.50000   0.30962   0.81059   0.00000  Uiso   1.00
H244   H     0.50000   0.34960   0.69552   0.00000  Uiso   1.00
C245   C     0.50000   0.29357   0.97781   0.00000  Uiso   1.00
N246   N     0.50000   0.32704   0.97462   0.00000  Uiso   1.00
C247   C     0.50000   0.28538   0.13234   0.00000  Uiso   1.00
C248   C     0.50000   0.26402   0.20110   0.00000  Uiso   1.00
H249   H     0.50000   0.27568   0.26328   0.00000  Uiso   1.00
H250   H     0.50000   0.31398   0.14159   0.00000  Uiso   1.00
C251   C     0.22813   0.50000   0.80431   0.00000  Uiso   1.00
C252   C     0.07730   0.50000   0.44597   0.00000  Uiso   1.00
C253   C     0.08820   0.50000   0.36439   0.00000  Uiso   1.00
C254   C     0.06513   0.50000   0.29865   0.00000  Uiso   1.00
C255   C     0.02996   0.50000   0.31143   0.00000  Uiso   1.00
C256   C     0.01863   0.50000   0.39042   0.00000  Uiso   1.00
C257   C     0.04123   0.50000   0.45684   0.00000  Uiso   1.00
H258   H     0.11638   0.50000   0.34963   0.00000  Uiso   1.00
H259   H     0.03074   0.50000   0.52016   0.00000  Uiso   1.00
C260   C     0.10296   0.50000   0.51777   0.00000  Uiso   1.00
C261   C     0.09206   0.50000   0.59865   0.00000  Uiso   1.00
C262   C     0.11507   0.50000   0.66400   0.00000  Uiso   1.00
C263   C     0.15054   0.50000   0.65369   0.00000  Uiso   1.00
C264   C     0.16206   0.50000   0.57384   0.00000  Uiso   1.00
C265   C     0.13895   0.50000   0.50791   0.00000  Uiso   1.00
H266   H     0.06386   0.50000   0.61324   0.00000  Uiso   1.00
H267   H     0.10503   0.50000   0.72773   0.00000  Uiso   1.00
H268   H     0.19038   0.50000   0.56059   0.00000  Uiso   1.00
H269   H     0.15040   0.50000   0.44552   0.00000  Uiso   1.00
C270   C     0.20643   0.50000   0.72781   0.00000  Uiso   1.00
N271   N     0.17296   0.50000   0.72462   0.00000  Uiso   1.00
C272   C     0.21462   0.50000   0.88234   0.00000  Uiso   1.00
C273   C     0.23598   0.50000   0.95110   0.00000  Uiso   1.00
H274   H     0.22432   0.50000   0.01328   0.00000  Uiso   1.00
H275   H     0.18602   0.50000   0.89159   0.00000  Uiso   1.00
C276   C     0.27187   0.00000   0.30431   0.00000  Uiso   1.00
C277   C     0.42270   0.00000   0.94597   0.00000  Uiso   1.00
C278   C     0.41180   0.00000   0.86439   0.00000  Uiso   1.00
C279   C     0.43487   0.00000   0.79865   0.00000  Uiso   1.00
C280   C     0.47004   0.00000   0.81143   0.00000  Uiso   1.00
C281   C     0.48137   0.00000   0.89042   0.00000  Uiso   1.00
C282   C     0.45877   0.00000   0.95684   0.00000  Uiso   1.00
H283   H     0.38362   0.00000   0.84963   0.00000  Uiso   1.00
H284   H     0.46926   0.00000   0.02016   0.00000  Uiso   1.00
C285   C     0.39704   0.00000   0.01777   0.00000  Uiso   1.00
C286   C     0.40794   0.00000   0.09865   0.00000  Uiso   1.00
C287   C     0.38493   0.00000   0.16400   0.00000  Uiso   1.00
C288   C     0.34946   0.00000   0.15369   0.00000  Uiso   1.00
C289   C     0.33794   0.00000   0.07384   0.00000  Uiso   1.00
C290   C     0.36105   0.00000   0.00791   0.00000  Uiso   1.00
H291   H     0.43614   0.00000   0.11324   0.00000  Uiso   1.00
H292   H     0.39497   0.00000   0.22773   0.00000  Uiso   1.00
H293   H     0.30962   0.00000   0.06059   0.00000  Uiso   1.00
H294   H     0.34960   0.00000   0.94552   0.00000  Uiso   1.00
C295   C     0.29357   0.00000   0.22781   0.00000  Uiso   1.00
N296   N     0.32704   0.00000   0.22462   0.00000  Uiso   1.00
C297   C     0.28538   0.00000   0.38234   0.00000  Uiso   1.00
C298   C     0.26402   0.00000   0.45110   0.00000  Uiso   1.00
H299   H     0.27568   0.00000   0.51328   0.00000  Uiso   1.00
H300   H     0.31398   0.00000   0.39159   0.00000  Uiso   1.00
C301   C     0.77187   0.50000   0.80431   0.00000  Uiso   1.00
C302   C     0.92270   0.50000   0.44597   0.00000  Uiso   1.00
C303   C     0.91180   0.50000   0.36439   0.00000  Uiso   1.00
C304   C     0.93487   0.50000   0.29865   0.00000  Uiso   1.00
C305   C     0.97004   0.50000   0.31143   0.00000  Uiso   1.00
C306   C     0.98137   0.50000   0.39042   0.00000  Uiso   1.00
C307   C     0.95877   0.50000   0.45684   0.00000  Uiso   1.00
H308   H     0.88362   0.50000   0.34963   0.00000  Uiso   1.00
H309   H     0.96926   0.50000   0.52016   0.00000  Uiso   1.00
C310   C     0.89704   0.50000   0.51777   0.00000  Uiso   1.00
C311   C     0.90794   0.50000   0.59865   0.00000  Uiso   1.00
C312   C     0.88493   0.50000   0.66400   0.00000  Uiso   1.00
C313   C     0.84946   0.50000   0.65369   0.00000  Uiso   1.00
C314   C     0.83794   0.50000   0.57384   0.00000  Uiso   1.00
C315   C     0.86105   0.50000   0.50791   0.00000  Uiso   1.00
H316   H     0.93614   0.50000   0.61324   0.00000  Uiso   1.00
H317   H     0.89497   0.50000   0.72773   0.00000  Uiso   1.00
H318   H     0.80962   0.50000   0.56059   0.00000  Uiso   1.00
H319   H     0.84960   0.50000   0.44552   0.00000  Uiso   1.00
C320   C     0.79357   0.50000   0.72781   0.00000  Uiso   1.00
N321   N     0.82704   0.50000   0.72462   0.00000  Uiso   1.00
C322   C     0.78538   0.50000   0.88234   0.00000  Uiso   1.00
C323   C     0.76402   0.50000   0.95110   0.00000  Uiso   1.00
H324   H     0.77568   0.50000   0.01328   0.00000  Uiso   1.00
H325   H     0.81398   0.50000   0.89159   0.00000  Uiso   1.00
C326   C     0.72813   0.00000   0.30431   0.00000  Uiso   1.00
C327   C     0.57730   0.00000   0.94597   0.00000  Uiso   1.00
C328   C     0.58820   0.00000   0.86439   0.00000  Uiso   1.00
C329   C     0.56513   0.00000   0.79865   0.00000  Uiso   1.00
C330   C     0.52996   0.00000   0.81143   0.00000  Uiso   1.00
C331   C     0.51863   0.00000   0.89042   0.00000  Uiso   1.00
C332   C     0.54123   0.00000   0.95684   0.00000  Uiso   1.00
H333   H     0.61638   0.00000   0.84963   0.00000  Uiso   1.00
H334   H     0.53074   0.00000   0.02016   0.00000  Uiso   1.00
C335   C     0.60296   0.00000   0.01777   0.00000  Uiso   1.00
C336   C     0.59206   0.00000   0.09865   0.00000  Uiso   1.00
C337   C     0.61507   0.00000   0.16400   0.00000  Uiso   1.00
C338   C     0.65054   0.00000   0.15369   0.00000  Uiso   1.00
C339   C     0.66206   0.00000   0.07384   0.00000  Uiso   1.00
C340   C     0.63895   0.00000   0.00791   0.00000  Uiso   1.00
H341   H     0.56386   0.00000   0.11324   0.00000  Uiso   1.00
H342   H     0.60503   0.00000   0.22773   0.00000  Uiso   1.00
H343   H     0.69038   0.00000   0.06059   0.00000  Uiso   1.00
H344   H     0.65040   0.00000   0.94552   0.00000  Uiso   1.00
C345   C     0.70643   0.00000   0.22781   0.00000  Uiso   1.00
N346   N     0.67296   0.00000   0.22462   0.00000  Uiso   1.00
C347   C     0.71462   0.00000   0.38234   0.00000  Uiso   1.00
C348   C     0.73598   0.00000   0.45110   0.00000  Uiso   1.00
H349   H     0.72432   0.00000   0.51328   0.00000  Uiso   1.00
H350   H     0.68602   0.00000   0.39159   0.00000  Uiso   1.00
C351   C     0.77187   0.00000   0.44569   0.00000  Uiso   1.00
C352   C     0.92270   0.00000   0.80403   0.00000  Uiso   1.00
C353   C     0.91180   0.00000   0.88561   0.00000  Uiso   1.00
C354   C     0.93487   0.00000   0.95135   0.00000  Uiso   1.00
C355   C     0.97004   0.00000   0.93857   0.00000  Uiso   1.00
C356   C     0.98137   0.00000   0.85958   0.00000  Uiso   1.00
C357   C     0.95877   0.00000   0.79316   0.00000  Uiso   1.00
H358   H     0.88362   0.00000   0.90037   0.00000  Uiso   1.00
H359   H     0.96926   0.00000   0.72984   0.00000  Uiso   1.00
C360   C     0.89704   0.00000   0.73223   0.00000  Uiso   1.00
C361   C     0.90794   0.00000   0.65135   0.00000  Uiso   1.00
C362   C     0.88493   0.00000   0.58600   0.00000  Uiso   1.00
C363   C     0.84946   0.00000   0.59631   0.00000  Uiso   1.00
C364   C     0.83794   0.00000   0.67616   0.00000  Uiso   1.00
C365   C     0.86105   0.00000   0.74209   0.00000  Uiso   1.00
H366   H     0.93614   0.00000   0.63676   0.00000  Uiso   1.00
H367   H     0.89497   0.00000   0.52227   0.00000  Uiso   1.00
H368   H     0.80962   0.00000   0.68941   0.00000  Uiso   1.00
H369   H     0.84960   0.00000   0.80448   0.00000  Uiso   1.00
C370   C     0.79357   0.00000   0.52219   0.00000  Uiso   1.00
N371   N     0.82704   0.00000   0.52538   0.00000  Uiso   1.00
C372   C     0.78538   0.00000   0.36766   0.00000  Uiso   1.00
C373   C     0.76402   0.00000   0.29890   0.00000  Uiso   1.00
H374   H     0.77568   0.00000   0.23672   0.00000  Uiso   1.00
H375   H     0.81398   0.00000   0.35841   0.00000  Uiso   1.00
C376   C     0.72813   0.50000   0.94569   0.00000  Uiso   1.00
C377   C     0.57730   0.50000   0.30403   0.00000  Uiso   1.00
C378   C     0.58820   0.50000   0.38561   0.00000  Uiso   1.00
C379   C     0.56513   0.50000   0.45135   0.00000  Uiso   1.00
C380   C     0.52996   0.50000   0.43857   0.00000  Uiso   1.00
C381   C     0.51863   0.50000   0.35958   0.00000  Uiso   1.00
C382   C     0.54123   0.50000   0.29316   0.00000  Uiso   1.00
H383   H     0.61638   0.50000   0.40037   0.00000  Uiso   1.00
H384   H     0.53074   0.50000   0.22984   0.00000  Uiso   1.00
C385   C     0.60296   0.50000   0.23223   0.00000  Uiso   1.00
C386   C     0.59206   0.50000   0.15135   0.00000  Uiso   1.00
C387   C     0.61507   0.50000   0.08600   0.00000  Uiso   1.00
C388   C     0.65054   0.50000   0.09631   0.00000  Uiso   1.00
C389   C     0.66206   0.50000   0.17616   0.00000  Uiso   1.00
C390   C     0.63895   0.50000   0.24209   0.00000  Uiso   1.00
H391   H     0.56386   0.50000   0.13676   0.00000  Uiso   1.00
H392   H     0.60503   0.50000   0.02227   0.00000  Uiso   1.00
H393   H     0.69038   0.50000   0.18941   0.00000  Uiso   1.00
H394   H     0.65040   0.50000   0.30448   0.00000  Uiso   1.00
C395   C     0.70643   0.50000   0.02219   0.00000  Uiso   1.00
N396   N     0.67296   0.50000   0.02538   0.00000  Uiso   1.00
C397   C     0.71462   0.50000   0.86766   0.00000  Uiso   1.00
C398   C     0.73598   0.50000   0.79890   0.00000  Uiso   1.00
H399   H     0.72432   0.50000   0.73672   0.00000  Uiso   1.00
H400   H     0.68602   0.50000   0.85841   0.00000  Uiso   1.00
C401   C     0.00000   0.50000   0.25000   0.00000  Uiso   1.00
C402   C     0.50000   0.00000   0.75000   0.00000  Uiso   1.00
C403   C     0.50000   0.50000   0.50000   0.00000  Uiso   1.00
C404   C     0.00000   0.00000   0.00000   0.00000  Uiso   1.00
H405   H     0.00000   0.57521   0.26504   0.00000  Uiso   1.00
H406   H     0.00000   0.71921   0.83314   0.00000  Uiso   1.00
H407   H     0.50000   0.07521   0.76504   0.00000  Uiso   1.00
H408   H     0.50000   0.21921   0.33314   0.00000  Uiso   1.00
H409   H     0.50000   0.92479   0.76504   0.00000  Uiso   1.00
H410   H     0.50000   0.78079   0.33314   0.00000  Uiso   1.00
H411   H     0.00000   0.42479   0.26504   0.00000  Uiso   1.00
H412   H     0.00000   0.28079   0.83314   0.00000  Uiso   1.00
H413   H     0.42479   0.50000   0.51504   0.00000  Uiso   1.00
H414   H     0.28079   0.50000   0.08314   0.00000  Uiso   1.00
H415   H     0.07521   0.00000   1.01504   0.00000  Uiso   1.00
H416   H     0.21921   0.00000   0.58314   0.00000  Uiso   1.00
H417   H     0.50000   0.57521   0.48496   0.00000  Uiso   1.00
H418   H     0.50000   0.71921   0.91686   0.00000  Uiso   1.00
H419   H     0.00000   0.07521  -0.01504   0.00000  Uiso   1.00
H420   H     0.00000   0.21921   0.41686   0.00000  Uiso   1.00
H421   H     0.00000   0.92479  -0.01504   0.00000  Uiso   1.00
H422   H     0.00000   0.78079   0.41686   0.00000  Uiso   1.00
H423   H     0.50000   0.42479   0.48496   0.00000  Uiso   1.00
H424   H     0.50000   0.28079   0.91686   0.00000  Uiso   1.00
H425   H     0.07521   0.50000   0.23496   0.00000  Uiso   1.00
H426   H     0.21921   0.50000   0.66686   0.00000  Uiso   1.00
H427   H     0.42479   0.00000   0.73496   0.00000  Uiso   1.00
H428   H     0.28079   0.00000   0.16686   0.00000  Uiso   1.00
H429   H     0.92479   0.50000   0.23496   0.00000  Uiso   1.00
H430   H     0.78079   0.50000   0.66686   0.00000  Uiso   1.00
H431   H     0.57521   0.00000   0.73496   0.00000  Uiso   1.00
H432   H     0.71921   0.00000   0.16686   0.00000  Uiso   1.00
H433   H     0.92479   0.00000   1.01504   0.00000  Uiso   1.00
H434   H     0.78079   0.00000   0.58314   0.00000  Uiso   1.00
H435   H     0.57521   0.50000   0.51504   0.00000  Uiso   1.00
H436   H     0.71921   0.50000   0.08314   0.00000  Uiso   1.00
loop_
_geom_bond_atom_site_label_1
_geom_bond_atom_site_label_2
_geom_bond_distance
_geom_bond_site_symmetry_2
_ccdc_geom_bond_type
C1     C20     1.543   .     S
C1     C22     1.413   .     S
C1     C223    1.420   .     D
C2     C3      1.434   .     S
C2     C7      1.436   .     D
C2     C10     1.574   1_554 S
C3     C4      1.430   .     D
C3     H8      1.140   .     S
C4     C5      1.405   .     S
C4     H405    1.140   .     S
C5     C6      1.398   .     D
C5     C401    1.569   .     S
C6     C7      1.427   .     S
C6     C81     1.471   .     S
C7     H9      1.140   1_554 S
H9     C7      1.140   1_556 S
C10    C11     1.423   .     S
C10    C15     1.431   .     D
C10    C2      1.574   1_556 S
C11    C12     1.424   .     D
C11    H16     1.140   .     S
C12    C13     1.411   .     S
C12    H17     1.140   .     S
C13    C14     1.414   .     D
C13    N21     1.483   .     S
C14    C15     1.434   .     S
C14    H18     1.140   .     S
C15    H19     1.140   1_556 S
H19    C15     1.140   1_554 S
C20    N21     1.323   .     D
C20    H406    1.140   .     S
C22    C23     1.429   .     D
C22    H25     1.140   .     S
C23    H24     1.140   .     S
C23    C201    1.420   .     S
C26    C45     1.543   .     S
C26    C47     1.413   .     D
C26    C248    1.420   .     S
C27    C28     1.434   .     D
C27    C32     1.436   .     S
C27    C35     1.574   .     S
C28    C29     1.430   .     S
C28    H33     1.140   .     S
C29    C30     1.405   .     D
C29    H407    1.140   .     S
C30    C31     1.398   .     S
C30    C402    1.569   .     S
C31    C32     1.427   .     D
C31    C56     1.471   1_545 S
C32    H34     1.140   .     S
C35    C36     1.423   .     D
C35    C40     1.431   .     S
C36    C37     1.424   .     S
C36    H41     1.140   .     S
C37    C38     1.411   .     D
C37    H42     1.140   .     S
C38    C39     1.414   .     S
C38    N46     1.483   .     S
C39    C40     1.434   .     D
C39    H43     1.140   .     S
C40    H44     1.140   .     S
C45    N46     1.323   .     D
C45    H408    1.140   .     S
C47    C48     1.429   .     S
C47    H50     1.140   .     S
C48    C226    1.420   .     D
C48    H49     1.140   1_554 S
H49    C48     1.140   1_556 S
C51    C70     1.543   .     S
C51    C72     1.413   .     D
C51    C173    1.420   .     S
C52    C53     1.434   .     S
C52    C57     1.436   .     D
C52    C60     1.574   .     S
C53    C54     1.430   .     D
C53    H58     1.140   .     S
C54    C55     1.405   .     S
C54    H409    1.140   .     S
C55    C56     1.398   .     D
C55    C402    1.569   1_565 S
C56    C57     1.427   .     S
C56    C31     1.471   1_565 S
C57    H59     1.140   .     S
C60    C61     1.423   .     D
C60    C65     1.431   .     S
C61    C62     1.424   .     S
C61    H66     1.140   .     S
C62    C63     1.411   .     D
C62    H67     1.140   .     S
C63    C64     1.414   .     S
C63    N71     1.483   .     S
C64    C65     1.434   .     D
C64    H68     1.140   .     S
C65    H69     1.140   .     S
C70    N71     1.323   .     D
C70    H410    1.140   .     S
C72    C73     1.429   .     S
C72    H75     1.140   .     S
C73    C151    1.420   .     D
C73    H74     1.140   1_554 S
H74    C73     1.140   1_556 S
C76    C95     1.543   .     S
C76    C97     1.413   .     D
C76    C198    1.420   .     S
C77    C78     1.434   .     S
C77    C82     1.436   .     D
C77    C85     1.574   1_554 S
C78    C79     1.430   .     D
C78    H83     1.140   .     S
C79    C80     1.405   .     S
C79    H411    1.140   .     S
C80    C81     1.398   .     D
C80    C401    1.569   .     S
C81    C82     1.427   .     S
C82    H84     1.140   1_554 S
H84    C82     1.140   1_556 S
C85    C86     1.423   .     D
C85    C90     1.431   .     S
C85    C77     1.574   1_556 S
C86    C87     1.424   .     S
C86    H91     1.140   .     S
C87    C88     1.411   .     D
C87    H92     1.140   .     S
C88    C89     1.414   .     S
C88    N96     1.483   .     S
C89    C90     1.434   .     D
C89    H93     1.140   .     S
C90    H94     1.140   1_556 S
H94    C90     1.140   1_554 S
C95    N96     1.323   .     D
C95    H412    1.140   .     S
C97    C98     1.429   .     S
C97    H100    1.140   .     S
C98    H99     1.140   .     S
C98    C176    1.420   .     D
C101   C122    1.413   .     D
C101   C273    1.420   .     S
C101   C120    1.543   1_556 S
C102   C103    1.434   .     S
C102   C107    1.436   .     D
C102   C110    1.574   .     S
C103   C104    1.430   .     D
C103   H108    1.140   .     S
C104   C105    1.405   .     S
C104   H413    1.140   .     S
C105   C106    1.398   .     D
C105   C403    1.569   .     S
C106   C107    1.427   .     S
C106   C381    1.471   .     S
C107   H109    1.140   .     S
C110   C111    1.423   .     D
C110   C115    1.431   .     S
C111   C112    1.424   .     S
C111   H116    1.140   .     S
C112   C113    1.411   .     D
C112   H117    1.140   .     S
C113   C114    1.414   .     S
C113   N121    1.483   .     S
C114   C115    1.434   .     D
C114   H118    1.140   .     S
C115   H119    1.140   .     S
C120   N121    1.323   .     D
C120   H414    1.140   .     S
C120   C101    1.543   1_554 S
C122   C123    1.429   .     S
C122   H125    1.140   .     S
C123   H124    1.140   .     S
C123   C251    1.420   .     D
C126   C145    1.543   .     S
C126   C147    1.413   .     D
C126   C298    1.420   .     S
C127   C128    1.434   .     S
C127   C132    1.436   .     D
C127   C135    1.574   .     S
C128   C129    1.430   .     D
C128   H133    1.140   .     S
C129   C130    1.405   .     S
C129   H415    1.140   .     S
C130   C131    1.398   .     D
C130   C404    1.569   1_556 S
C131   C132    1.427   .     S
C131   C356    1.471   1_455 S
C132   H134    1.140   .     S
C135   C136    1.423   .     D
C135   C140    1.431   .     S
C136   C137    1.424   .     S
C136   H141    1.140   .     S
C137   C138    1.411   .     D
C137   H142    1.140   .     S
C138   C139    1.414   .     S
C138   N146    1.483   .     S
C139   C140    1.434   .     D
C139   H143    1.140   .     S
C140   H144    1.140   .     S
C145   N146    1.323   .     D
C145   H416    1.140   .     S
C147   C148    1.429   .     S
C147   H150    1.140   .     S
C148   H149    1.140   .     S
C148   C276    1.420   .     D
C151   C172    1.413   .     S
C151   C170    1.543   1_554 S
C152   C153    1.434   .     S
C152   C157    1.436   .     D
C152   C160    1.574   .     S
C153   C154    1.430   .     D
C153   H158    1.140   .     S
C154   C155    1.405   .     S
C154   H417    1.140   .     S
C155   C156    1.398   .     D
C155   C403    1.569   .     S
C156   C157    1.427   .     S
C156   C231    1.471   .     S
C157   H159    1.140   .     S
C160   C161    1.423   .     D
C160   C165    1.431   .     S
C161   C162    1.424   .     S
C161   H166    1.140   .     S
C162   C163    1.411   .     D
C162   H167    1.140   .     S
C163   C164    1.414   .     S
C163   N171    1.483   .     S
C164   C165    1.434   .     D
C164   H168    1.140   .     S
C165   H169    1.140   .     S
C170   N171    1.323   .     D
C170   H418    1.140   .     S
C170   C151    1.543   1_556 S
C172   C173    1.429   .     D
C172   H175    1.140   .     S
C173   H174    1.140   .     S
C176   C195    1.543   .     S
C176   C197    1.413   .     S
C177   C178    1.434   .     S
C177   C182    1.436   .     D
C177   C185    1.574   .     S
C178   C179    1.430   .     D
C178   H183    1.140   .     S
C179   C180    1.405   .     S
C179   H419    1.140   .     S
C180   C181    1.398   .     D
C180   C404    1.569   .     S
C181   C182    1.427   .     S
C181   C206    1.471   1_545 S
C182   H184    1.140   .     S
C185   C186    1.423   .     D
C185   C190    1.431   .     S
C186   C187    1.424   .     S
C186   H191    1.140   .     S
C187   C188    1.411   .     D
C187   H192    1.140   .     S
C188   C189    1.414   .     S
C188   N196    1.483   .     S
C189   C190    1.434   .     D
C189   H193    1.140   .     S
C190   H194    1.140   .     S
C195   N196    1.323   .     D
C195   H420    1.140   .     S
C197   C198    1.429   .     D
C197   H200    1.140   .     S
C198   H199    1.140   .     S
C201   C220    1.543   .     S
C201   C222    1.413   .     D
C202   C203    1.434   .     S
C202   C207    1.436   .     D
C202   C210    1.574   .     S
C203   C204    1.430   .     D
C203   H208    1.140   .     S
C204   C205    1.405   .     S
C204   H421    1.140   .     S
C205   C206    1.398   .     D
C205   C404    1.569   1_565 S
C206   C207    1.427   .     S
C206   C181    1.471   1_565 S
C207   H209    1.140   .     S
C210   C211    1.423   .     S
C210   C215    1.431   .     D
C211   C212    1.424   .     D
C211   H216    1.140   .     S
C212   C213    1.411   .     S
C212   H217    1.140   .     S
C213   C214    1.414   .     D
C213   N221    1.483   .     S
C214   C215    1.434   .     S
C214   H218    1.140   .     S
C215   H219    1.140   .     S
C220   N221    1.323   .     D
C220   H422    1.140   .     S
C222   C223    1.429   .     S
C222   H225    1.140   .     S
C223   H224    1.140   .     S
C226   C247    1.413   .     S
C226   C245    1.543   1_554 S
C227   C228    1.434   .     D
C227   C232    1.436   .     S
C227   C235    1.574   .     S
C228   C229    1.430   .     S
C228   H233    1.140   .     S
C229   C230    1.405   .     D
C229   H423    1.140   .     S
C230   C231    1.398   .     S
C230   C403    1.569   .     S
C231   C232    1.427   .     D
C232   H234    1.140   .     S
C235   C236    1.423   .     D
C235   C240    1.431   .     S
C236   C237    1.424   .     S
C236   H241    1.140   .     S
C237   C238    1.411   .     D
C237   H242    1.140   .     S
C238   C239    1.414   .     S
C238   N246    1.483   .     S
C239   C240    1.434   .     D
C239   H243    1.140   .     S
C240   H244    1.140   .     S
C245   N246    1.323   .     D
C245   H424    1.140   .     S
C245   C226    1.543   1_556 S
C247   C248    1.429   .     D
C247   H250    1.140   .     S
C248   H249    1.140   .     S
C251   C270    1.543   .     S
C251   C272    1.413   .     S
C252   C253    1.434   .     S
C252   C257    1.436   .     D
C252   C260    1.574   .     S
C253   C254    1.430   .     D
C253   H258    1.140   .     S
C254   C255    1.405   .     S
C254   H425    1.140   .     S
C255   C256    1.398   .     D
C255   C401    1.569   .     S
C256   C257    1.427   .     S
C256   C306    1.471   1_455 S
C257   H259    1.140   .     S
C260   C261    1.423   .     D
C260   C265    1.431   .     S
C261   C262    1.424   .     S
C261   H266    1.140   .     S
C262   C263    1.411   .     D
C262   H267    1.140   .     S
C263   C264    1.414   .     S
C263   N271    1.483   .     S
C264   C265    1.434   .     D
C264   H268    1.140   .     S
C265   H269    1.140   .     S
C270   N271    1.323   .     D
C270   H426    1.140   .     S
C272   C273    1.429   .     D
C272   H275    1.140   .     S
C273   H274    1.140   1_556 S
H274   C273    1.140   1_554 S
C276   C295    1.543   .     S
C276   C297    1.413   .     S
C277   C278    1.434   .     S
C277   C282    1.436   .     D
C277   C285    1.574   1_556 S
C278   C279    1.430   .     D
C278   H283    1.140   .     S
C279   C280    1.405   .     S
C279   H427    1.140   .     S
C280   C281    1.398   .     D
C280   C402    1.569   .     S
C281   C282    1.427   .     S
C281   C331    1.471   .     S
C282   H284    1.140   1_556 S
H284   C282    1.140   1_554 S
C285   C286    1.423   .     D
C285   C290    1.431   .     S
C285   C277    1.574   1_554 S
C286   C287    1.424   .     S
C286   H291    1.140   .     S
C287   C288    1.411   .     D
C287   H292    1.140   .     S
C288   C289    1.414   .     S
C288   N296    1.483   .     S
C289   C290    1.434   .     D
C289   H293    1.140   .     S
C290   H294    1.140   1_554 S
H294   C290    1.140   1_556 S
C295   N296    1.323   .     D
C295   H428    1.140   .     S
C297   C298    1.429   .     D
C297   H300    1.140   .     S
C298   H299    1.140   .     S
C301   C320    1.543   .     S
C301   C322    1.413   .     D
C301   C398    1.420   .     S
C302   C303    1.434   .     D
C302   C307    1.436   .     S
C302   C310    1.574   .     S
C303   C304    1.430   .     S
C303   H308    1.140   .     S
C304   C305    1.405   .     D
C304   H429    1.140   .     S
C305   C306    1.398   .     S
C305   C401    1.569   1_655 S
C306   C307    1.427   .     D
C306   C256    1.471   1_655 S
C307   H309    1.140   .     S
C310   C311    1.423   .     D
C310   C315    1.431   .     S
C311   C312    1.424   .     S
C311   H316    1.140   .     S
C312   C313    1.411   .     D
C312   H317    1.140   .     S
C313   C314    1.414   .     S
C313   N321    1.483   .     S
C314   C315    1.434   .     D
C314   H318    1.140   .     S
C315   H319    1.140   .     S
C320   N321    1.323   .     D
C320   H430    1.140   .     S
C322   C323    1.429   .     S
C322   H325    1.140   .     S
C323   C376    1.420   .     D
C323   H324    1.140   1_556 S
H324   C323    1.140   1_554 S
C326   C345    1.543   .     S
C326   C347    1.413   .     S
C326   C373    1.420   .     D
C327   C328    1.434   .     S
C327   C332    1.436   .     D
C327   C335    1.574   1_556 S
C328   C329    1.430   .     D
C328   H333    1.140   .     S
C329   C330    1.405   .     S
C329   H431    1.140   .     S
C330   C331    1.398   .     D
C330   C402    1.569   .     S
C331   C332    1.427   .     S
C332   H334    1.140   1_556 S
H334   C332    1.140   1_554 S
C335   C336    1.423   .     S
C335   C340    1.431   .     D
C335   C327    1.574   1_554 S
C336   C337    1.424   .     D
C336   H341    1.140   .     S
C337   C338    1.411   .     S
C337   H342    1.140   .     S
C338   C339    1.414   .     D
C338   N346    1.483   .     S
C339   C340    1.434   .     S
C339   H343    1.140   .     S
C340   H344    1.140   1_554 S
H344   C340    1.140   1_556 S
C345   N346    1.323   .     D
C345   H432    1.140   .     S
C347   C348    1.429   .     D
C347   H350    1.140   .     S
C348   H349    1.140   .     S
C348   C351    1.420   .     S
C351   C370    1.543   .     S
C351   C372    1.413   .     D
C352   C353    1.434   .     S
C352   C357    1.436   .     D
C352   C360    1.574   .     S
C353   C354    1.430   .     D
C353   H358    1.140   .     S
C354   C355    1.405   .     S
C354   H433    1.140   .     S
C355   C356    1.398   .     D
C355   C404    1.569   1_656 S
C356   C357    1.427   .     S
C356   C131    1.471   1_655 S
C357   H359    1.140   .     S
C360   C361    1.423   .     S
C360   C365    1.431   .     D
C361   C362    1.424   .     D
C361   H366    1.140   .     S
C362   C363    1.411   .     S
C362   H367    1.140   .     S
C363   C364    1.414   .     D
C363   N371    1.483   .     S
C364   C365    1.434   .     S
C364   H368    1.140   .     S
C365   H369    1.140   .     S
C370   N371    1.323   .     D
C370   H434    1.140   .     S
C372   C373    1.429   .     S
C372   H375    1.140   .     S
C373   H374    1.140   .     S
C376   C397    1.413   .     S
C376   C395    1.543   1_556 S
C377   C378    1.434   .     D
C377   C382    1.436   .     S
C377   C385    1.574   .     S
C378   C379    1.430   .     S
C378   H383    1.140   .     S
C379   C380    1.405   .     D
C379   H435    1.140   .     S
C380   C381    1.398   .     S
C380   C403    1.569   .     S
C381   C382    1.427   .     D
C382   H384    1.140   .     S
C385   C386    1.423   .     D
C385   C390    1.431   .     S
C386   C387    1.424   .     S
C386   H391    1.140   .     S
C387   C388    1.411   .     D
C387   H392    1.140   .     S
C388   C389    1.414   .     S
C388   N396    1.483   .     S
C389   C390    1.434   .     D
C389   H393    1.140   .     S
C390   H394    1.140   .     S
C395   N396    1.323   .     D
C395   H436    1.140   .     S
C395   C376    1.543   1_554 S
C397   C398    1.429   .     D
C397   H400    1.140   .     S
C398   H399    1.140   .     S
C401   C305    1.569   1_455 S
C402   C55     1.569   1_545 S
C404   C130    1.569   1_554 S
C404   C205    1.569   1_545 S
C404   C355    1.569   1_454 S
