data_1156
_audit_creation_date              2023-09-08
_audit_creation_method            'Materials Studio'
_symmetry_space_group_name_H-M    'P1'
_symmetry_Int_Tables_number       1
_symmetry_cell_setting            triclinic
loop_
_symmetry_equiv_pos_as_xyz
  x,y,z
_cell_length_a                    35.5540
_cell_length_b                    35.5540
_cell_length_c                    11.3510
_cell_angle_alpha                 90.0000
_cell_angle_beta                  90.0000
_cell_angle_gamma                 90.0000
loop_
_atom_site_label
_atom_site_type_symbol
_atom_site_fract_x
_atom_site_fract_y
_atom_site_fract_z
_atom_site_U_iso_or_equiv
_atom_site_adp_type
_atom_site_occupancy
C1     C     0.50000   0.73197   0.23150   0.00000  Uiso   1.00
C2     C     0.50000   0.58224   0.74505   0.00000  Uiso   1.00
C3     C     0.50000   0.59323   0.86337   0.00000  Uiso   1.00
C4     C     0.50000   0.56788   0.95544   0.00000  Uiso   1.00
C5     C     0.50000   0.53177   0.91871   0.00000  Uiso   1.00
C6     C     0.50000   0.48017   0.80820   0.00000  Uiso   1.00
C7     C     0.50000   0.54444   0.72123   0.00000  Uiso   1.00
H8     H     0.50000   0.62437   0.88729   0.00000  Uiso   1.00
H9     H     0.50000   0.53420   0.62606   0.00000  Uiso   1.00
C10    C     0.50000   0.60892   0.64545   0.00000  Uiso   1.00
C11    C     0.50000   0.59637   0.53200   0.00000  Uiso   1.00
C12    C     0.50000   0.61974   0.43984   0.00000  Uiso   1.00
C13    C     0.50000   0.65690   0.45396   0.00000  Uiso   1.00
C14    C     0.50000   0.67061   0.56495   0.00000  Uiso   1.00
C15    C     0.50000   0.64696   0.65924   0.00000  Uiso   1.00
H16    H     0.50000   0.56488   0.51303   0.00000  Uiso   1.00
H17    H     0.50000   0.60797   0.34642   0.00000  Uiso   1.00
H18    H     0.50000   0.70229   0.58040   0.00000  Uiso   1.00
H19    H     0.50000   0.65969   0.75141   0.00000  Uiso   1.00
C20    C     0.50000   0.71371   0.34428   0.00000  Uiso   1.00
N21    N     0.50000   0.67876   0.35276   0.00000  Uiso   1.00
H22    H     0.50000   0.57844   0.05027   0.00000  Uiso   1.00
C23    C     0.50000   0.78761   0.12048   0.00000  Uiso   1.00
C24    C     0.50000   0.76977   0.22539   0.00000  Uiso   1.00
H25    H     0.50000   0.81966   0.11705   0.00000  Uiso   1.00
H26    H     0.50000   0.78721   0.30966   0.00000  Uiso   1.00
C27    C     0.00000   0.23197   0.73150   0.00000  Uiso   1.00
C28    C     0.00000   0.08224   0.24505   0.00000  Uiso   1.00
C29    C     0.00000   0.09323   0.36337   0.00000  Uiso   1.00
C30    C     0.00000   0.06788   0.45544   0.00000  Uiso   1.00
C31    C     0.00000   0.03177   0.41871   0.00000  Uiso   1.00
C32    C     0.00000   0.98017   0.30820   0.00000  Uiso   1.00
C33    C     0.00000   0.04444   0.22123   0.00000  Uiso   1.00
H34    H     0.00000   0.12437   0.38729   0.00000  Uiso   1.00
H35    H     0.00000   0.03420   0.12606   0.00000  Uiso   1.00
C36    C     0.00000   0.10892   0.14545   0.00000  Uiso   1.00
C37    C     0.00000   0.09637   0.03200   0.00000  Uiso   1.00
C38    C     0.00000   0.11974   0.93984   0.00000  Uiso   1.00
C39    C     0.00000   0.15690   0.95396   0.00000  Uiso   1.00
C40    C     0.00000   0.17061   0.06495   0.00000  Uiso   1.00
C41    C     0.00000   0.14696   0.15924   0.00000  Uiso   1.00
H42    H     0.00000   0.06488   0.01303   0.00000  Uiso   1.00
H43    H     0.00000   0.10797   0.84642   0.00000  Uiso   1.00
H44    H     0.00000   0.20229   0.08040   0.00000  Uiso   1.00
H45    H     0.00000   0.15969   0.25141   0.00000  Uiso   1.00
C46    C     0.00000   0.21371   0.84428   0.00000  Uiso   1.00
N47    N     0.00000   0.17876   0.85276   0.00000  Uiso   1.00
H48    H     0.00000   0.07844   0.55027   0.00000  Uiso   1.00
C49    C     0.00000   0.28761   0.62048   0.00000  Uiso   1.00
C50    C     0.00000   0.26977   0.72539   0.00000  Uiso   1.00
H51    H     0.00000   0.31966   0.61705   0.00000  Uiso   1.00
H52    H     0.00000   0.28721   0.80966   0.00000  Uiso   1.00
C53    C     0.00000   0.76803   0.73150   0.00000  Uiso   1.00
C54    C     0.00000   0.91776   0.24505   0.00000  Uiso   1.00
C55    C     0.00000   0.90677   0.36337   0.00000  Uiso   1.00
C56    C     0.00000   0.93212   0.45544   0.00000  Uiso   1.00
C57    C     0.00000   0.96823   0.41871   0.00000  Uiso   1.00
C58    C     0.00000   0.01983   0.30820   0.00000  Uiso   1.00
C59    C     0.00000   0.95556   0.22123   0.00000  Uiso   1.00
H60    H     0.00000   0.87563   0.38729   0.00000  Uiso   1.00
H61    H     0.00000   0.96580   0.12606   0.00000  Uiso   1.00
C62    C     0.00000   0.89108   0.14545   0.00000  Uiso   1.00
C63    C     0.00000   0.90363   0.03200   0.00000  Uiso   1.00
C64    C     0.00000   0.88026   0.93984   0.00000  Uiso   1.00
C65    C     0.00000   0.84310   0.95396   0.00000  Uiso   1.00
C66    C     0.00000   0.82939   0.06495   0.00000  Uiso   1.00
C67    C     0.00000   0.85304   0.15924   0.00000  Uiso   1.00
H68    H     0.00000   0.93512   0.01303   0.00000  Uiso   1.00
H69    H     0.00000   0.89203   0.84642   0.00000  Uiso   1.00
H70    H     0.00000   0.79771   0.08040   0.00000  Uiso   1.00
H71    H     0.00000   0.84031   0.25141   0.00000  Uiso   1.00
C72    C     0.00000   0.78629   0.84428   0.00000  Uiso   1.00
N73    N     0.00000   0.82124   0.85276   0.00000  Uiso   1.00
H74    H     0.00000   0.92156   0.55027   0.00000  Uiso   1.00
C75    C     0.00000   0.71239   0.62048   0.00000  Uiso   1.00
C76    C     0.00000   0.73023   0.72539   0.00000  Uiso   1.00
H77    H     0.00000   0.68034   0.61705   0.00000  Uiso   1.00
H78    H     0.00000   0.71279   0.80966   0.00000  Uiso   1.00
C79    C     0.50000   0.26803   0.23150   0.00000  Uiso   1.00
C80    C     0.50000   0.41776   0.74505   0.00000  Uiso   1.00
C81    C     0.50000   0.40677   0.86337   0.00000  Uiso   1.00
C82    C     0.50000   0.43212   0.95544   0.00000  Uiso   1.00
C83    C     0.50000   0.46823   0.91871   0.00000  Uiso   1.00
C84    C     0.50000   0.51983   0.80820   0.00000  Uiso   1.00
C85    C     0.50000   0.45556   0.72123   0.00000  Uiso   1.00
H86    H     0.50000   0.37563   0.88729   0.00000  Uiso   1.00
H87    H     0.50000   0.46580   0.62606   0.00000  Uiso   1.00
C88    C     0.50000   0.39108   0.64545   0.00000  Uiso   1.00
C89    C     0.50000   0.40363   0.53200   0.00000  Uiso   1.00
C90    C     0.50000   0.38026   0.43984   0.00000  Uiso   1.00
C91    C     0.50000   0.34310   0.45396   0.00000  Uiso   1.00
C92    C     0.50000   0.32939   0.56495   0.00000  Uiso   1.00
C93    C     0.50000   0.35304   0.65924   0.00000  Uiso   1.00
H94    H     0.50000   0.43512   0.51303   0.00000  Uiso   1.00
H95    H     0.50000   0.39203   0.34642   0.00000  Uiso   1.00
H96    H     0.50000   0.29771   0.58040   0.00000  Uiso   1.00
H97    H     0.50000   0.34031   0.75141   0.00000  Uiso   1.00
C98    C     0.50000   0.28629   0.34428   0.00000  Uiso   1.00
N99    N     0.50000   0.32124   0.35276   0.00000  Uiso   1.00
H100   H     0.50000   0.42156   0.05027   0.00000  Uiso   1.00
C101   C     0.50000   0.21239   0.12048   0.00000  Uiso   1.00
C102   C     0.50000   0.23023   0.22539   0.00000  Uiso   1.00
H103   H     0.50000   0.18034   0.11705   0.00000  Uiso   1.00
H104   H     0.50000   0.21279   0.30966   0.00000  Uiso   1.00
C105   C     0.26803   0.00000   0.48150   0.00000  Uiso   1.00
C106   C     0.41776   0.00000   0.99505   0.00000  Uiso   1.00
C107   C     0.40677   0.00000   0.11337   0.00000  Uiso   1.00
C108   C     0.43212   0.00000   0.20544   0.00000  Uiso   1.00
C109   C     0.46823   0.00000   0.16871   0.00000  Uiso   1.00
C110   C     0.51983   0.00000   0.05820   0.00000  Uiso   1.00
C111   C     0.45556   0.00000   0.97123   0.00000  Uiso   1.00
H112   H     0.37563   0.00000   0.13729   0.00000  Uiso   1.00
H113   H     0.46580   0.00000   0.87606   0.00000  Uiso   1.00
C114   C     0.39108   0.00000   0.89545   0.00000  Uiso   1.00
C115   C     0.40363   0.00000   0.78200   0.00000  Uiso   1.00
C116   C     0.38026   0.00000   0.68984   0.00000  Uiso   1.00
C117   C     0.34310   0.00000   0.70396   0.00000  Uiso   1.00
C118   C     0.32939   0.00000   0.81495   0.00000  Uiso   1.00
C119   C     0.35304   0.00000   0.90924   0.00000  Uiso   1.00
H120   H     0.43512   0.00000   0.76303   0.00000  Uiso   1.00
H121   H     0.39203   0.00000   0.59642   0.00000  Uiso   1.00
H122   H     0.29771   0.00000   0.83040   0.00000  Uiso   1.00
H123   H     0.34031   0.00000   1.00141   0.00000  Uiso   1.00
C124   C     0.28629   0.00000   0.59428   0.00000  Uiso   1.00
N125   N     0.32124   0.00000   0.60276   0.00000  Uiso   1.00
H126   H     0.42156   0.00000   0.30027   0.00000  Uiso   1.00
C127   C     0.21239   0.00000   0.37048   0.00000  Uiso   1.00
C128   C     0.23023   0.00000   0.47539   0.00000  Uiso   1.00
H129   H     0.18034   0.00000   0.36705   0.00000  Uiso   1.00
H130   H     0.21279   0.00000   0.55966   0.00000  Uiso   1.00
C131   C     0.23197   0.50000   0.98150   0.00000  Uiso   1.00
C132   C     0.08224   0.50000   0.49505   0.00000  Uiso   1.00
C133   C     0.09323   0.50000   0.61337   0.00000  Uiso   1.00
C134   C     0.06788   0.50000   0.70544   0.00000  Uiso   1.00
C135   C     0.03177   0.50000   0.66871   0.00000  Uiso   1.00
C136   C     0.98017   0.50000   0.55820   0.00000  Uiso   1.00
C137   C     0.04444   0.50000   0.47123   0.00000  Uiso   1.00
H138   H     0.12437   0.50000   0.63729   0.00000  Uiso   1.00
H139   H     0.03420   0.50000   0.37606   0.00000  Uiso   1.00
C140   C     0.10892   0.50000   0.39545   0.00000  Uiso   1.00
C141   C     0.09637   0.50000   0.28200   0.00000  Uiso   1.00
C142   C     0.11974   0.50000   0.18984   0.00000  Uiso   1.00
C143   C     0.15690   0.50000   0.20396   0.00000  Uiso   1.00
C144   C     0.17061   0.50000   0.31495   0.00000  Uiso   1.00
C145   C     0.14696   0.50000   0.40924   0.00000  Uiso   1.00
H146   H     0.06488   0.50000   0.26303   0.00000  Uiso   1.00
H147   H     0.10797   0.50000   0.09642   0.00000  Uiso   1.00
H148   H     0.20229   0.50000   0.33040   0.00000  Uiso   1.00
H149   H     0.15969   0.50000   0.50141   0.00000  Uiso   1.00
C150   C     0.21371   0.50000   0.09428   0.00000  Uiso   1.00
N151   N     0.17876   0.50000   0.10276   0.00000  Uiso   1.00
H152   H     0.07844   0.50000   0.80027   0.00000  Uiso   1.00
C153   C     0.28761   0.50000   0.87048   0.00000  Uiso   1.00
C154   C     0.26977   0.50000   0.97539   0.00000  Uiso   1.00
H155   H     0.31966   0.50000   0.86705   0.00000  Uiso   1.00
H156   H     0.28721   0.50000   0.05966   0.00000  Uiso   1.00
C157   C     0.00000   0.73197   0.51850   0.00000  Uiso   1.00
C158   C     0.00000   0.58224   0.00495   0.00000  Uiso   1.00
C159   C     0.00000   0.59323   0.88663   0.00000  Uiso   1.00
C160   C     0.00000   0.56788   0.79456   0.00000  Uiso   1.00
C161   C     0.00000   0.53177   0.83129   0.00000  Uiso   1.00
C162   C     0.00000   0.48017   0.94180   0.00000  Uiso   1.00
C163   C     0.00000   0.54444   0.02877   0.00000  Uiso   1.00
H164   H     0.00000   0.62437   0.86271   0.00000  Uiso   1.00
H165   H     0.00000   0.53420   0.12394   0.00000  Uiso   1.00
C166   C     0.00000   0.60892   0.10455   0.00000  Uiso   1.00
C167   C     0.00000   0.59637   0.21800   0.00000  Uiso   1.00
C168   C     0.00000   0.61974   0.31016   0.00000  Uiso   1.00
C169   C     0.00000   0.65690   0.29604   0.00000  Uiso   1.00
C170   C     0.00000   0.67061   0.18505   0.00000  Uiso   1.00
C171   C     0.00000   0.64696   0.09076   0.00000  Uiso   1.00
H172   H     0.00000   0.56488   0.23697   0.00000  Uiso   1.00
H173   H     0.00000   0.60797   0.40358   0.00000  Uiso   1.00
H174   H     0.00000   0.70229   0.16960   0.00000  Uiso   1.00
H175   H     0.00000   0.65969  -0.00141   0.00000  Uiso   1.00
C176   C     0.00000   0.71371   0.40572   0.00000  Uiso   1.00
N177   N     0.00000   0.67876   0.39724   0.00000  Uiso   1.00
H178   H     0.00000   0.57844   0.69973   0.00000  Uiso   1.00
C179   C     0.00000   0.78761   0.62952   0.00000  Uiso   1.00
C180   C     0.00000   0.76977   0.52461   0.00000  Uiso   1.00
H181   H     0.00000   0.81966   0.63295   0.00000  Uiso   1.00
H182   H     0.00000   0.78721   0.44034   0.00000  Uiso   1.00
C183   C     0.50000   0.23197   0.01850   0.00000  Uiso   1.00
C184   C     0.50000   0.08224   0.50495   0.00000  Uiso   1.00
C185   C     0.50000   0.09323   0.38663   0.00000  Uiso   1.00
C186   C     0.50000   0.06788   0.29456   0.00000  Uiso   1.00
C187   C     0.50000   0.03177   0.33129   0.00000  Uiso   1.00
C188   C     0.50000   0.98017   0.44180   0.00000  Uiso   1.00
C189   C     0.50000   0.04444   0.52877   0.00000  Uiso   1.00
H190   H     0.50000   0.12437   0.36271   0.00000  Uiso   1.00
H191   H     0.50000   0.03420   0.62394   0.00000  Uiso   1.00
C192   C     0.50000   0.10892   0.60455   0.00000  Uiso   1.00
C193   C     0.50000   0.09637   0.71800   0.00000  Uiso   1.00
C194   C     0.50000   0.11974   0.81016   0.00000  Uiso   1.00
C195   C     0.50000   0.15690   0.79604   0.00000  Uiso   1.00
C196   C     0.50000   0.17061   0.68505   0.00000  Uiso   1.00
C197   C     0.50000   0.14696   0.59076   0.00000  Uiso   1.00
H198   H     0.50000   0.06488   0.73697   0.00000  Uiso   1.00
H199   H     0.50000   0.10797   0.90358   0.00000  Uiso   1.00
H200   H     0.50000   0.20229   0.66960   0.00000  Uiso   1.00
H201   H     0.50000   0.15969   0.49859   0.00000  Uiso   1.00
C202   C     0.50000   0.21371   0.90572   0.00000  Uiso   1.00
N203   N     0.50000   0.17876   0.89724   0.00000  Uiso   1.00
H204   H     0.50000   0.07844   0.19973   0.00000  Uiso   1.00
C205   C     0.50000   0.28761   0.12952   0.00000  Uiso   1.00
C206   C     0.50000   0.26977   0.02461   0.00000  Uiso   1.00
H207   H     0.50000   0.31966   0.13295   0.00000  Uiso   1.00
H208   H     0.50000   0.28721   0.94034   0.00000  Uiso   1.00
C209   C     0.50000   0.76803   0.01850   0.00000  Uiso   1.00
C210   C     0.50000   0.91776   0.50495   0.00000  Uiso   1.00
C211   C     0.50000   0.90677   0.38663   0.00000  Uiso   1.00
C212   C     0.50000   0.93212   0.29456   0.00000  Uiso   1.00
C213   C     0.50000   0.96823   0.33129   0.00000  Uiso   1.00
C214   C     0.50000   0.01983   0.44180   0.00000  Uiso   1.00
C215   C     0.50000   0.95556   0.52877   0.00000  Uiso   1.00
H216   H     0.50000   0.87563   0.36271   0.00000  Uiso   1.00
H217   H     0.50000   0.96580   0.62394   0.00000  Uiso   1.00
C218   C     0.50000   0.89108   0.60455   0.00000  Uiso   1.00
C219   C     0.50000   0.90363   0.71800   0.00000  Uiso   1.00
C220   C     0.50000   0.88026   0.81016   0.00000  Uiso   1.00
C221   C     0.50000   0.84310   0.79604   0.00000  Uiso   1.00
C222   C     0.50000   0.82939   0.68505   0.00000  Uiso   1.00
C223   C     0.50000   0.85304   0.59076   0.00000  Uiso   1.00
H224   H     0.50000   0.93512   0.73697   0.00000  Uiso   1.00
H225   H     0.50000   0.89203   0.90358   0.00000  Uiso   1.00
H226   H     0.50000   0.79771   0.66960   0.00000  Uiso   1.00
H227   H     0.50000   0.84031   0.49859   0.00000  Uiso   1.00
C228   C     0.50000   0.78629   0.90572   0.00000  Uiso   1.00
N229   N     0.50000   0.82124   0.89724   0.00000  Uiso   1.00
H230   H     0.50000   0.92156   0.19973   0.00000  Uiso   1.00
C231   C     0.50000   0.71239   0.12952   0.00000  Uiso   1.00
C232   C     0.50000   0.73023   0.02461   0.00000  Uiso   1.00
H233   H     0.50000   0.68034   0.13295   0.00000  Uiso   1.00
H234   H     0.50000   0.71279   0.94034   0.00000  Uiso   1.00
C235   C     0.00000   0.26803   0.51850   0.00000  Uiso   1.00
C236   C     0.00000   0.41776   0.00495   0.00000  Uiso   1.00
C237   C     0.00000   0.40677   0.88663   0.00000  Uiso   1.00
C238   C     0.00000   0.43212   0.79456   0.00000  Uiso   1.00
C239   C     0.00000   0.46823   0.83129   0.00000  Uiso   1.00
C240   C     0.00000   0.51983   0.94180   0.00000  Uiso   1.00
C241   C     0.00000   0.45556   0.02877   0.00000  Uiso   1.00
H242   H     0.00000   0.37563   0.86271   0.00000  Uiso   1.00
H243   H     0.00000   0.46580   0.12394   0.00000  Uiso   1.00
C244   C     0.00000   0.39108   0.10455   0.00000  Uiso   1.00
C245   C     0.00000   0.40363   0.21800   0.00000  Uiso   1.00
C246   C     0.00000   0.38026   0.31016   0.00000  Uiso   1.00
C247   C     0.00000   0.34310   0.29604   0.00000  Uiso   1.00
C248   C     0.00000   0.32939   0.18505   0.00000  Uiso   1.00
C249   C     0.00000   0.35304   0.09076   0.00000  Uiso   1.00
H250   H     0.00000   0.43512   0.23697   0.00000  Uiso   1.00
H251   H     0.00000   0.39203   0.40358   0.00000  Uiso   1.00
H252   H     0.00000   0.29771   0.16960   0.00000  Uiso   1.00
H253   H     0.00000   0.34031  -0.00141   0.00000  Uiso   1.00
C254   C     0.00000   0.28629   0.40572   0.00000  Uiso   1.00
N255   N     0.00000   0.32124   0.39724   0.00000  Uiso   1.00
H256   H     0.00000   0.42156   0.69973   0.00000  Uiso   1.00
C257   C     0.00000   0.21239   0.62952   0.00000  Uiso   1.00
C258   C     0.00000   0.23023   0.52461   0.00000  Uiso   1.00
H259   H     0.00000   0.18034   0.63295   0.00000  Uiso   1.00
H260   H     0.00000   0.21279   0.44034   0.00000  Uiso   1.00
C261   C     0.23197   0.00000   0.26850   0.00000  Uiso   1.00
C262   C     0.08224   0.00000   0.75495   0.00000  Uiso   1.00
C263   C     0.09323   0.00000   0.63663   0.00000  Uiso   1.00
C264   C     0.06788   0.00000   0.54456   0.00000  Uiso   1.00
C265   C     0.03177   0.00000   0.58129   0.00000  Uiso   1.00
C266   C     0.98017   0.00000   0.69180   0.00000  Uiso   1.00
C267   C     0.04444   0.00000   0.77877   0.00000  Uiso   1.00
H268   H     0.12437   0.00000   0.61271   0.00000  Uiso   1.00
H269   H     0.03420   0.00000   0.87394   0.00000  Uiso   1.00
C270   C     0.10892   0.00000   0.85455   0.00000  Uiso   1.00
C271   C     0.09637   0.00000   0.96800   0.00000  Uiso   1.00
C272   C     0.11974   0.00000   0.06016   0.00000  Uiso   1.00
C273   C     0.15690   0.00000   0.04604   0.00000  Uiso   1.00
C274   C     0.17061   0.00000   0.93505   0.00000  Uiso   1.00
C275   C     0.14696   0.00000   0.84076   0.00000  Uiso   1.00
H276   H     0.06488   0.00000   0.98697   0.00000  Uiso   1.00
H277   H     0.10797   0.00000   0.15358   0.00000  Uiso   1.00
H278   H     0.20229   0.00000   0.91960   0.00000  Uiso   1.00
H279   H     0.15969   0.00000   0.74859   0.00000  Uiso   1.00
C280   C     0.21371   0.00000   0.15572   0.00000  Uiso   1.00
N281   N     0.17876   0.00000   0.14724   0.00000  Uiso   1.00
H282   H     0.07844   0.00000   0.44973   0.00000  Uiso   1.00
C283   C     0.28761   0.00000   0.37952   0.00000  Uiso   1.00
C284   C     0.26977   0.00000   0.27461   0.00000  Uiso   1.00
H285   H     0.31966   0.00000   0.38295   0.00000  Uiso   1.00
H286   H     0.28721   0.00000   0.19034   0.00000  Uiso   1.00
C287   C     0.26803   0.50000   0.76850   0.00000  Uiso   1.00
C288   C     0.41776   0.50000   0.25495   0.00000  Uiso   1.00
C289   C     0.40677   0.50000   0.13663   0.00000  Uiso   1.00
C290   C     0.43212   0.50000   0.04456   0.00000  Uiso   1.00
C291   C     0.46823   0.50000   0.08129   0.00000  Uiso   1.00
C292   C     0.51983   0.50000   0.19180   0.00000  Uiso   1.00
C293   C     0.45556   0.50000   0.27877   0.00000  Uiso   1.00
H294   H     0.37563   0.50000   0.11271   0.00000  Uiso   1.00
H295   H     0.46580   0.50000   0.37394   0.00000  Uiso   1.00
C296   C     0.39108   0.50000   0.35455   0.00000  Uiso   1.00
C297   C     0.40363   0.50000   0.46800   0.00000  Uiso   1.00
C298   C     0.38026   0.50000   0.56016   0.00000  Uiso   1.00
C299   C     0.34310   0.50000   0.54604   0.00000  Uiso   1.00
C300   C     0.32939   0.50000   0.43505   0.00000  Uiso   1.00
C301   C     0.35304   0.50000   0.34076   0.00000  Uiso   1.00
H302   H     0.43512   0.50000   0.48697   0.00000  Uiso   1.00
H303   H     0.39203   0.50000   0.65358   0.00000  Uiso   1.00
H304   H     0.29771   0.50000   0.41960   0.00000  Uiso   1.00
H305   H     0.34031   0.50000   0.24859   0.00000  Uiso   1.00
C306   C     0.28629   0.50000   0.65572   0.00000  Uiso   1.00
N307   N     0.32124   0.50000   0.64724   0.00000  Uiso   1.00
H308   H     0.42156   0.50000   0.94973   0.00000  Uiso   1.00
C309   C     0.21239   0.50000   0.87952   0.00000  Uiso   1.00
C310   C     0.23023   0.50000   0.77461   0.00000  Uiso   1.00
H311   H     0.18034   0.50000   0.88295   0.00000  Uiso   1.00
H312   H     0.21279   0.50000   0.69034   0.00000  Uiso   1.00
C313   C     0.73197   0.50000   0.76850   0.00000  Uiso   1.00
C314   C     0.58224   0.50000   0.25495   0.00000  Uiso   1.00
C315   C     0.59323   0.50000   0.13663   0.00000  Uiso   1.00
C316   C     0.56788   0.50000   0.04456   0.00000  Uiso   1.00
C317   C     0.53177   0.50000   0.08129   0.00000  Uiso   1.00
C318   C     0.48017   0.50000   0.19180   0.00000  Uiso   1.00
C319   C     0.54444   0.50000   0.27877   0.00000  Uiso   1.00
H320   H     0.62437   0.50000   0.11271   0.00000  Uiso   1.00
H321   H     0.53420   0.50000   0.37394   0.00000  Uiso   1.00
C322   C     0.60892   0.50000   0.35455   0.00000  Uiso   1.00
C323   C     0.59637   0.50000   0.46800   0.00000  Uiso   1.00
C324   C     0.61974   0.50000   0.56016   0.00000  Uiso   1.00
C325   C     0.65690   0.50000   0.54604   0.00000  Uiso   1.00
C326   C     0.67061   0.50000   0.43505   0.00000  Uiso   1.00
C327   C     0.64696   0.50000   0.34076   0.00000  Uiso   1.00
H328   H     0.56488   0.50000   0.48697   0.00000  Uiso   1.00
H329   H     0.60797   0.50000   0.65358   0.00000  Uiso   1.00
H330   H     0.70229   0.50000   0.41960   0.00000  Uiso   1.00
H331   H     0.65969   0.50000   0.24859   0.00000  Uiso   1.00
C332   C     0.71371   0.50000   0.65572   0.00000  Uiso   1.00
N333   N     0.67876   0.50000   0.64724   0.00000  Uiso   1.00
H334   H     0.57844   0.50000   0.94973   0.00000  Uiso   1.00
C335   C     0.78761   0.50000   0.87952   0.00000  Uiso   1.00
C336   C     0.76977   0.50000   0.77461   0.00000  Uiso   1.00
H337   H     0.81966   0.50000   0.88295   0.00000  Uiso   1.00
H338   H     0.78721   0.50000   0.69034   0.00000  Uiso   1.00
C339   C     0.76803   0.00000   0.26850   0.00000  Uiso   1.00
C340   C     0.91776   0.00000   0.75495   0.00000  Uiso   1.00
C341   C     0.90677   0.00000   0.63663   0.00000  Uiso   1.00
C342   C     0.93212   0.00000   0.54456   0.00000  Uiso   1.00
C343   C     0.96823   0.00000   0.58129   0.00000  Uiso   1.00
C344   C     0.01983   0.00000   0.69180   0.00000  Uiso   1.00
C345   C     0.95556   0.00000   0.77877   0.00000  Uiso   1.00
H346   H     0.87563   0.00000   0.61271   0.00000  Uiso   1.00
H347   H     0.96580   0.00000   0.87394   0.00000  Uiso   1.00
C348   C     0.89108   0.00000   0.85455   0.00000  Uiso   1.00
C349   C     0.90363   0.00000   0.96800   0.00000  Uiso   1.00
C350   C     0.88026   0.00000   0.06016   0.00000  Uiso   1.00
C351   C     0.84310   0.00000   0.04604   0.00000  Uiso   1.00
C352   C     0.82939   0.00000   0.93505   0.00000  Uiso   1.00
C353   C     0.85304   0.00000   0.84076   0.00000  Uiso   1.00
H354   H     0.93512   0.00000   0.98697   0.00000  Uiso   1.00
H355   H     0.89203   0.00000   0.15358   0.00000  Uiso   1.00
H356   H     0.79771   0.00000   0.91960   0.00000  Uiso   1.00
H357   H     0.84031   0.00000   0.74859   0.00000  Uiso   1.00
C358   C     0.78629   0.00000   0.15572   0.00000  Uiso   1.00
N359   N     0.82124   0.00000   0.14724   0.00000  Uiso   1.00
H360   H     0.92156   0.00000   0.44973   0.00000  Uiso   1.00
C361   C     0.71239   0.00000   0.37952   0.00000  Uiso   1.00
C362   C     0.73023   0.00000   0.27461   0.00000  Uiso   1.00
H363   H     0.68034   0.00000   0.38295   0.00000  Uiso   1.00
H364   H     0.71279   0.00000   0.19034   0.00000  Uiso   1.00
C365   C     0.76803   0.50000   0.98150   0.00000  Uiso   1.00
C366   C     0.91776   0.50000   0.49505   0.00000  Uiso   1.00
C367   C     0.90677   0.50000   0.61337   0.00000  Uiso   1.00
C368   C     0.93212   0.50000   0.70544   0.00000  Uiso   1.00
C369   C     0.96823   0.50000   0.66871   0.00000  Uiso   1.00
C370   C     0.01983   0.50000   0.55820   0.00000  Uiso   1.00
C371   C     0.95556   0.50000   0.47123   0.00000  Uiso   1.00
H372   H     0.87563   0.50000   0.63729   0.00000  Uiso   1.00
H373   H     0.96580   0.50000   0.37606   0.00000  Uiso   1.00
C374   C     0.89108   0.50000   0.39545   0.00000  Uiso   1.00
C375   C     0.90363   0.50000   0.28200   0.00000  Uiso   1.00
C376   C     0.88026   0.50000   0.18984   0.00000  Uiso   1.00
C377   C     0.84310   0.50000   0.20396   0.00000  Uiso   1.00
C378   C     0.82939   0.50000   0.31495   0.00000  Uiso   1.00
C379   C     0.85304   0.50000   0.40924   0.00000  Uiso   1.00
H380   H     0.93512   0.50000   0.26303   0.00000  Uiso   1.00
H381   H     0.89203   0.50000   0.09642   0.00000  Uiso   1.00
H382   H     0.79771   0.50000   0.33040   0.00000  Uiso   1.00
H383   H     0.84031   0.50000   0.50141   0.00000  Uiso   1.00
C384   C     0.78629   0.50000   0.09428   0.00000  Uiso   1.00
N385   N     0.82124   0.50000   0.10276   0.00000  Uiso   1.00
H386   H     0.92156   0.50000   0.80027   0.00000  Uiso   1.00
C387   C     0.71239   0.50000   0.87048   0.00000  Uiso   1.00
C388   C     0.73023   0.50000   0.97539   0.00000  Uiso   1.00
H389   H     0.68034   0.50000   0.86705   0.00000  Uiso   1.00
H390   H     0.71279   0.50000   0.05966   0.00000  Uiso   1.00
C391   C     0.73197   0.00000   0.48150   0.00000  Uiso   1.00
C392   C     0.58224   0.00000   0.99505   0.00000  Uiso   1.00
C393   C     0.59323   0.00000   0.11337   0.00000  Uiso   1.00
C394   C     0.56788   0.00000   0.20544   0.00000  Uiso   1.00
C395   C     0.53177   0.00000   0.16871   0.00000  Uiso   1.00
C396   C     0.48017   0.00000   0.05820   0.00000  Uiso   1.00
C397   C     0.54444   0.00000   0.97123   0.00000  Uiso   1.00
H398   H     0.62437   0.00000   0.13729   0.00000  Uiso   1.00
H399   H     0.53420   0.00000   0.87606   0.00000  Uiso   1.00
C400   C     0.60892   0.00000   0.89545   0.00000  Uiso   1.00
C401   C     0.59637   0.00000   0.78200   0.00000  Uiso   1.00
C402   C     0.61974   0.00000   0.68984   0.00000  Uiso   1.00
C403   C     0.65690   0.00000   0.70396   0.00000  Uiso   1.00
C404   C     0.67061   0.00000   0.81495   0.00000  Uiso   1.00
C405   C     0.64696   0.00000   0.90924   0.00000  Uiso   1.00
H406   H     0.56488   0.00000   0.76303   0.00000  Uiso   1.00
H407   H     0.60797   0.00000   0.59642   0.00000  Uiso   1.00
H408   H     0.70229   0.00000   0.83040   0.00000  Uiso   1.00
H409   H     0.65969   0.00000   1.00141   0.00000  Uiso   1.00
C410   C     0.71371   0.00000   0.59428   0.00000  Uiso   1.00
N411   N     0.67876   0.00000   0.60276   0.00000  Uiso   1.00
H412   H     0.57844   0.00000   0.30027   0.00000  Uiso   1.00
C413   C     0.78761   0.00000   0.37048   0.00000  Uiso   1.00
C414   C     0.76977   0.00000   0.47539   0.00000  Uiso   1.00
H415   H     0.81966   0.00000   0.36705   0.00000  Uiso   1.00
H416   H     0.78721   0.00000   0.55966   0.00000  Uiso   1.00
C417   C     0.50000   0.50000   0.00000   0.00000  Uiso   1.00
C418   C     0.00000   0.00000   0.50000   0.00000  Uiso   1.00
C419   C     0.50000   0.00000   0.25000   0.00000  Uiso   1.00
C420   C     0.00000   0.50000   0.75000   0.00000  Uiso   1.00
H421   H     0.50000   0.73122   0.42841   0.00000  Uiso   1.00
H422   H     0.00000   0.23122   0.92841   0.00000  Uiso   1.00
H423   H     0.00000   0.76878   0.92841   0.00000  Uiso   1.00
H424   H     0.50000   0.26878   0.42841   0.00000  Uiso   1.00
H425   H     0.26878   0.00000   0.67841   0.00000  Uiso   1.00
H426   H     0.23122   0.50000   0.17841   0.00000  Uiso   1.00
H427   H     0.00000   0.73122   0.32159   0.00000  Uiso   1.00
H428   H     0.50000   0.23122   0.82159   0.00000  Uiso   1.00
H429   H     0.50000   0.76878   0.82159   0.00000  Uiso   1.00
H430   H     0.00000   0.26878   0.32159   0.00000  Uiso   1.00
H431   H     0.23122   0.00000   0.07159   0.00000  Uiso   1.00
H432   H     0.26878   0.50000   0.57159   0.00000  Uiso   1.00
H433   H     0.73122   0.50000   0.57159   0.00000  Uiso   1.00
H434   H     0.76878   0.00000   0.07159   0.00000  Uiso   1.00
H435   H     0.76878   0.50000   0.17841   0.00000  Uiso   1.00
H436   H     0.73122   0.00000   0.67841   0.00000  Uiso   1.00
loop_
_geom_bond_atom_site_label_1
_geom_bond_atom_site_label_2
_geom_bond_distance
_geom_bond_site_symmetry_2
_ccdc_geom_bond_type
C1     C20     1.435   .     S
C1     C24     1.346   .     D
C1     C231    1.351   .     S
C2     C3      1.399   .     D
C2     C7      1.371   .     S
C2     C10     1.476   .     S
C3     C4      1.380   .     S
C3     H8      1.140   .     S
C4     C5      1.350   .     D
C4     H22     1.140   1_556 S
C5     C84     1.324   .     S
C5     C417    1.459   1_556 S
C6     C83     1.324   .     D
C6     C85     1.319   .     S
C6     C84     1.410   .     S
C7     H9      1.140   .     S
C7     C84     1.319   .     D
C10    C11     1.363   .     D
C10    C15     1.362   .     S
C11    C12     1.336   .     S
C11    H16     1.140   .     S
C12    C13     1.331   .     D
C12    H17     1.140   .     S
C13    C14     1.351   .     S
C13    N21     1.387   .     S
C14    C15     1.361   .     D
C14    H18     1.140   .     S
C15    H19     1.140   .     S
C20    N21     1.246   .     D
C20    H421    1.140   .     S
H22    C4      1.140   1_554 S
C23    C24     1.349   .     S
C23    H25     1.140   .     S
C23    C209    1.351   .     D
C24    H26     1.140   .     S
C27    C46     1.435   .     S
C27    C50     1.346   .     S
C27    C257    1.351   .     D
C28    C29     1.399   .     S
C28    C33     1.371   .     D
C28    C36     1.476   .     S
C29    C30     1.380   .     D
C29    H34     1.140   .     S
C30    C31     1.350   .     S
C30    H48     1.140   .     S
C31    C418    1.459   .     S
C31    C58     1.324   .     D
C32    C57     1.324   .     D
C32    C59     1.319   .     S
C32    C58     1.410   1_565 S
C33    H35     1.140   .     S
C33    C58     1.319   .     S
C36    C37     1.363   .     S
C36    C41     1.362   .     D
C37    H42     1.140   .     S
C37    C38     1.336   1_554 D
C38    C39     1.331   .     S
C38    H43     1.140   .     S
C38    C37     1.336   1_556 D
C39    N47     1.387   .     S
C39    C40     1.351   1_556 D
C40    C41     1.361   .     S
C40    H44     1.140   .     S
C40    C39     1.351   1_554 D
C41    H45     1.140   .     S
C46    N47     1.246   .     D
C46    H422    1.140   .     S
C49    C50     1.349   .     D
C49    H51     1.140   .     S
C49    C235    1.351   .     S
C50    H52     1.140   .     S
C53    C72     1.435   .     S
C53    C76     1.346   .     D
C53    C179    1.351   .     S
C54    C55     1.399   .     S
C54    C59     1.371   .     D
C54    C62     1.476   .     S
C55    C56     1.380   .     D
C55    H60     1.140   .     S
C56    C57     1.350   .     S
C56    H74     1.140   .     S
C57    C418    1.459   1_565 S
C58    C32     1.410   1_545 S
C59    H61     1.140   .     S
C62    C63     1.363   .     D
C62    C67     1.362   .     S
C63    H68     1.140   .     S
C63    C64     1.336   1_554 S
C64    C65     1.331   .     D
C64    H69     1.140   .     S
C64    C63     1.336   1_556 S
C65    N73     1.387   .     S
C65    C66     1.351   1_556 S
C66    C67     1.361   .     D
C66    H70     1.140   .     S
C66    C65     1.351   1_554 S
C67    H71     1.140   .     S
C72    N73     1.246   .     D
C72    H423    1.140   .     S
C75    C76     1.349   .     S
C75    H77     1.140   .     S
C75    C157    1.351   .     D
C76    H78     1.140   .     S
C79    C98     1.435   .     S
C79    C102    1.346   .     D
C79    C205    1.351   .     S
C80    C81     1.399   .     S
C80    C85     1.371   .     D
C80    C88     1.476   .     S
C81    C82     1.380   .     D
C81    H86     1.140   .     S
C82    C83     1.350   .     S
C82    H100    1.140   1_556 S
C83    C417    1.459   1_556 S
C85    H87     1.140   .     S
C88    C89     1.363   .     D
C88    C93     1.362   .     S
C89    C90     1.336   .     S
C89    H94     1.140   .     S
C90    C91     1.331   .     D
C90    H95     1.140   .     S
C91    C92     1.351   .     S
C91    N99     1.387   .     S
C92    C93     1.361   .     D
C92    H96     1.140   .     S
C93    H97     1.140   .     S
C98    N99     1.246   .     D
C98    H424    1.140   .     S
H100   C82     1.140   1_554 S
C101   C102    1.349   .     S
C101   H103    1.140   .     S
C101   C183    1.351   .     D
C102   H104    1.140   .     S
C105   C124    1.435   .     S
C105   C128    1.346   .     D
C105   C283    1.351   .     S
C106   C111    1.371   .     D
C106   C114    1.476   .     S
C106   C107    1.399   1_556 S
C107   C108    1.380   .     D
C107   H112    1.140   .     S
C107   C106    1.399   1_554 S
C108   C109    1.350   .     S
C108   H126    1.140   .     S
C109   C419    1.459   .     S
C109   C396    1.324   .     D
C110   C395    1.324   .     S
C110   C396    1.410   .     S
C110   C397    1.319   1_554 D
C111   H113    1.140   .     S
C111   C396    1.319   1_556 S
C114   C115    1.363   .     D
C114   C119    1.362   .     S
C115   C116    1.336   .     S
C115   H120    1.140   .     S
C116   C117    1.331   .     D
C116   H121    1.140   .     S
C117   C118    1.351   .     S
C117   N125    1.387   .     S
C118   C119    1.361   .     D
C118   H122    1.140   .     S
C119   H123    1.140   .     S
C124   N125    1.246   .     D
C124   H425    1.140   .     S
C127   C128    1.349   .     S
C127   H129    1.140   .     S
C127   C261    1.351   .     D
C128   H130    1.140   .     S
C131   C154    1.346   .     D
C131   C309    1.351   .     S
C131   C150    1.435   1_556 S
C132   C133    1.399   .     S
C132   C137    1.371   .     D
C132   C140    1.476   .     S
C133   C134    1.380   .     D
C133   H138    1.140   .     S
C134   C135    1.350   .     S
C134   H152    1.140   .     S
C135   C420    1.459   .     S
C135   C370    1.324   .     D
C136   C369    1.324   .     S
C136   C371    1.319   .     D
C136   C370    1.410   1_655 S
C137   H139    1.140   .     S
C137   C370    1.319   .     S
C140   C141    1.363   .     D
C140   C145    1.362   .     S
C141   C142    1.336   .     S
C141   H146    1.140   .     S
C142   C143    1.331   .     D
C142   H147    1.140   .     S
C143   C144    1.351   .     S
C143   N151    1.387   .     S
C144   C145    1.361   .     D
C144   H148    1.140   .     S
C145   H149    1.140   .     S
C150   N151    1.246   .     D
C150   H426    1.140   .     S
C150   C131    1.435   1_554 S
C153   C154    1.349   .     S
C153   H155    1.140   .     S
C153   C287    1.351   .     D
C154   H156    1.140   1_556 S
H156   C154    1.140   1_554 S
C157   C176    1.435   .     S
C157   C180    1.346   .     S
C158   C163    1.371   .     D
C158   C166    1.476   .     S
C158   C159    1.399   1_554 S
C159   C160    1.380   .     D
C159   H164    1.140   .     S
C159   C158    1.399   1_556 S
C160   C161    1.350   .     S
C160   H178    1.140   .     S
C161   C420    1.459   .     S
C161   C240    1.324   .     D
C162   C239    1.324   .     S
C162   C240    1.410   .     S
C162   C241    1.319   1_556 D
C163   H165    1.140   .     S
C163   C240    1.319   1_554 S
C166   C167    1.363   .     D
C166   C171    1.362   .     S
C167   C168    1.336   .     S
C167   H172    1.140   .     S
C168   C169    1.331   .     D
C168   H173    1.140   .     S
C169   C170    1.351   .     S
C169   N177    1.387   .     S
C170   C171    1.361   .     D
C170   H174    1.140   .     S
C171   H175    1.140   .     S
C176   N177    1.246   .     D
C176   H427    1.140   .     S
C179   C180    1.349   .     D
C179   H181    1.140   .     S
C180   H182    1.140   .     S
C183   C206    1.346   .     S
C183   C202    1.435   1_554 S
C184   C185    1.399   .     S
C184   C189    1.371   .     D
C184   C192    1.476   .     S
C185   C186    1.380   .     D
C185   H190    1.140   .     S
C186   C187    1.350   .     S
C186   H204    1.140   .     S
C187   C419    1.459   .     S
C187   C214    1.324   .     D
C188   C213    1.324   .     S
C188   C215    1.319   .     D
C188   C214    1.410   1_565 S
C189   H191    1.140   .     S
C189   C214    1.319   .     S
C192   C193    1.363   .     D
C192   C197    1.362   .     S
C193   C194    1.336   .     S
C193   H198    1.140   .     S
C194   C195    1.331   .     D
C194   H199    1.140   .     S
C195   C196    1.351   .     S
C195   N203    1.387   .     S
C196   C197    1.361   .     D
C196   H200    1.140   .     S
C197   H201    1.140   .     S
C202   N203    1.246   .     D
C202   H428    1.140   .     S
C202   C183    1.435   1_556 S
C205   C206    1.349   .     D
C205   H207    1.140   .     S
C206   H208    1.140   1_554 S
H208   C206    1.140   1_556 S
C209   C232    1.346   .     S
C209   C228    1.435   1_554 S
C210   C211    1.399   .     D
C210   C215    1.371   .     S
C210   C218    1.476   .     S
C211   C212    1.380   .     S
C211   H216    1.140   .     S
C212   C213    1.350   .     D
C212   H230    1.140   .     S
C213   C419    1.459   1_565 S
C214   C188    1.410   1_545 S
C215   H217    1.140   .     S
C218   C219    1.363   .     D
C218   C223    1.362   .     S
C219   C220    1.336   .     S
C219   H224    1.140   .     S
C220   C221    1.331   .     D
C220   H225    1.140   .     S
C221   C222    1.351   .     S
C221   N229    1.387   .     S
C222   C223    1.361   .     D
C222   H226    1.140   .     S
C223   H227    1.140   .     S
C228   N229    1.246   .     D
C228   H429    1.140   .     S
C228   C209    1.435   1_556 S
C231   C232    1.349   .     D
C231   H233    1.140   .     S
C232   H234    1.140   1_554 S
H234   C232    1.140   1_556 S
C235   C254    1.435   .     S
C235   C258    1.346   .     D
C236   C241    1.371   .     S
C236   C244    1.476   .     S
C236   C237    1.399   1_554 D
C237   C238    1.380   .     S
C237   H242    1.140   .     S
C237   C236    1.399   1_556 D
C238   C239    1.350   .     D
C238   H256    1.140   .     S
C239   C420    1.459   .     S
C240   C163    1.319   1_556 S
C241   H243    1.140   .     S
C241   C162    1.319   1_554 D
C244   C245    1.363   .     S
C244   C249    1.362   .     D
C245   C246    1.336   .     D
C245   H250    1.140   .     S
C246   C247    1.331   .     S
C246   H251    1.140   .     S
C247   C248    1.351   .     D
C247   N255    1.387   .     S
C248   C249    1.361   .     S
C248   H252    1.140   .     S
C249   H253    1.140   .     S
C254   N255    1.246   .     D
C254   H430    1.140   .     S
C257   C258    1.349   .     S
C257   H259    1.140   .     S
C258   H260    1.140   .     S
C261   C280    1.435   .     S
C261   C284    1.346   .     S
C262   C263    1.399   .     S
C262   C267    1.371   .     D
C262   C270    1.476   .     S
C263   C264    1.380   .     D
C263   H268    1.140   .     S
C264   C265    1.350   .     S
C264   H282    1.140   .     S
C265   C418    1.459   .     S
C265   C344    1.324   .     D
C266   C343    1.324   .     D
C266   C345    1.319   .     S
C266   C344    1.410   1_655 S
C267   H269    1.140   .     S
C267   C344    1.319   .     S
C270   C271    1.363   .     D
C270   C275    1.362   .     S
C271   H276    1.140   .     S
C271   C272    1.336   1_556 S
C272   C273    1.331   .     D
C272   H277    1.140   .     S
C272   C271    1.336   1_554 S
C273   N281    1.387   .     S
C273   C274    1.351   1_554 S
C274   C275    1.361   .     D
C274   H278    1.140   .     S
C274   C273    1.351   1_556 S
C275   H279    1.140   .     S
C280   N281    1.246   .     D
C280   H431    1.140   .     S
C283   C284    1.349   .     D
C283   H285    1.140   .     S
C284   H286    1.140   .     S
C287   C306    1.435   .     S
C287   C310    1.346   .     S
C288   C289    1.399   .     S
C288   C293    1.371   .     D
C288   C296    1.476   .     S
C289   C290    1.380   .     D
C289   H294    1.140   .     S
C290   C291    1.350   .     S
C290   H308    1.140   1_554 S
C291   C417    1.459   .     S
C291   C318    1.324   .     D
C292   C317    1.324   .     S
C292   C319    1.319   .     D
C292   C318    1.410   .     S
C293   H295    1.140   .     S
C293   C318    1.319   .     S
C296   C297    1.363   .     D
C296   C301    1.362   .     S
C297   C298    1.336   .     S
C297   H302    1.140   .     S
C298   C299    1.331   .     D
C298   H303    1.140   .     S
C299   C300    1.351   .     S
C299   N307    1.387   .     S
C300   C301    1.361   .     D
C300   H304    1.140   .     S
C301   H305    1.140   .     S
C306   N307    1.246   .     D
C306   H432    1.140   .     S
H308   C290    1.140   1_556 S
C309   C310    1.349   .     D
C309   H311    1.140   .     S
C310   H312    1.140   .     S
C313   C332    1.435   .     S
C313   C336    1.346   .     D
C313   C387    1.351   .     S
C314   C315    1.399   .     D
C314   C319    1.371   .     S
C314   C322    1.476   .     S
C315   C316    1.380   .     S
C315   H320    1.140   .     S
C316   C317    1.350   .     D
C316   H334    1.140   1_554 S
C317   C417    1.459   .     S
C319   H321    1.140   .     S
C322   C323    1.363   .     D
C322   C327    1.362   .     S
C323   C324    1.336   .     S
C323   H328    1.140   .     S
C324   C325    1.331   .     D
C324   H329    1.140   .     S
C325   C326    1.351   .     S
C325   N333    1.387   .     S
C326   C327    1.361   .     D
C326   H330    1.140   .     S
C327   H331    1.140   .     S
C332   N333    1.246   .     D
C332   H433    1.140   .     S
H334   C316    1.140   1_556 S
C335   C336    1.349   .     S
C335   H337    1.140   .     S
C335   C365    1.351   .     D
C336   H338    1.140   .     S
C339   C358    1.435   .     S
C339   C362    1.346   .     S
C339   C413    1.351   .     D
C340   C341    1.399   .     S
C340   C345    1.371   .     D
C340   C348    1.476   .     S
C341   C342    1.380   .     D
C341   H346    1.140   .     S
C342   C343    1.350   .     S
C342   H360    1.140   .     S
C343   C418    1.459   1_655 S
C344   C266    1.410   1_455 S
C345   H347    1.140   .     S
C348   C349    1.363   .     S
C348   C353    1.362   .     D
C349   H354    1.140   .     S
C349   C350    1.336   1_556 D
C350   C351    1.331   .     S
C350   H355    1.140   .     S
C350   C349    1.336   1_554 D
C351   N359    1.387   .     S
C351   C352    1.351   1_554 D
C352   C353    1.361   .     S
C352   H356    1.140   .     S
C352   C351    1.351   1_556 D
C353   H357    1.140   .     S
C358   N359    1.246   .     D
C358   H434    1.140   .     S
C361   C362    1.349   .     D
C361   H363    1.140   .     S
C361   C391    1.351   .     S
C362   H364    1.140   .     S
C365   C388    1.346   .     S
C365   C384    1.435   1_556 S
C366   C367    1.399   .     D
C366   C371    1.371   .     S
C366   C374    1.476   .     S
C367   C368    1.380   .     S
C367   H372    1.140   .     S
C368   C369    1.350   .     D
C368   H386    1.140   .     S
C369   C420    1.459   1_655 S
C370   C136    1.410   1_455 S
C371   H373    1.140   .     S
C374   C375    1.363   .     D
C374   C379    1.362   .     S
C375   C376    1.336   .     S
C375   H380    1.140   .     S
C376   C377    1.331   .     D
C376   H381    1.140   .     S
C377   C378    1.351   .     S
C377   N385    1.387   .     S
C378   C379    1.361   .     D
C378   H382    1.140   .     S
C379   H383    1.140   .     S
C384   N385    1.246   .     D
C384   H435    1.140   .     S
C384   C365    1.435   1_554 S
C387   C388    1.349   .     D
C387   H389    1.140   .     S
C388   H390    1.140   1_556 S
H390   C388    1.140   1_554 S
C391   C410    1.435   .     S
C391   C414    1.346   .     D
C392   C397    1.371   .     S
C392   C400    1.476   .     S
C392   C393    1.399   1_556 D
C393   C394    1.380   .     S
C393   H398    1.140   .     S
C393   C392    1.399   1_554 D
C394   C395    1.350   .     D
C394   H412    1.140   .     S
C395   C419    1.459   .     S
C396   C111    1.319   1_554 S
C397   H399    1.140   .     S
C397   C110    1.319   1_556 D
C400   C401    1.363   .     S
C400   C405    1.362   .     D
C401   C402    1.336   .     D
C401   H406    1.140   .     S
C402   C403    1.331   .     S
C402   H407    1.140   .     S
C403   C404    1.351   .     D
C403   N411    1.387   .     S
C404   C405    1.361   .     S
C404   H408    1.140   .     S
C405   H409    1.140   .     S
C410   N411    1.246   .     D
C410   H436    1.140   .     S
C413   C414    1.349   .     S
C413   H415    1.140   .     S
C414   H416    1.140   .     S
C417   C5      1.459   1_554 S
C417   C83     1.459   1_554 S
C418   C57     1.459   1_545 S
C418   C343    1.459   1_455 S
C419   C213    1.459   1_545 S
C420   C369    1.459   1_455 S
