data_1179
_audit_creation_date              2023-09-08
_audit_creation_method            'Materials Studio'
_symmetry_space_group_name_H-M    'P1'
_symmetry_Int_Tables_number       1
_symmetry_cell_setting            triclinic
loop_
_symmetry_equiv_pos_as_xyz
  x,y,z
_cell_length_a                    16.9500
_cell_length_b                    29.2500
_cell_length_c                    7.6700
_cell_angle_alpha                 90.0000
_cell_angle_beta                  90.0000
_cell_angle_gamma                 90.0000
loop_
_atom_site_label
_atom_site_type_symbol
_atom_site_fract_x
_atom_site_fract_y
_atom_site_fract_z
_atom_site_U_iso_or_equiv
_atom_site_adp_type
_atom_site_occupancy
C1     C     0.54810   0.55330   0.26870   0.00000  Uiso   1.00
C2     C     0.54100   0.59030   0.15700   0.00000  Uiso   1.00
C3     C     0.42150   0.60670   0.27760   0.00000  Uiso   1.00
C4     C     0.47740   0.61800   0.15590   0.00000  Uiso   1.00
C5     C     0.97360   0.84320   0.38350   0.00000  Uiso   1.00
C6     C     0.98150   0.80650   0.26320   0.00000  Uiso   1.00
C7     C     0.00190   0.81220   0.09820   0.00000  Uiso   1.00
C8     C     0.95260   0.76570   0.28900   0.00000  Uiso   1.00
C9     C     0.94820   0.73300   0.16820   0.00000  Uiso   1.00
C10    C     0.99390   0.77900   0.97170   0.00000  Uiso   1.00
C11    C     0.57360   0.50290   0.61780   0.00000  Uiso   1.00
C12    C     0.96430   0.73840   0.00770   0.00000  Uiso   1.00
C13    C     0.94450   0.70510   0.87720   0.00000  Uiso   1.00
C14    C     0.86970   0.70990   0.78660   0.00000  Uiso   1.00
C15    C     0.80810   0.74240   0.83330   0.00000  Uiso   1.00
C16    C     0.73590   0.74270   0.74310   0.00000  Uiso   1.00
C17    C     0.72470   0.71390   0.63010   0.00000  Uiso   1.00
C18    C     0.77690   0.68440   0.56800   0.00000  Uiso   1.00
C19    C     0.85300   0.68120   0.64340   0.00000  Uiso   1.00
C20    C     0.91250   0.64860   0.59360   0.00000  Uiso   1.00
C21    C     0.98290   0.64610   0.66860   0.00000  Uiso   1.00
C22    C     0.59170   0.46860   0.72340   0.00000  Uiso   1.00
C23    C     0.00320   0.67500   0.80570   0.00000  Uiso   1.00
C24    C     0.04770   0.61590   0.61790   0.00000  Uiso   1.00
C25    C     0.11830   0.61420   0.67380   0.00000  Uiso   1.00
C26    C     0.14080   0.64380   0.79720   0.00000  Uiso   1.00
C27    C     0.08110   0.66830   0.88210   0.00000  Uiso   1.00
C28    C     0.23220   0.66050   0.01060   0.00000  Uiso   1.00
C29    C     0.21230   0.56540   0.75880   0.00000  Uiso   1.00
C30    C     0.88550   0.62300   0.44770   0.00000  Uiso   1.00
C31    C     0.93970   0.61720   0.31670   0.00000  Uiso   1.00
C32    C     0.92100   0.59110   0.16850   0.00000  Uiso   1.00
C33    C     0.64660   0.47320   0.85890   0.00000  Uiso   1.00
C34    C     0.84770   0.57180   0.15120   0.00000  Uiso   1.00
C35    C     0.79490   0.57520   0.28760   0.00000  Uiso   1.00
C36    C     0.81310   0.60150   0.43330   0.00000  Uiso   1.00
C37    C     0.82010   0.54940   0.01960   0.00000  Uiso   1.00
C38    C     0.08980   0.52390   0.25420   0.00000  Uiso   1.00
C39    C     0.16500   0.51090   0.35550   0.00000  Uiso   1.00
C40    C     0.21870   0.58700   0.30850   0.00000  Uiso   1.00
C41    C     0.14420   0.60090   0.20660   0.00000  Uiso   1.00
C42    C     0.63210   0.69640   0.43430   0.00000  Uiso   1.00
C43    C     0.67630   0.76840   0.97050   0.00000  Uiso   1.00
C44    C     0.60890   0.54390   0.63040   0.00000  Uiso   1.00
C45    C     0.66410   0.55110   0.75970   0.00000  Uiso   1.00
C46    C     0.68670   0.51640   0.87930   0.00000  Uiso   1.00
C47    C     0.49240   0.54320   0.38290   0.00000  Uiso   1.00
C48    C     0.42870   0.56960   0.38690   0.00000  Uiso   1.00
H49    H     0.39940   0.46480   0.24810   0.00000  Uiso   1.00
H50    H     0.41290   0.40280   0.05840   0.00000  Uiso   1.00
H51    H     0.63820   0.37110   0.27320   0.00000  Uiso   1.00
H52    H     0.45180   0.62440   0.77590   0.00000  Uiso   1.00
H53    H     0.46910   0.34920   0.55870   0.00000  Uiso   1.00
H54    H     0.56740   0.25860   0.93970   0.00000  Uiso   1.00
H55    H     0.58210   0.19770   0.71330   0.00000  Uiso   1.00
H56    H     0.48560   0.28830   0.32370   0.00000  Uiso   1.00
H57    H     0.32560   0.73320   0.45110   0.00000  Uiso   1.00
H58    H     0.25570   0.84870   0.99480   0.00000  Uiso   1.00
H59    H     0.43790   0.56720   0.71700   0.00000  Uiso   1.00
H60    H     0.52670   0.90730   0.99370   0.00000  Uiso   1.00
H61    H     0.59080   0.80580   0.50630   0.00000  Uiso   1.00
H62    H     0.26240   0.63090   0.08150   0.00000  Uiso   1.00
H63    H     0.27030   0.69250   0.02120   0.00000  Uiso   1.00
H64    H     0.32800   0.16720   0.57240   0.00000  Uiso   1.00
H65    H     0.75240   0.40660   0.83450   0.00000  Uiso   1.00
H66    H     0.73730   0.45920   0.70040   0.00000  Uiso   1.00
H67    H     0.82300   0.45550   0.85360   0.00000  Uiso   1.00
H68    H     0.99940   0.63480   0.33050   0.00000  Uiso   1.00
H69    H     0.96380   0.58640   0.05920   0.00000  Uiso   1.00
H70    H     0.33530   0.55500   0.95140   0.00000  Uiso   1.00
H71    H     0.73610   0.55930   0.27080   0.00000  Uiso   1.00
H72    H     0.77040   0.60670   0.53830   0.00000  Uiso   1.00
H73    H     0.87220   0.53490   0.92820   0.00000  Uiso   1.00
H74    H     0.03760   0.50370   0.30710   0.00000  Uiso   1.00
H75    H     0.09810   0.51590   0.10990   0.00000  Uiso   1.00
H76    H     0.17620   0.47270   0.34170   0.00000  Uiso   1.00
H77    H     0.15680   0.51980   0.49920   0.00000  Uiso   1.00
H78    H     0.21020   0.59500   0.45270   0.00000  Uiso   1.00
H79    H     0.27180   0.60660   0.25660   0.00000  Uiso   1.00
H80    H     0.15260   0.59260   0.06250   0.00000  Uiso   1.00
H81    H     0.13310   0.63910   0.22310   0.00000  Uiso   1.00
H82    H     0.67650   0.66790   0.36970   0.00000  Uiso   1.00
H83    H     0.63030   0.72360   0.30730   0.00000  Uiso   1.00
H84    H     0.43140   0.32240   0.40780   0.00000  Uiso   1.00
H85    H     0.85420   0.23470   0.50320   0.00000  Uiso   1.00
H86    H     0.76090   0.26800   0.52410   0.00000  Uiso   1.00
H87    H     0.64210   0.79790   0.03210   0.00000  Uiso   1.00
H88    H     0.40340   0.42620   0.54390   0.00000  Uiso   1.00
H89    H     0.30290   0.41400   0.78090   0.00000  Uiso   1.00
H90    H     0.62610   0.43770   0.48140   0.00000  Uiso   1.00
N91    N     0.25530   0.47210   0.00760   0.00000  Uiso   1.00
N92    N     0.46910   0.65160   0.06890   0.00000  Uiso   1.00
O93    O     0.67860   0.77430   0.78570   0.00000  Uiso   1.00
O94    O     0.63780   0.69770   0.62050   0.00000  Uiso   1.00
O95    O     0.18000   0.58620   0.61250   0.00000  Uiso   1.00
O96    O     0.22210   0.64890   0.83290   0.00000  Uiso   1.00
O97    O     0.23230   0.53630   0.28570   0.00000  Uiso   1.00
O98    O     0.07450   0.57440   0.27660   0.00000  Uiso   1.00
C99    C     0.45190   0.44670   0.26870   0.00000  Uiso   1.00
C100   C     0.45900   0.40970   0.15700   0.00000  Uiso   1.00
C101   C     0.57850   0.39330   0.27760   0.00000  Uiso   1.00
C102   C     0.52260   0.38200   0.15590   0.00000  Uiso   1.00
C103   C     0.02640   0.15680   0.38350   0.00000  Uiso   1.00
C104   C     0.01850   0.19350   0.26320   0.00000  Uiso   1.00
C105   C     0.99810   0.18780   0.09820   0.00000  Uiso   1.00
C106   C     0.04740   0.23430   0.28900   0.00000  Uiso   1.00
C107   C     0.05180   0.26700   0.16820   0.00000  Uiso   1.00
C108   C     0.00610   0.22100   0.97170   0.00000  Uiso   1.00
C109   C     0.42640   0.49710   0.61780   0.00000  Uiso   1.00
C110   C     0.03570   0.26160   0.00770   0.00000  Uiso   1.00
C111   C     0.05550   0.29490   0.87720   0.00000  Uiso   1.00
C112   C     0.13030   0.29010   0.78660   0.00000  Uiso   1.00
C113   C     0.19190   0.25760   0.83330   0.00000  Uiso   1.00
C114   C     0.26410   0.25730   0.74310   0.00000  Uiso   1.00
C115   C     0.27530   0.28610   0.63010   0.00000  Uiso   1.00
C116   C     0.22310   0.31560   0.56800   0.00000  Uiso   1.00
C117   C     0.14700   0.31880   0.64340   0.00000  Uiso   1.00
C118   C     0.08750   0.35140   0.59360   0.00000  Uiso   1.00
C119   C     0.01710   0.35390   0.66860   0.00000  Uiso   1.00
C120   C     0.40830   0.53140   0.72340   0.00000  Uiso   1.00
C121   C     0.99680   0.32500   0.80570   0.00000  Uiso   1.00
C122   C     0.95230   0.38410   0.61790   0.00000  Uiso   1.00
C123   C     0.88170   0.38580   0.67380   0.00000  Uiso   1.00
C124   C     0.85920   0.35620   0.79720   0.00000  Uiso   1.00
C125   C     0.91890   0.33170   0.88210   0.00000  Uiso   1.00
C126   C     0.76780   0.33950   0.01060   0.00000  Uiso   1.00
C127   C     0.78770   0.43460   0.75880   0.00000  Uiso   1.00
C128   C     0.11450   0.37700   0.44770   0.00000  Uiso   1.00
C129   C     0.06030   0.38280   0.31670   0.00000  Uiso   1.00
C130   C     0.07900   0.40890   0.16850   0.00000  Uiso   1.00
C131   C     0.35340   0.52680   0.85890   0.00000  Uiso   1.00
C132   C     0.15230   0.42820   0.15120   0.00000  Uiso   1.00
C133   C     0.20510   0.42480   0.28760   0.00000  Uiso   1.00
C134   C     0.18690   0.39850   0.43330   0.00000  Uiso   1.00
C135   C     0.17990   0.45060   0.01960   0.00000  Uiso   1.00
C136   C     0.91020   0.47610   0.25420   0.00000  Uiso   1.00
C137   C     0.83500   0.48910   0.35550   0.00000  Uiso   1.00
C138   C     0.78130   0.41300   0.30850   0.00000  Uiso   1.00
C139   C     0.85580   0.39910   0.20660   0.00000  Uiso   1.00
C140   C     0.36790   0.30360   0.43430   0.00000  Uiso   1.00
C141   C     0.32370   0.23160   0.97050   0.00000  Uiso   1.00
C142   C     0.39110   0.45610   0.63040   0.00000  Uiso   1.00
C143   C     0.33590   0.44890   0.75970   0.00000  Uiso   1.00
C144   C     0.31330   0.48360   0.87930   0.00000  Uiso   1.00
C145   C     0.50760   0.45680   0.38290   0.00000  Uiso   1.00
C146   C     0.57130   0.43040   0.38690   0.00000  Uiso   1.00
H147   H     0.60060   0.53520   0.24810   0.00000  Uiso   1.00
H148   H     0.58710   0.59720   0.05840   0.00000  Uiso   1.00
H149   H     0.36180   0.62890   0.27320   0.00000  Uiso   1.00
H150   H     0.54820   0.37560   0.77590   0.00000  Uiso   1.00
H151   H     0.53090   0.65080   0.55870   0.00000  Uiso   1.00
H152   H     0.43260   0.74140   0.93970   0.00000  Uiso   1.00
H153   H     0.41790   0.80230   0.71330   0.00000  Uiso   1.00
H154   H     0.51440   0.71170   0.32370   0.00000  Uiso   1.00
H155   H     0.67440   0.26680   0.45110   0.00000  Uiso   1.00
H156   H     0.74430   0.15130   0.99480   0.00000  Uiso   1.00
H157   H     0.56210   0.43280   0.71700   0.00000  Uiso   1.00
H158   H     0.47330   0.09270   0.99370   0.00000  Uiso   1.00
H159   H     0.40920   0.19420   0.50630   0.00000  Uiso   1.00
H160   H     0.73760   0.36910   0.08150   0.00000  Uiso   1.00
H161   H     0.72970   0.30750   0.02120   0.00000  Uiso   1.00
H162   H     0.67200   0.83280   0.57240   0.00000  Uiso   1.00
H163   H     0.24760   0.59340   0.83450   0.00000  Uiso   1.00
H164   H     0.26270   0.54080   0.70040   0.00000  Uiso   1.00
H165   H     0.17700   0.54450   0.85360   0.00000  Uiso   1.00
H166   H     0.00060   0.36520   0.33050   0.00000  Uiso   1.00
H167   H     0.03620   0.41360   0.05920   0.00000  Uiso   1.00
H168   H     0.66470   0.44500   0.95140   0.00000  Uiso   1.00
H169   H     0.26390   0.44070   0.27080   0.00000  Uiso   1.00
H170   H     0.22960   0.39330   0.53830   0.00000  Uiso   1.00
H171   H     0.12780   0.46510   0.92820   0.00000  Uiso   1.00
H172   H     0.96240   0.49630   0.30710   0.00000  Uiso   1.00
H173   H     0.90190   0.48410   0.10990   0.00000  Uiso   1.00
H174   H     0.82380   0.52730   0.34170   0.00000  Uiso   1.00
H175   H     0.84320   0.48020   0.49920   0.00000  Uiso   1.00
H176   H     0.78980   0.40500   0.45270   0.00000  Uiso   1.00
H177   H     0.72820   0.39340   0.25660   0.00000  Uiso   1.00
H178   H     0.84740   0.40740   0.06250   0.00000  Uiso   1.00
H179   H     0.86690   0.36090   0.22310   0.00000  Uiso   1.00
H180   H     0.32350   0.33210   0.36970   0.00000  Uiso   1.00
H181   H     0.36970   0.27640   0.30730   0.00000  Uiso   1.00
H182   H     0.56860   0.67760   0.40780   0.00000  Uiso   1.00
H183   H     0.14580   0.76530   0.50320   0.00000  Uiso   1.00
H184   H     0.23910   0.73200   0.52410   0.00000  Uiso   1.00
H185   H     0.35790   0.20210   0.03210   0.00000  Uiso   1.00
H186   H     0.59660   0.57380   0.54390   0.00000  Uiso   1.00
H187   H     0.69710   0.58600   0.78090   0.00000  Uiso   1.00
H188   H     0.37390   0.56230   0.48140   0.00000  Uiso   1.00
N189   N     0.74470   0.52790   0.00760   0.00000  Uiso   1.00
N190   N     0.53090   0.34840   0.06890   0.00000  Uiso   1.00
O191   O     0.32140   0.22570   0.78570   0.00000  Uiso   1.00
O192   O     0.36220   0.30230   0.62050   0.00000  Uiso   1.00
O193   O     0.82000   0.41380   0.61250   0.00000  Uiso   1.00
O194   O     0.77790   0.35110   0.83290   0.00000  Uiso   1.00
O195   O     0.76770   0.46370   0.28570   0.00000  Uiso   1.00
O196   O     0.92550   0.42560   0.27660   0.00000  Uiso   1.00
C197   C     0.04810   0.94670   0.76870   0.00000  Uiso   1.00
C198   C     0.04100   0.90970   0.65700   0.00000  Uiso   1.00
C199   C     0.92150   0.89330   0.77760   0.00000  Uiso   1.00
C200   C     0.97740   0.88200   0.65590   0.00000  Uiso   1.00
C201   C     0.47360   0.65680   0.88350   0.00000  Uiso   1.00
C202   C     0.48150   0.69350   0.76320   0.00000  Uiso   1.00
C203   C     0.50190   0.68780   0.59820   0.00000  Uiso   1.00
C204   C     0.45260   0.73430   0.78900   0.00000  Uiso   1.00
C205   C     0.44820   0.76700   0.66820   0.00000  Uiso   1.00
C206   C     0.49390   0.72100   0.47170   0.00000  Uiso   1.00
C207   C     0.07360   0.99710   0.11780   0.00000  Uiso   1.00
C208   C     0.46430   0.76160   0.50770   0.00000  Uiso   1.00
C209   C     0.44450   0.79490   0.37720   0.00000  Uiso   1.00
C210   C     0.36970   0.79010   0.28660   0.00000  Uiso   1.00
C211   C     0.30810   0.75760   0.33330   0.00000  Uiso   1.00
C212   C     0.23590   0.75730   0.24310   0.00000  Uiso   1.00
C213   C     0.22470   0.78610   0.13010   0.00000  Uiso   1.00
C214   C     0.27690   0.81560   0.06800   0.00000  Uiso   1.00
C215   C     0.35300   0.81880   0.14340   0.00000  Uiso   1.00
C216   C     0.41250   0.85140   0.09360   0.00000  Uiso   1.00
C217   C     0.48290   0.85390   0.16860   0.00000  Uiso   1.00
C218   C     0.09170   0.03140   0.22340   0.00000  Uiso   1.00
C219   C     0.50320   0.82500   0.30570   0.00000  Uiso   1.00
C220   C     0.54770   0.88410   0.11790   0.00000  Uiso   1.00
C221   C     0.61830   0.88580   0.17380   0.00000  Uiso   1.00
C222   C     0.64080   0.85620   0.29720   0.00000  Uiso   1.00
C223   C     0.58110   0.83170   0.38210   0.00000  Uiso   1.00
C224   C     0.73220   0.83950   0.51060   0.00000  Uiso   1.00
C225   C     0.71230   0.93460   0.25880   0.00000  Uiso   1.00
C226   C     0.38550   0.87700   0.94770   0.00000  Uiso   1.00
C227   C     0.43970   0.88280   0.81670   0.00000  Uiso   1.00
C228   C     0.42100   0.90890   0.66850   0.00000  Uiso   1.00
C229   C     0.14660   0.02680   0.35890   0.00000  Uiso   1.00
C230   C     0.34770   0.92820   0.65120   0.00000  Uiso   1.00
C231   C     0.29490   0.92480   0.78760   0.00000  Uiso   1.00
C232   C     0.31310   0.89850   0.93330   0.00000  Uiso   1.00
C233   C     0.32010   0.95060   0.51960   0.00000  Uiso   1.00
C234   C     0.58980   0.97610   0.75420   0.00000  Uiso   1.00
C235   C     0.66500   0.98910   0.85550   0.00000  Uiso   1.00
C236   C     0.71870   0.91300   0.80850   0.00000  Uiso   1.00
C237   C     0.64420   0.89910   0.70660   0.00000  Uiso   1.00
C238   C     0.13210   0.80360   0.93430   0.00000  Uiso   1.00
C239   C     0.17630   0.73160   0.47050   0.00000  Uiso   1.00
C240   C     0.10890   0.95610   0.13040   0.00000  Uiso   1.00
C241   C     0.16410   0.94890   0.25970   0.00000  Uiso   1.00
C242   C     0.18670   0.98360   0.37930   0.00000  Uiso   1.00
C243   C     0.99240   0.95680   0.88290   0.00000  Uiso   1.00
C244   C     0.92870   0.93040   0.88690   0.00000  Uiso   1.00
H245   H     0.89940   0.03520   0.74810   0.00000  Uiso   1.00
H246   H     0.91290   0.09720   0.55840   0.00000  Uiso   1.00
H247   H     0.13820   0.12890   0.77320   0.00000  Uiso   1.00
H248   H     0.95180   0.87560   0.27590   0.00000  Uiso   1.00
H249   H     0.96910   0.15080   0.05870   0.00000  Uiso   1.00
H250   H     0.06740   0.24140   0.43970   0.00000  Uiso   1.00
H251   H     0.08210   0.30230   0.21330   0.00000  Uiso   1.00
H252   H     0.98560   0.21170   0.82370   0.00000  Uiso   1.00
H253   H     0.82560   0.76680   0.95110   0.00000  Uiso   1.00
H254   H     0.75570   0.65130   0.49480   0.00000  Uiso   1.00
H255   H     0.93790   0.93280   0.21700   0.00000  Uiso   1.00
H256   H     0.02670   0.59270   0.49370   0.00000  Uiso   1.00
H257   H     0.09080   0.69420   0.00630   0.00000  Uiso   1.00
H258   H     0.76240   0.86910   0.58150   0.00000  Uiso   1.00
H259   H     0.77030   0.80750   0.52120   0.00000  Uiso   1.00
H260   H     0.82800   0.33280   0.07240   0.00000  Uiso   1.00
H261   H     0.25240   0.09340   0.33450   0.00000  Uiso   1.00
H262   H     0.23730   0.04080   0.20040   0.00000  Uiso   1.00
H263   H     0.32300   0.04450   0.35360   0.00000  Uiso   1.00
H264   H     0.49940   0.86520   0.83050   0.00000  Uiso   1.00
H265   H     0.46380   0.91360   0.55920   0.00000  Uiso   1.00
H266   H     0.83530   0.94500   0.45140   0.00000  Uiso   1.00
H267   H     0.23610   0.94070   0.77080   0.00000  Uiso   1.00
H268   H     0.27040   0.89330   0.03830   0.00000  Uiso   1.00
H269   H     0.37220   0.96510   0.42820   0.00000  Uiso   1.00
H270   H     0.53760   0.99630   0.80710   0.00000  Uiso   1.00
H271   H     0.59810   0.98410   0.60990   0.00000  Uiso   1.00
H272   H     0.67620   1.02730   0.84170   0.00000  Uiso   1.00
H273   H     0.65680   0.98020   0.99920   0.00000  Uiso   1.00
H274   H     0.71020   0.90500   0.95270   0.00000  Uiso   1.00
H275   H     0.77180   0.89340   0.75660   0.00000  Uiso   1.00
H276   H     0.65260   0.90740   0.56250   0.00000  Uiso   1.00
H277   H     0.63310   0.86090   0.72310   0.00000  Uiso   1.00
H278   H     0.17650   0.83210   0.86970   0.00000  Uiso   1.00
H279   H     0.13030   0.77640   0.80730   0.00000  Uiso   1.00
H280   H     0.93140   0.17760   0.90780   0.00000  Uiso   1.00
H281   H     0.35420   0.26530   0.00320   0.00000  Uiso   1.00
H282   H     0.26090   0.23200   0.02410   0.00000  Uiso   1.00
H283   H     0.14210   0.70210   0.53210   0.00000  Uiso   1.00
H284   H     0.90340   0.07380   0.04390   0.00000  Uiso   1.00
H285   H     0.80290   0.08600   0.28090   0.00000  Uiso   1.00
H286   H     0.12610   0.06230   0.98140   0.00000  Uiso   1.00
N287   N     0.75530   0.02790   0.50760   0.00000  Uiso   1.00
N288   N     0.96910   0.84840   0.56890   0.00000  Uiso   1.00
O289   O     0.17860   0.72570   0.28570   0.00000  Uiso   1.00
O290   O     0.13780   0.80230   0.12050   0.00000  Uiso   1.00
O291   O     0.68000   0.91380   0.11250   0.00000  Uiso   1.00
O292   O     0.72210   0.85110   0.33290   0.00000  Uiso   1.00
O293   O     0.73230   0.96370   0.78570   0.00000  Uiso   1.00
O294   O     0.57450   0.92560   0.77660   0.00000  Uiso   1.00
C295   C     0.95190   0.05330   0.76870   0.00000  Uiso   1.00
C296   C     0.95900   0.09030   0.65700   0.00000  Uiso   1.00
C297   C     0.07850   0.10670   0.77760   0.00000  Uiso   1.00
C298   C     0.02260   0.11800   0.65590   0.00000  Uiso   1.00
C299   C     0.52640   0.34320   0.88350   0.00000  Uiso   1.00
C300   C     0.51850   0.30650   0.76320   0.00000  Uiso   1.00
C301   C     0.49810   0.31220   0.59820   0.00000  Uiso   1.00
C302   C     0.54740   0.26570   0.78900   0.00000  Uiso   1.00
C303   C     0.55180   0.23300   0.66820   0.00000  Uiso   1.00
C304   C     0.50610   0.27900   0.47170   0.00000  Uiso   1.00
C305   C     0.92640   0.00290   0.11780   0.00000  Uiso   1.00
C306   C     0.53570   0.23840   0.50770   0.00000  Uiso   1.00
C307   C     0.55550   0.20510   0.37720   0.00000  Uiso   1.00
C308   C     0.63030   0.20990   0.28660   0.00000  Uiso   1.00
C309   C     0.69190   0.24240   0.33330   0.00000  Uiso   1.00
C310   C     0.76410   0.24270   0.24310   0.00000  Uiso   1.00
C311   C     0.77530   0.21390   0.13010   0.00000  Uiso   1.00
C312   C     0.72310   0.18440   0.06800   0.00000  Uiso   1.00
C313   C     0.64700   0.18120   0.14340   0.00000  Uiso   1.00
C314   C     0.58750   0.14860   0.09360   0.00000  Uiso   1.00
C315   C     0.51710   0.14610   0.16860   0.00000  Uiso   1.00
C316   C     0.90830   0.96860   0.22340   0.00000  Uiso   1.00
C317   C     0.49680   0.17500   0.30570   0.00000  Uiso   1.00
C318   C     0.45230   0.11590   0.11790   0.00000  Uiso   1.00
C319   C     0.38170   0.11420   0.17380   0.00000  Uiso   1.00
C320   C     0.35920   0.14380   0.29720   0.00000  Uiso   1.00
C321   C     0.41890   0.16830   0.38210   0.00000  Uiso   1.00
C322   C     0.26780   0.16050   0.51060   0.00000  Uiso   1.00
C323   C     0.28770   0.06540   0.25880   0.00000  Uiso   1.00
C324   C     0.61450   0.12300   0.94770   0.00000  Uiso   1.00
C325   C     0.56030   0.11720   0.81670   0.00000  Uiso   1.00
C326   C     0.57900   0.09110   0.66850   0.00000  Uiso   1.00
C327   C     0.85340   0.97320   0.35890   0.00000  Uiso   1.00
C328   C     0.65230   0.07180   0.65120   0.00000  Uiso   1.00
C329   C     0.70510   0.07520   0.78760   0.00000  Uiso   1.00
C330   C     0.68690   0.10150   0.93330   0.00000  Uiso   1.00
C331   C     0.67990   0.04940   0.51960   0.00000  Uiso   1.00
C332   C     0.41020   0.02390   0.75420   0.00000  Uiso   1.00
C333   C     0.33500   0.01090   0.85550   0.00000  Uiso   1.00
C334   C     0.28130   0.08700   0.80850   0.00000  Uiso   1.00
C335   C     0.35580   0.10090   0.70660   0.00000  Uiso   1.00
C336   C     0.86790   0.19640   0.93430   0.00000  Uiso   1.00
C337   C     0.82370   0.26840   0.47050   0.00000  Uiso   1.00
C338   C     0.89110   0.04390   0.13040   0.00000  Uiso   1.00
C339   C     0.83590   0.05110   0.25970   0.00000  Uiso   1.00
C340   C     0.81330   0.01640   0.37930   0.00000  Uiso   1.00
C341   C     0.00760   0.04320   0.88290   0.00000  Uiso   1.00
C342   C     0.07130   0.06960   0.88690   0.00000  Uiso   1.00
H343   H     0.10060   0.96480   0.74810   0.00000  Uiso   1.00
H344   H     0.08710   0.90280   0.55840   0.00000  Uiso   1.00
H345   H     0.86180   0.87110   0.77320   0.00000  Uiso   1.00
H346   H     0.04820   0.12440   0.27590   0.00000  Uiso   1.00
H347   H     0.03090   0.84920   0.05870   0.00000  Uiso   1.00
H348   H     0.93260   0.75860   0.43970   0.00000  Uiso   1.00
H349   H     0.91790   0.69770   0.21330   0.00000  Uiso   1.00
H350   H     0.01440   0.78830   0.82370   0.00000  Uiso   1.00
H351   H     0.17440   0.23320   0.95110   0.00000  Uiso   1.00
H352   H     0.24430   0.34870   0.49480   0.00000  Uiso   1.00
H353   H     0.06210   0.06720   0.21700   0.00000  Uiso   1.00
H354   H     0.97330   0.40730   0.49370   0.00000  Uiso   1.00
H355   H     0.90920   0.30580   0.00630   0.00000  Uiso   1.00
H356   H     0.23760   0.13090   0.58150   0.00000  Uiso   1.00
H357   H     0.22970   0.19250   0.52120   0.00000  Uiso   1.00
H358   H     0.17200   0.66720   0.07240   0.00000  Uiso   1.00
H359   H     0.74760   0.90660   0.33450   0.00000  Uiso   1.00
H360   H     0.76270   0.95920   0.20040   0.00000  Uiso   1.00
H361   H     0.67700   0.95550   0.35360   0.00000  Uiso   1.00
H362   H     0.50060   0.13480   0.83050   0.00000  Uiso   1.00
H363   H     0.53620   0.08640   0.55920   0.00000  Uiso   1.00
H364   H     0.16470   0.05500   0.45140   0.00000  Uiso   1.00
H365   H     0.76390   0.05930   0.77080   0.00000  Uiso   1.00
H366   H     0.72960   0.10670   0.03830   0.00000  Uiso   1.00
H367   H     0.62780   0.03490   0.42820   0.00000  Uiso   1.00
H368   H     0.46240   0.00370   0.80710   0.00000  Uiso   1.00
H369   H     0.40190   0.01590   0.60990   0.00000  Uiso   1.00
H370   H     0.32380  -0.02730   0.84170   0.00000  Uiso   1.00
H371   H     0.34320   0.01980   0.99920   0.00000  Uiso   1.00
H372   H     0.28980   0.09500   0.95270   0.00000  Uiso   1.00
H373   H     0.22820   0.10660   0.75660   0.00000  Uiso   1.00
H374   H     0.34740   0.09260   0.56250   0.00000  Uiso   1.00
H375   H     0.36690   0.13910   0.72310   0.00000  Uiso   1.00
H376   H     0.82350   0.16790   0.86970   0.00000  Uiso   1.00
H377   H     0.86970   0.22360   0.80730   0.00000  Uiso   1.00
H378   H     0.06860   0.82240   0.90780   0.00000  Uiso   1.00
H379   H     0.64580   0.73470   0.00320   0.00000  Uiso   1.00
H380   H     0.73910   0.76800   0.02410   0.00000  Uiso   1.00
H381   H     0.85790   0.29790   0.53210   0.00000  Uiso   1.00
H382   H     0.09660   0.92620   0.04390   0.00000  Uiso   1.00
H383   H     0.19710   0.91400   0.28090   0.00000  Uiso   1.00
H384   H     0.87390   0.93770   0.98140   0.00000  Uiso   1.00
N385   N     0.24470   0.97210   0.50760   0.00000  Uiso   1.00
N386   N     0.03090   0.15160   0.56890   0.00000  Uiso   1.00
O387   O     0.82140   0.27430   0.28570   0.00000  Uiso   1.00
O388   O     0.86220   0.19770   0.12050   0.00000  Uiso   1.00
O389   O     0.32000   0.08620   0.11250   0.00000  Uiso   1.00
O390   O     0.27790   0.14890   0.33290   0.00000  Uiso   1.00
O391   O     0.26770   0.03630   0.78570   0.00000  Uiso   1.00
O392   O     0.42550   0.07440   0.77660   0.00000  Uiso   1.00
C393   C     0.00000   0.00000   0.00000   0.00000  Uiso   1.00
C394   C     0.50000   0.50000   0.50000   0.00000  Uiso   1.00
loop_
_geom_bond_atom_site_label_1
_geom_bond_atom_site_label_2
_geom_bond_distance
_geom_bond_site_symmetry_2
_ccdc_geom_bond_type
C1     C2      1.386   .     S
C1     C47     1.321   .     D
C1     H147    1.047   .     S
C2     C4      1.349   .     D
C2     H148    1.106   .     S
C3     C4      1.371   .     S
C3     C48     1.377   .     D
C3     H149    1.203   .     S
C4     N92     1.196   .     S
C5     C6      1.422   .     S
C5     N288    1.432   .     D
C5     H248    1.310   .     S
C6     C8      1.305   .     S
C6     C7      1.322   1_655 D
C7     C6      1.322   1_455 D
C7     C10     1.379   1_454 S
C7     H347    1.227   .     S
C8     C9      1.334   .     D
C8     H348    1.222   .     S
C9     C12     1.271   .     S
C9     H349    1.204   .     S
C10    C7      1.379   1_656 S
C10    C12     1.318   1_556 D
C10    H350    1.218   1_655 S
C11    C22     1.325   .     D
C11    C44     1.344   .     S
C11    C394    1.543   .     S
C12    C10     1.318   1_554 D
C12    C13     1.436   1_554 S
C13    C14     1.453   .     D
C13    C12     1.436   1_556 S
C13    C23     1.437   1_655 S
C14    C15     1.457   .     S
C14    C19     1.411   .     S
C15    C16     1.406   .     D
C15    H253    1.189   .     S
C16    C17     1.223   .     S
C16    O93     1.380   .     S
C17    C18     1.324   .     D
C17    O94     1.549   .     S
C18    C19     1.417   .     S
C18    H254    1.175   .     S
C19    C20     1.440   .     D
C20    C21     1.327   .     S
C20    C30     1.422   .     S
C21    C23     1.392   1_655 S
C21    C24     1.462   1_655 D
C22    C33     1.401   .     S
C22    H157    1.162   .     S
C23    C27     1.458   .     D
C23    C13     1.437   1_455 S
C23    C21     1.392   1_455 S
C24    C25     1.272   .     S
C24    C21     1.462   1_455 D
C24    H256    1.223   .     S
C25    C26     1.338   .     D
C25    O95     1.409   .     S
C26    C27     1.401   .     S
C26    O96     1.413   .     S
C27    H257    1.228   1_556 S
C28    H62     1.143   .     S
C28    H63     1.140   .     S
C28    H358    1.142   .     S
C28    O96     1.415   1_554 S
C29    O95     1.389   .     S
C29    H163    1.169   .     S
C29    H164    1.203   .     S
C29    H165    1.123   .     S
C30    C31     1.372   .     D
C30    C36     1.383   .     S
C31    C32     1.405   .     S
C31    H68     1.140   .     S
C32    C34     1.371   .     D
C32    H69     1.117   .     S
C33    C46     1.443   .     D
C33    H168    1.130   .     S
C34    C35     1.380   .     S
C34    C37     1.291   .     S
C35    C36     1.391   .     D
C35    H71     1.107   .     S
C36    H72     1.093   .     S
C37    N189    1.427   .     D
C37    H73     1.205   1_554 S
C38    C39     1.540   .     S
C38    H74     1.139   .     S
C38    H75     1.140   .     S
C38    O98     1.510   .     S
C39    H76     1.138   .     S
C39    H77     1.141   .     S
C39    O97     1.463   .     S
C40    C41     1.540   .     S
C40    H78     1.140   .     S
C40    H79     1.139   .     S
C40    O97     1.511   .     S
C41    H80     1.141   .     S
C41    H81     1.140   .     S
C41    O98     1.512   .     S
C42    O94     1.432   .     S
C42    H82     1.228   .     S
C42    H83     1.258   .     S
C42    H182    1.226   .     S
C43    O93     1.428   .     S
C43    H87     1.142   1_556 S
C43    H379    1.141   1_556 S
C43    H380    1.141   1_556 S
C44    C45     1.380   .     D
C44    H186    1.117   .     S
C45    C46     1.421   .     S
C45    H187    1.175   .     S
C46    N189    1.431   1_556 S
C47    C48     1.328   .     S
C47    C394    1.556   .     S
C48    H188    1.197   .     S
H49    C99     1.047   .     S
H50    C100    1.106   .     S
H51    C101    1.203   .     S
H52    C201    1.310   .     S
H53    C301    1.227   .     S
H54    C302    1.222   .     S
H55    C303    1.204   .     S
H56    C304    1.218   .     S
H57    C211    1.189   .     S
H58    C214    1.175   1_556 S
H59    C120    1.162   .     S
H60    C220    1.223   1_556 S
H61    C223    1.228   .     S
H64    C322    1.142   .     S
H65    C127    1.169   .     S
H66    C127    1.203   .     S
H67    C127    1.123   .     S
H70    C131    1.130   .     S
H73    C37     1.205   1_556 S
H84    C140    1.226   .     S
H85    C337    1.141   .     S
H86    C337    1.141   .     S
H87    C43     1.142   1_554 S
H88    C142    1.117   .     S
H89    C143    1.175   .     S
H90    C146    1.197   .     S
N91    C135    1.427   .     D
N91    C144    1.431   1_554 S
N92    C201    1.432   1_554 D
O96    C28     1.415   1_556 S
C99    C100    1.386   .     S
C99    C145    1.321   .     D
C100   C102    1.349   .     D
C101   C102    1.371   .     S
C101   C146    1.377   .     D
C102   N190    1.196   .     S
C103   C104    1.422   .     S
C103   N386    1.432   .     D
C103   H346    1.310   .     S
C104   C106    1.305   .     S
C104   C105    1.322   1_455 D
C105   C104    1.322   1_655 D
C105   C108    1.379   1_654 S
C105   H249    1.227   .     S
C106   C107    1.334   .     D
C106   H250    1.222   .     S
C107   C110    1.271   .     S
C107   H251    1.204   .     S
C108   C105    1.379   1_456 S
C108   C110    1.318   1_556 D
C108   H252    1.218   1_455 S
C109   C120    1.325   .     D
C109   C142    1.344   .     S
C109   C394    1.543   .     S
C110   C108    1.318   1_554 D
C110   C111    1.436   1_554 S
C111   C112    1.453   .     D
C111   C110    1.436   1_556 S
C111   C121    1.437   1_455 S
C112   C113    1.457   .     S
C112   C117    1.411   .     S
C113   C114    1.406   .     D
C113   H351    1.189   .     S
C114   C115    1.223   .     S
C114   O191    1.380   .     S
C115   C116    1.324   .     D
C115   O192    1.549   .     S
C116   C117    1.417   .     S
C116   H352    1.175   .     S
C117   C118    1.440   .     D
C118   C119    1.327   .     S
C118   C128    1.422   .     S
C119   C121    1.392   1_455 S
C119   C122    1.462   1_455 D
C120   C131    1.401   .     S
C121   C125    1.458   .     D
C121   C111    1.437   1_655 S
C121   C119    1.392   1_655 S
C122   C123    1.272   .     S
C122   C119    1.462   1_655 D
C122   H354    1.223   .     S
C123   C124    1.338   .     D
C123   O193    1.409   .     S
C124   C125    1.401   .     S
C124   O194    1.413   .     S
C125   H355    1.228   1_556 S
C126   H160    1.143   .     S
C126   H161    1.140   .     S
C126   H260    1.142   .     S
C126   O194    1.415   1_554 S
C127   O193    1.389   .     S
C128   C129    1.372   .     D
C128   C134    1.383   .     S
C129   C130    1.405   .     S
C129   H166    1.140   .     S
C130   C132    1.371   .     D
C130   H167    1.117   .     S
C131   C144    1.443   .     D
C132   C133    1.380   .     S
C132   C135    1.291   .     S
C133   C134    1.391   .     D
C133   H169    1.107   .     S
C134   H170    1.093   .     S
C135   H171    1.205   1_554 S
C136   C137    1.540   .     S
C136   H172    1.139   .     S
C136   H173    1.140   .     S
C136   O196    1.510   .     S
C137   H174    1.138   .     S
C137   H175    1.141   .     S
C137   O195    1.463   .     S
C138   C139    1.540   .     S
C138   H176    1.140   .     S
C138   H177    1.139   .     S
C138   O195    1.511   .     S
C139   H178    1.141   .     S
C139   H179    1.140   .     S
C139   O196    1.512   .     S
C140   O192    1.432   .     S
C140   H180    1.228   .     S
C140   H181    1.258   .     S
C141   O191    1.428   .     S
C141   H185    1.142   1_556 S
C141   H281    1.141   1_556 S
C141   H282    1.141   1_556 S
C142   C143    1.380   .     D
C143   C144    1.421   .     S
C144   N91     1.431   1_556 S
C145   C146    1.328   .     S
C145   C394    1.556   .     S
H150   C299    1.310   .     S
H151   C203    1.227   .     S
H152   C204    1.222   .     S
H153   C205    1.204   .     S
H154   C206    1.218   .     S
H155   C309    1.189   .     S
H156   C312    1.175   1_556 S
H158   C318    1.223   1_556 S
H159   C321    1.228   .     S
H162   C224    1.142   .     S
H171   C135    1.205   1_556 S
H183   C239    1.141   .     S
H184   C239    1.141   .     S
H185   C141    1.142   1_554 S
N189   C46     1.431   1_554 S
N190   C299    1.432   1_554 D
O194   C126    1.415   1_556 S
C197   C198    1.386   .     S
C197   H343    1.047   .     S
C197   C243    1.321   1_455 D
C198   H344    1.106   .     S
C198   C200    1.349   1_455 D
C199   C200    1.371   .     S
C199   C244    1.377   .     D
C199   H345    1.203   .     S
C200   N288    1.196   .     S
C200   C198    1.349   1_655 D
C201   C202    1.422   .     S
C201   N92     1.432   1_556 D
C202   C203    1.322   .     S
C202   C204    1.305   .     D
C203   C206    1.379   .     D
C204   C205    1.334   .     S
C205   C208    1.271   .     D
C206   C208    1.318   .     S
C207   C240    1.344   .     D
C207   C218    1.325   1_565 S
C207   C393    1.543   1_565 S
C208   C209    1.436   .     S
C209   C210    1.453   .     D
C209   C219    1.437   .     S
C210   C211    1.457   .     S
C210   C215    1.411   .     S
C211   C212    1.406   .     D
C212   C213    1.223   .     S
C212   O289    1.380   .     S
C213   C214    1.324   .     D
C213   O290    1.549   .     S
C214   C215    1.417   .     S
C214   H58     1.175   1_554 S
C215   C216    1.440   .     D
C216   C217    1.327   .     S
C216   C226    1.422   1_554 S
C217   C219    1.392   .     D
C217   C220    1.462   .     S
C218   C229    1.401   .     D
C218   H353    1.162   .     S
C218   C207    1.325   1_545 S
C219   C223    1.458   .     S
C220   C221    1.272   .     D
C220   H60     1.223   1_554 S
C221   C222    1.338   .     S
C221   O291    1.409   .     S
C222   C223    1.401   .     D
C222   O292    1.413   .     S
C224   H258    1.143   .     S
C224   H259    1.140   .     S
C224   O292    1.415   .     S
C225   O291    1.389   .     S
C225   H359    1.169   .     S
C225   H360    1.203   .     S
C225   H361    1.123   .     S
C226   C227    1.372   .     D
C226   C232    1.383   .     S
C226   C216    1.422   1_556 S
C227   C228    1.405   .     S
C227   H264    1.140   .     S
C228   C230    1.371   .     D
C228   H265    1.117   .     S
C229   H364    1.130   .     S
C229   C242    1.443   1_545 S
C230   C231    1.380   .     S
C230   C233    1.291   .     S
C231   C232    1.391   .     D
C231   H267    1.107   .     S
C232   H268    1.093   1_556 S
C233   H269    1.205   .     S
C233   N385    1.427   .     D
C234   C235    1.540   .     S
C234   H270    1.139   .     S
C234   H271    1.140   .     S
C234   O294    1.510   .     S
C235   H272    1.138   .     S
C235   H273    1.141   .     S
C235   O293    1.463   .     S
C236   C237    1.540   .     S
C236   H274    1.140   .     S
C236   H275    1.139   .     S
C236   O293    1.511   .     S
C237   H276    1.141   .     S
C237   H277    1.140   .     S
C237   O294    1.512   .     S
C238   O290    1.432   1_556 S
C238   H278    1.228   .     S
C238   H279    1.258   .     S
C238   H378    1.226   .     S
C239   H283    1.142   .     S
C239   O289    1.428   .     S
C240   C241    1.380   .     S
C240   H382    1.117   .     S
C241   C242    1.421   .     D
C241   H383    1.175   .     S
C242   N385    1.431   .     S
C242   C229    1.443   1_565 S
C243   C244    1.328   .     S
C243   C197    1.321   1_655 D
C243   C393    1.556   1_666 S
C244   H384    1.197   .     S
H245   C295    1.047   .     S
H246   C296    1.106   .     S
H247   C297    1.203   .     S
H252   C108    1.218   1_655 S
H255   C316    1.162   .     S
H257   C27     1.228   1_554 S
H261   C323    1.169   .     S
H262   C323    1.203   .     S
H263   C323    1.123   .     S
H266   C327    1.130   .     S
H268   C232    1.093   1_554 S
H280   C336    1.226   .     S
H281   C141    1.141   1_554 S
H282   C141    1.141   1_554 S
H284   C338    1.117   .     S
H285   C339    1.175   .     S
H286   C342    1.197   .     S
N287   C331    1.427   .     D
N287   C340    1.431   .     S
O290   C238    1.432   1_554 S
C295   C296    1.386   .     S
C295   C341    1.321   1_655 D
C296   C298    1.349   1_655 D
C297   C298    1.371   .     S
C297   C342    1.377   .     D
C298   N386    1.196   .     S
C298   C296    1.349   1_455 D
C299   C300    1.422   .     S
C299   N190    1.432   1_556 D
C300   C301    1.322   .     S
C300   C302    1.305   .     D
C301   C304    1.379   .     D
C302   C303    1.334   .     S
C303   C306    1.271   .     D
C304   C306    1.318   .     S
C305   C338    1.344   .     D
C305   C316    1.325   1_545 S
C305   C393    1.543   1_655 S
C306   C307    1.436   .     S
C307   C308    1.453   .     D
C307   C317    1.437   .     S
C308   C309    1.457   .     S
C308   C313    1.411   .     S
C309   C310    1.406   .     D
C310   C311    1.223   .     S
C310   O387    1.380   .     S
C311   C312    1.324   .     D
C311   O388    1.549   .     S
C312   C313    1.417   .     S
C312   H156    1.175   1_554 S
C313   C314    1.440   .     D
C314   C315    1.327   .     S
C314   C324    1.422   1_554 S
C315   C317    1.392   .     D
C315   C318    1.462   .     S
C316   C327    1.401   .     D
C316   C305    1.325   1_565 S
C317   C321    1.458   .     S
C318   C319    1.272   .     D
C318   H158    1.223   1_554 S
C319   C320    1.338   .     S
C319   O389    1.409   .     S
C320   C321    1.401   .     D
C320   O390    1.413   .     S
C322   H356    1.143   .     S
C322   H357    1.140   .     S
C322   O390    1.415   .     S
C323   O389    1.389   .     S
C324   C325    1.372   .     S
C324   C330    1.383   .     D
C324   C314    1.422   1_556 S
C325   C326    1.405   .     D
C325   H362    1.140   .     S
C326   C328    1.371   .     S
C326   H363    1.117   .     S
C327   C340    1.443   1_565 S
C328   C329    1.380   .     D
C328   C331    1.291   .     S
C329   C330    1.391   .     S
C329   H365    1.107   .     S
C330   H366    1.093   1_556 S
C331   H367    1.205   .     S
C332   C333    1.540   .     S
C332   H368    1.139   .     S
C332   H369    1.140   .     S
C332   O392    1.510   .     S
C333   H370    1.138   .     S
C333   H371    1.141   .     S
C333   O391    1.463   .     S
C334   C335    1.540   .     S
C334   H372    1.140   .     S
C334   H373    1.139   .     S
C334   O391    1.511   .     S
C335   H374    1.141   .     S
C335   H375    1.140   .     S
C335   O392    1.512   .     S
C336   O388    1.432   1_556 S
C336   H376    1.228   .     S
C336   H377    1.258   .     S
C337   H381    1.142   .     S
C337   O387    1.428   .     S
C338   C339    1.380   .     S
C339   C340    1.421   .     D
C340   C327    1.443   1_545 S
C341   C342    1.328   .     S
C341   C295    1.321   1_455 D
C341   C393    1.556   1_556 S
H350   C10     1.218   1_455 S
H355   C125    1.228   1_554 S
H366   C330    1.093   1_554 S
H379   C43     1.141   1_554 S
H380   C43     1.141   1_554 S
O388   C336    1.432   1_554 S
C393   C207    1.543   1_545 S
C393   C243    1.556   1_444 S
C393   C305    1.543   1_455 S
C393   C341    1.556   1_554 S
