data_1180
_audit_creation_date              2023-09-08
_audit_creation_method            'Materials Studio'
_symmetry_space_group_name_H-M    'P1'
_symmetry_Int_Tables_number       1
_symmetry_cell_setting            triclinic
loop_
_symmetry_equiv_pos_as_xyz
  x,y,z
_cell_length_a                    28.8000
_cell_length_b                    28.8000
_cell_length_c                    7.2000
_cell_angle_alpha                 90.0000
_cell_angle_beta                  90.0000
_cell_angle_gamma                 90.0000
loop_
_atom_site_label
_atom_site_type_symbol
_atom_site_fract_x
_atom_site_fract_y
_atom_site_fract_z
_atom_site_U_iso_or_equiv
_atom_site_adp_type
_atom_site_occupancy
C1     C     0.78480   0.22820   0.37050   0.00000  Uiso   1.00
C2     C     0.81830   0.20520   0.48300   0.00000  Uiso   1.00
C3     C     0.82240   0.21740   0.66690   0.00000  Uiso   1.00
C4     C     0.84840   0.17090   0.41780   0.00000  Uiso   1.00
C5     C     0.85780   0.19940   0.77780   0.00000  Uiso   1.00
C6     C     0.88600   0.15530   0.52650   0.00000  Uiso   1.00
C7     C     0.88910   0.16750   0.70990   0.00000  Uiso   1.00
C8     C     0.91750   0.13980   0.83760   0.00000  Uiso   1.00
C9     C     0.07680   0.91750   0.10740   0.00000  Uiso   1.00
C10    C     0.09830   0.93350   0.26770   0.00000  Uiso   1.00
C11    C     0.07320   0.95910   0.39660   0.00000  Uiso   1.00
C12    C     0.74080   0.20510   0.34230   0.00000  Uiso   1.00
C13    C     0.02990   0.92680   0.08260   0.00000  Uiso   1.00
C14    C     0.00510   0.95060   0.21560   0.00000  Uiso   1.00
C15    C     0.02800   0.97160   0.35880   0.00000  Uiso   1.00
C16    C     0.84210   0.50150   0.48850   0.00000  Uiso   1.00
C17    C     0.80070   0.50640   0.38880   0.00000  Uiso   1.00
C18    C     0.80170   0.50710   0.19420   0.00000  Uiso   1.00
C19    C     0.52730   0.27620   0.16410   0.00000  Uiso   1.00
C20    C     0.52450   0.32220   0.10400   0.00000  Uiso   1.00
C21    C     0.51760   0.35790   0.23320   0.00000  Uiso   1.00
C22    C     0.70660   0.22750   0.22180   0.00000  Uiso   1.00
C23    C     0.89070   0.82800   0.05960   0.00000  Uiso   1.00
C24    C     0.90160   0.78960  -0.05100   0.00000  Uiso   1.00
C25    C     0.90240   0.74510   0.02720   0.00000  Uiso   1.00
C26    C     0.07570   0.48620   0.05750   0.00000  Uiso   1.00
C27    C     0.04980   0.44570   0.08240   0.00000  Uiso   1.00
C28    C     0.06850   0.40850   0.18270   0.00000  Uiso   1.00
C29    C     0.66380   0.20090   0.19170   0.00000  Uiso   1.00
C30    C     0.65160   0.16300   0.29450   0.00000  Uiso   1.00
C31    C     0.68440   0.14210   0.41420   0.00000  Uiso   1.00
C32    C     0.72730   0.16320   0.44270   0.00000  Uiso   1.00
C33    C     0.92390   0.33550   0.34110   0.00000  Uiso   1.00
C34    C     0.69860   0.07260   0.60930   0.00000  Uiso   1.00
H35    H     0.79657   0.24268   0.73149   0.00000  Uiso   1.00
H36    H     0.84278   0.15503   0.27451   0.00000  Uiso   1.00
H37    H     0.86131   0.21106   0.92845   0.00000  Uiso   1.00
H38    H     0.91397   0.13244   0.46178   0.00000  Uiso   1.00
H39    H     0.95699   0.14129   0.82852   0.00000  Uiso   1.00
H40    H     0.13655   0.92561   0.29344   0.00000  Uiso   1.00
H41    H     0.08999   0.96975   0.53350   0.00000  Uiso   1.00
H42    H     0.01150   0.91470   0.95102   0.00000  Uiso   1.00
H43    H     0.96565   0.95269   0.20577   0.00000  Uiso   1.00
H44    H     0.87266   0.51148   0.39614   0.00000  Uiso   1.00
H45    H     0.84611   0.46389   0.53515   0.00000  Uiso   1.00
H46    H     0.84127   0.52514   0.61546   0.00000  Uiso   1.00
H47    H     0.78264   0.53921   0.14169   0.00000  Uiso   1.00
H48    H     0.78400   0.47459   0.13808   0.00000  Uiso   1.00
H49    H     0.83927   0.50807   0.14455   0.00000  Uiso   1.00
H50    H     0.51320   0.25224   0.05140   0.00000  Uiso   1.00
H51    H     0.50590   0.27178   0.29613   0.00000  Uiso   1.00
H52    H     0.56508   0.26702   0.19384   0.00000  Uiso   1.00
H53    H     0.49703   0.34400   0.35653   0.00000  Uiso   1.00
H54    H     0.49748   0.38742   0.16498   0.00000  Uiso   1.00
H55    H     0.55267   0.37133   0.28324   0.00000  Uiso   1.00
H56    H     0.86842   0.81635   0.18188   0.00000  Uiso   1.00
H57    H     0.87072   0.85452  -0.02656   0.00000  Uiso   1.00
H58    H     0.92408   0.84443   0.11364   0.00000  Uiso   1.00
H59    H     0.88534   0.71946  -0.07226   0.00000  Uiso   1.00
H60    H     0.88261   0.74539   0.16433   0.00000  Uiso   1.00
H61    H     0.93990   0.73422   0.05321   0.00000  Uiso   1.00
H62    H     0.07941   0.49367  -0.09728   0.00000  Uiso   1.00
H63    H     0.11158   0.48151   0.12165   0.00000  Uiso   1.00
H64    H     0.05725   0.51649   0.12780   0.00000  Uiso   1.00
H65    H     0.09242   0.38745   0.08874   0.00000  Uiso   1.00
H66    H     0.03918   0.38536   0.23516   0.00000  Uiso   1.00
H67    H     0.08913   0.42239   0.30588   0.00000  Uiso   1.00
H68    H     0.86137   0.28841   0.42276   0.00000  Uiso   1.00
H69    H     0.75288   0.14777   0.54658   0.00000  Uiso   1.00
H70    H     0.55999   0.19609   0.22928   0.00000  Uiso   1.00
H71    H     0.54760   0.13873   0.12084   0.00000  Uiso   1.00
H72    H     0.59506   0.17592   0.02763   0.00000  Uiso   1.00
H73    H     0.73534   0.06979   0.55147   0.00000  Uiso   1.00
H74    H     0.68382   0.03631   0.63173   0.00000  Uiso   1.00
H75    H     0.69944   0.09198   0.74732   0.00000  Uiso   1.00
N76    N     0.10110   0.88950   0.97530   0.00000  Uiso   1.00
O77    O     0.67200   0.09560   0.48960   0.00000  Uiso   1.00
O78    O     0.89160   0.35720   0.21650   0.00000  Uiso   1.00
O79    O     0.76200   0.51350   0.47700   0.00000  Uiso   1.00
O80    O     0.52510   0.33140  -0.07280   0.00000  Uiso   1.00
O81    O     0.91390   0.79580  -0.22290   0.00000  Uiso   1.00
O82    O     0.00960   0.44150   0.00160   0.00000  Uiso   1.00
C83    C     0.21520   0.77180   0.37050   0.00000  Uiso   1.00
C84    C     0.18170   0.79480   0.48300   0.00000  Uiso   1.00
C85    C     0.17760   0.78260   0.66690   0.00000  Uiso   1.00
C86    C     0.15160   0.82910   0.41780   0.00000  Uiso   1.00
C87    C     0.14220   0.80060   0.77780   0.00000  Uiso   1.00
C88    C     0.11400   0.84470   0.52650   0.00000  Uiso   1.00
C89    C     0.11090   0.83250   0.70990   0.00000  Uiso   1.00
C90    C     0.08250   0.86020   0.83760   0.00000  Uiso   1.00
C91    C     0.92320   0.08250   0.10740   0.00000  Uiso   1.00
C92    C     0.90170   0.06650   0.26770   0.00000  Uiso   1.00
C93    C     0.92680   0.04090   0.39660   0.00000  Uiso   1.00
C94    C     0.25920   0.79490   0.34230   0.00000  Uiso   1.00
C95    C     0.97010   0.07320   0.08260   0.00000  Uiso   1.00
C96    C     0.99490   0.04940   0.21560   0.00000  Uiso   1.00
C97    C     0.97200   0.02840   0.35880   0.00000  Uiso   1.00
C98    C     0.15790   0.49850   0.48850   0.00000  Uiso   1.00
C99    C     0.19930   0.49360   0.38880   0.00000  Uiso   1.00
C100   C     0.19830   0.49290   0.19420   0.00000  Uiso   1.00
C101   C     0.47270   0.72380   0.16410   0.00000  Uiso   1.00
C102   C     0.47550   0.67780   0.10400   0.00000  Uiso   1.00
C103   C     0.48240   0.64210   0.23320   0.00000  Uiso   1.00
C104   C     0.29340   0.77250   0.22180   0.00000  Uiso   1.00
C105   C     0.10930   0.17200   0.05960   0.00000  Uiso   1.00
C106   C     0.09840   0.21040  -0.05100   0.00000  Uiso   1.00
C107   C     0.09760   0.25490   0.02720   0.00000  Uiso   1.00
C108   C     0.92430   0.51380   0.05750   0.00000  Uiso   1.00
C109   C     0.95020   0.55430   0.08240   0.00000  Uiso   1.00
C110   C     0.93150   0.59150   0.18270   0.00000  Uiso   1.00
C111   C     0.33620   0.79910   0.19170   0.00000  Uiso   1.00
C112   C     0.34840   0.83700   0.29450   0.00000  Uiso   1.00
C113   C     0.31560   0.85790   0.41420   0.00000  Uiso   1.00
C114   C     0.27270   0.83680   0.44270   0.00000  Uiso   1.00
C115   C     0.07610   0.66450   0.34110   0.00000  Uiso   1.00
C116   C     0.30140   0.92740   0.60930   0.00000  Uiso   1.00
H117   H     0.20343   0.75732   0.73149   0.00000  Uiso   1.00
H118   H     0.15722   0.84497   0.27451   0.00000  Uiso   1.00
H119   H     0.13869   0.78894   0.92845   0.00000  Uiso   1.00
H120   H     0.08603   0.86756   0.46178   0.00000  Uiso   1.00
H121   H     0.04301   0.85871   0.82852   0.00000  Uiso   1.00
H122   H     0.86345   0.07439   0.29344   0.00000  Uiso   1.00
H123   H     0.91001   0.03025   0.53350   0.00000  Uiso   1.00
H124   H     0.98850   0.08530   0.95102   0.00000  Uiso   1.00
H125   H     0.03435   0.04731   0.20577   0.00000  Uiso   1.00
H126   H     0.14658   0.46319   0.54390   0.00000  Uiso   1.00
H127   H     0.12979   0.51296   0.39321   0.00000  Uiso   1.00
H128   H     0.16359   0.52334   0.60964   0.00000  Uiso   1.00
H129   H     0.21604   0.46002   0.14184   0.00000  Uiso   1.00
H130   H     0.21733   0.52464   0.13801   0.00000  Uiso   1.00
H131   H     0.16072   0.49347   0.14446   0.00000  Uiso   1.00
H132   H     0.45237   0.72538   0.29981   0.00000  Uiso   1.00
H133   H     0.45426   0.74555   0.05427   0.00000  Uiso   1.00
H134   H     0.50918   0.73803   0.18729   0.00000  Uiso   1.00
H135   H     0.50831   0.61595   0.17494   0.00000  Uiso   1.00
H136   H     0.44796   0.62396   0.26188   0.00000  Uiso   1.00
H137   H     0.49655   0.65733   0.36793   0.00000  Uiso   1.00
H138   H     0.12709   0.14442  -0.02895   0.00000  Uiso   1.00
H139   H     0.07609   0.15706   0.12167   0.00000  Uiso   1.00
H140   H     0.13361   0.18321   0.17623   0.00000  Uiso   1.00
H141   H     0.07852   0.25374   0.16585   0.00000  Uiso   1.00
H142   H     0.07893   0.27975  -0.07086   0.00000  Uiso   1.00
H143   H     0.13470   0.26744   0.05029   0.00000  Uiso   1.00
H144   H     0.94190   0.48384   0.13330   0.00000  Uiso   1.00
H145   H     0.92197   0.50544  -0.09698   0.00000  Uiso   1.00
H146   H     0.88788   0.51906   0.11584   0.00000  Uiso   1.00
H147   H     0.90702   0.57766   0.29412   0.00000  Uiso   1.00
H148   H     0.91148   0.61523   0.08448   0.00000  Uiso   1.00
H149   H     0.96077   0.61191   0.25119   0.00000  Uiso   1.00
H150   H     0.13863   0.71159   0.42276   0.00000  Uiso   1.00
H151   H     0.24712   0.85223   0.54658   0.00000  Uiso   1.00
H152   H     0.46068   0.84701   0.19494   0.00000  Uiso   1.00
H153   H     0.41550   0.84609   0.01009   0.00000  Uiso   1.00
H154   H     0.42117   0.79616   0.17272   0.00000  Uiso   1.00
H155   H     0.28058   0.90163   0.69592   0.00000  Uiso   1.00
H156   H     0.27660   0.95103   0.52993   0.00000  Uiso   1.00
H157   H     0.32422   0.94926   0.70466   0.00000  Uiso   1.00
N158   N     0.89890   0.11050   0.97530   0.00000  Uiso   1.00
O159   O     0.32800   0.90440   0.48960   0.00000  Uiso   1.00
O160   O     0.10840   0.64280   0.21650   0.00000  Uiso   1.00
O161   O     0.23800   0.48650   0.47700   0.00000  Uiso   1.00
O162   O     0.47490   0.66860  -0.07280   0.00000  Uiso   1.00
O163   O     0.08610   0.20420  -0.22290   0.00000  Uiso   1.00
O164   O     0.99040   0.55850   0.00160   0.00000  Uiso   1.00
C165   C     0.27180   0.28480   0.87050   0.00000  Uiso   1.00
C166   C     0.29480   0.31830   0.98300   0.00000  Uiso   1.00
C167   C     0.28260   0.32240   0.16690   0.00000  Uiso   1.00
C168   C     0.32910   0.34840   0.91780   0.00000  Uiso   1.00
C169   C     0.30060   0.35780   0.27780   0.00000  Uiso   1.00
C170   C     0.34470   0.38600   0.02650   0.00000  Uiso   1.00
C171   C     0.33250   0.38910   0.20990   0.00000  Uiso   1.00
C172   C     0.36020   0.41750   0.33760   0.00000  Uiso   1.00
C173   C     0.58250   0.57680   0.60740   0.00000  Uiso   1.00
C174   C     0.56650   0.59830   0.76770   0.00000  Uiso   1.00
C175   C     0.54090   0.57320   0.89660   0.00000  Uiso   1.00
C176   C     0.29490   0.24080   0.84230   0.00000  Uiso   1.00
C177   C     0.57320   0.52990   0.58260   0.00000  Uiso   1.00
C178   C     0.54940   0.50510   0.71560   0.00000  Uiso   1.00
C179   C     0.52840   0.52800   0.85880   0.00000  Uiso   1.00
C180   C     0.99850   0.34210   0.98850   0.00000  Uiso   1.00
C181   C     0.99360   0.30070   0.88880   0.00000  Uiso   1.00
C182   C     0.99290   0.30170   0.69420   0.00000  Uiso   1.00
C183   C     0.22380   0.02730   0.66410   0.00000  Uiso   1.00
C184   C     0.17780   0.02450   0.60400   0.00000  Uiso   1.00
C185   C     0.14210   0.01760   0.73320   0.00000  Uiso   1.00
C186   C     0.27250   0.20660   0.72180   0.00000  Uiso   1.00
C187   C     0.67200   0.39070   0.55960   0.00000  Uiso   1.00
C188   C     0.71040   0.40160   0.44900   0.00000  Uiso   1.00
C189   C     0.75490   0.40240   0.52720   0.00000  Uiso   1.00
C190   C     0.01380   0.57570   0.55750   0.00000  Uiso   1.00
C191   C     0.05430   0.54980   0.58240   0.00000  Uiso   1.00
C192   C     0.09150   0.56850   0.68270   0.00000  Uiso   1.00
C193   C     0.29910   0.16380   0.69170   0.00000  Uiso   1.00
C194   C     0.33700   0.15160   0.79450   0.00000  Uiso   1.00
C195   C     0.35790   0.18440   0.91420   0.00000  Uiso   1.00
C196   C     0.33680   0.22730   0.94270   0.00000  Uiso   1.00
C197   C     0.16450   0.42390   0.84110   0.00000  Uiso   1.00
C198   C     0.42740   0.19860   0.10930   0.00000  Uiso   1.00
H199   H     0.25732   0.29657   0.23149   0.00000  Uiso   1.00
H200   H     0.34497   0.34278   0.77451   0.00000  Uiso   1.00
H201   H     0.28894   0.36131   0.42845   0.00000  Uiso   1.00
H202   H     0.36756   0.41397   0.96178   0.00000  Uiso   1.00
H203   H     0.35871   0.45699   0.32852   0.00000  Uiso   1.00
H204   H     0.57439   0.63655   0.79344   0.00000  Uiso   1.00
H205   H     0.53025   0.58999   0.03350   0.00000  Uiso   1.00
H206   H     0.58530   0.51150   0.45102   0.00000  Uiso   1.00
H207   H     0.54731   0.46565   0.70577   0.00000  Uiso   1.00
H208   H     1.01758   0.36871   0.89955   0.00000  Uiso   1.00
H209   H     1.01920   0.33524   1.12065   0.00000  Uiso   1.00
H210   H     0.96271   0.35609   1.02655   0.00000  Uiso   1.00
H211   H     1.01088   0.26939   0.63771   0.00000  Uiso   1.00
H212   H     1.01185   0.33401   0.64297   0.00000  Uiso   1.00
H213   H     0.95540   0.30252   0.64363   0.00000  Uiso   1.00
H214   H     0.24681   0.03890   0.54392   0.00000  Uiso   1.00
H215   H     0.23569  -0.00823   0.71520   0.00000  Uiso   1.00
H216   H     0.22646   0.05351   0.78226   0.00000  Uiso   1.00
H217   H     0.14048  -0.02069   0.77280   0.00000  Uiso   1.00
H218   H     0.10757   0.02857   0.66940   0.00000  Uiso   1.00
H219   H     0.14919   0.03930   0.86255   0.00000  Uiso   1.00
H220   H     0.67340   0.35244   0.59975   0.00000  Uiso   1.00
H221   H     0.63873   0.39782   0.47869   0.00000  Uiso   1.00
H222   H     0.67257   0.41295   0.69052   0.00000  Uiso   1.00
H223   H     0.78111   0.41397   0.41793   0.00000  Uiso   1.00
H224   H     0.76433   0.36616   0.57849   0.00000  Uiso   1.00
H225   H     0.75550   0.42773   0.64886   0.00000  Uiso   1.00
H226   H    -0.01761   0.55356   0.59548   0.00000  Uiso   1.00
H227   H     0.01104   0.58698   0.40614   0.00000  Uiso   1.00
H228   H     0.01490   0.60771   0.65055   0.00000  Uiso   1.00
H229   H     0.11584   0.58754   0.58376   0.00000  Uiso   1.00
H230   H     0.11123   0.53932   0.75496   0.00000  Uiso   1.00
H231   H     0.07773   0.59386   0.79107   0.00000  Uiso   1.00
H232   H     0.21159   0.36137   0.92276   0.00000  Uiso   1.00
H233   H     0.35223   0.25288   0.04658   0.00000  Uiso   1.00
H234   H     0.29616   0.07904   0.67188   0.00000  Uiso   1.00
H235   H     0.34678   0.03929   0.69568   0.00000  Uiso   1.00
H236   H     0.34632   0.08432   0.51019   0.00000  Uiso   1.00
H237   H     0.45097   0.22345   0.02992   0.00000  Uiso   1.00
H238   H     0.44932   0.17579   0.20444   0.00000  Uiso   1.00
H239   H     0.40163   0.21936   0.19615   0.00000  Uiso   1.00
N240   N     0.61050   0.60110   0.47530   0.00000  Uiso   1.00
O241   O     0.40440   0.17200   0.98960   0.00000  Uiso   1.00
O242   O     0.14280   0.39160   0.71650   0.00000  Uiso   1.00
O243   O     0.98650   0.26200   0.97700   0.00000  Uiso   1.00
O244   O     0.16860   0.02510   0.42720   0.00000  Uiso   1.00
O245   O     0.70420   0.41390   0.27710   0.00000  Uiso   1.00
O246   O     0.05850   0.50960   0.50160   0.00000  Uiso   1.00
C247   C     0.72820   0.71520   0.87050   0.00000  Uiso   1.00
C248   C     0.70520   0.68170   0.98300   0.00000  Uiso   1.00
C249   C     0.71740   0.67760   0.16690   0.00000  Uiso   1.00
C250   C     0.67090   0.65160   0.91780   0.00000  Uiso   1.00
C251   C     0.69940   0.64220   0.27780   0.00000  Uiso   1.00
C252   C     0.65530   0.61400   0.02650   0.00000  Uiso   1.00
C253   C     0.66750   0.61090   0.20990   0.00000  Uiso   1.00
C254   C     0.63980   0.58250   0.33760   0.00000  Uiso   1.00
C255   C     0.41750   0.42320   0.60740   0.00000  Uiso   1.00
C256   C     0.43350   0.40170   0.76770   0.00000  Uiso   1.00
C257   C     0.45910   0.42680   0.89660   0.00000  Uiso   1.00
C258   C     0.70510   0.75920   0.84230   0.00000  Uiso   1.00
C259   C     0.42680   0.47010   0.58260   0.00000  Uiso   1.00
C260   C     0.45060   0.49490   0.71560   0.00000  Uiso   1.00
C261   C     0.47160   0.47200   0.85880   0.00000  Uiso   1.00
C262   C     0.00150   0.65790   0.98850   0.00000  Uiso   1.00
C263   C     0.00640   0.69930   0.88880   0.00000  Uiso   1.00
C264   C     0.00710   0.69830   0.69420   0.00000  Uiso   1.00
C265   C     0.77620   0.97270   0.66410   0.00000  Uiso   1.00
C266   C     0.82220   0.97550   0.60400   0.00000  Uiso   1.00
C267   C     0.85790   0.98240   0.73320   0.00000  Uiso   1.00
C268   C     0.72750   0.79340   0.72180   0.00000  Uiso   1.00
C269   C     0.32800   0.60930   0.55960   0.00000  Uiso   1.00
C270   C     0.28960   0.59840   0.44900   0.00000  Uiso   1.00
C271   C     0.24510   0.59760   0.52720   0.00000  Uiso   1.00
C272   C     0.98620   0.42430   0.55750   0.00000  Uiso   1.00
C273   C     0.94570   0.45020   0.58240   0.00000  Uiso   1.00
C274   C     0.90850   0.43150   0.68270   0.00000  Uiso   1.00
C275   C     0.70090   0.83620   0.69170   0.00000  Uiso   1.00
C276   C     0.66300   0.84840   0.79450   0.00000  Uiso   1.00
C277   C     0.64210   0.81560   0.91420   0.00000  Uiso   1.00
C278   C     0.66320   0.77270   0.94270   0.00000  Uiso   1.00
C279   C     0.83550   0.57610   0.84110   0.00000  Uiso   1.00
C280   C     0.57260   0.80140   0.10930   0.00000  Uiso   1.00
H281   H     0.74268   0.70343   0.23149   0.00000  Uiso   1.00
H282   H     0.65503   0.65722   0.77451   0.00000  Uiso   1.00
H283   H     0.71106   0.63869   0.42845   0.00000  Uiso   1.00
H284   H     0.63244   0.58603   0.96178   0.00000  Uiso   1.00
H285   H     0.64129   0.54301   0.32852   0.00000  Uiso   1.00
H286   H     0.42561   0.36345   0.79344   0.00000  Uiso   1.00
H287   H     0.46975   0.41001   0.03350   0.00000  Uiso   1.00
H288   H     0.41470   0.48850   0.45102   0.00000  Uiso   1.00
H289   H     0.45269   0.53435   0.70577   0.00000  Uiso   1.00
H290   H     0.02947   0.65593   1.10027   0.00000  Uiso   1.00
H291   H     0.00527   0.62714   0.88997   0.00000  Uiso   1.00
H292   H    -0.03423   0.65689   1.05651   0.00000  Uiso   1.00
H293   H    -0.01181   0.73008   0.63770   0.00000  Uiso   1.00
H294   H    -0.01092   0.66546   0.64307   0.00000  Uiso   1.00
H295   H     0.04460   0.69855   0.64354   0.00000  Uiso   1.00
H296   H     0.76849   0.93581   0.71247   0.00000  Uiso   1.00
H297   H     0.75197   0.98214   0.54471   0.00000  Uiso   1.00
H298   H     0.77057   0.99787   0.78420   0.00000  Uiso   1.00
H299   H     0.88846   1.00026   0.66231   0.00000  Uiso   1.00
H300   H     0.86960   0.94744   0.79081   0.00000  Uiso   1.00
H301   H     0.84470   1.00512   0.85163   0.00000  Uiso   1.00
H302   H     0.35566   0.62689   0.47087   0.00000  Uiso   1.00
H303   H     0.34281   0.57611   0.62236   0.00000  Uiso   1.00
H304   H     0.31683   0.63378   0.67573   0.00000  Uiso   1.00
H305   H     0.23686   0.56098   0.57744   0.00000  Uiso   1.00
H306   H     0.21852   0.60850   0.41825   0.00000  Uiso   1.00
H307   H     0.24368   0.62267   0.64959   0.00000  Uiso   1.00
H308   H     0.99619   0.42443   0.40429   0.00000  Uiso   1.00
H309   H     0.98001   0.38706   0.60509   0.00000  Uiso   1.00
H310   H     1.01548   0.44027   0.64279   0.00000  Uiso   1.00
H311   H     0.91659   0.39395   0.72101   0.00000  Uiso   1.00
H312   H     0.87572   0.43270   0.59406   0.00000  Uiso   1.00
H313   H     0.90289   0.45262   0.81472   0.00000  Uiso   1.00
H314   H     0.78841   0.63863   0.92276   0.00000  Uiso   1.00
H315   H     0.64777   0.74712   0.04658   0.00000  Uiso   1.00
H316   H     0.66885   0.95882   0.73140   0.00000  Uiso   1.00
H317   H     0.64187   0.92845   0.53027   0.00000  Uiso   1.00
H318   H     0.70001   0.91008   0.61608   0.00000  Uiso   1.00
H319   H     0.59196   0.76722   0.12873   0.00000  Uiso   1.00
H320   H     0.53630   0.79413   0.05328   0.00000  Uiso   1.00
H321   H     0.56982   0.82005   0.24851   0.00000  Uiso   1.00
N322   N     0.38950   0.39890   0.47530   0.00000  Uiso   1.00
O323   O     0.59560   0.82800   0.98960   0.00000  Uiso   1.00
O324   O     0.85720   0.60840   0.71650   0.00000  Uiso   1.00
O325   O     0.01350   0.73800   0.97700   0.00000  Uiso   1.00
O326   O     0.83140   0.97490   0.42720   0.00000  Uiso   1.00
O327   O     0.29580   0.58610   0.27710   0.00000  Uiso   1.00
O328   O     0.94150   0.49040   0.50160   0.00000  Uiso   1.00
C329   C     0.71520   0.27180   0.12950   0.00000  Uiso   1.00
C330   C     0.68170   0.29480   0.01700   0.00000  Uiso   1.00
C331   C     0.67760   0.28260   0.83310   0.00000  Uiso   1.00
C332   C     0.65160   0.32910   0.08220   0.00000  Uiso   1.00
C333   C     0.64220   0.30060   0.72220   0.00000  Uiso   1.00
C334   C     0.61400   0.34470   0.97350   0.00000  Uiso   1.00
C335   C     0.61090   0.33250   0.79010   0.00000  Uiso   1.00
C336   C     0.58250   0.36020   0.66240   0.00000  Uiso   1.00
C337   C     0.42320   0.58250   0.39260   0.00000  Uiso   1.00
C338   C     0.40170   0.56650   0.23230   0.00000  Uiso   1.00
C339   C     0.42680   0.54090   0.10340   0.00000  Uiso   1.00
C340   C     0.75920   0.29490   0.15770   0.00000  Uiso   1.00
C341   C     0.47010   0.57320   0.41740   0.00000  Uiso   1.00
C342   C     0.49490   0.54940   0.28440   0.00000  Uiso   1.00
C343   C     0.47200   0.52840   0.14120   0.00000  Uiso   1.00
C344   C     0.65790   0.99850   0.01150   0.00000  Uiso   1.00
C345   C     0.69930   0.99360   0.11120   0.00000  Uiso   1.00
C346   C     0.69830   0.99290   0.30580   0.00000  Uiso   1.00
C347   C     0.97270   0.22380   0.33590   0.00000  Uiso   1.00
C348   C     0.97550   0.17780   0.39600   0.00000  Uiso   1.00
C349   C     0.98240   0.14210   0.26680   0.00000  Uiso   1.00
C350   C     0.79340   0.27250   0.27820   0.00000  Uiso   1.00
C351   C     0.60930   0.67200   0.44040   0.00000  Uiso   1.00
C352   C     0.59840   0.71040   0.55100   0.00000  Uiso   1.00
C353   C     0.59760   0.75490   0.47280   0.00000  Uiso   1.00
C354   C     0.42430   0.01380   0.44250   0.00000  Uiso   1.00
C355   C     0.45020   0.05430   0.41760   0.00000  Uiso   1.00
C356   C     0.43150   0.09150   0.31730   0.00000  Uiso   1.00
C357   C     0.83620   0.29910   0.30830   0.00000  Uiso   1.00
C358   C     0.84840   0.33700   0.20550   0.00000  Uiso   1.00
C359   C     0.81560   0.35790   0.08580   0.00000  Uiso   1.00
C360   C     0.77270   0.33680   0.05730   0.00000  Uiso   1.00
C361   C     0.57610   0.16450   0.15890   0.00000  Uiso   1.00
C362   C     0.80140   0.42740   0.89070   0.00000  Uiso   1.00
H363   H     0.70343   0.25732   0.76851   0.00000  Uiso   1.00
H364   H     0.65722   0.34497   0.22549   0.00000  Uiso   1.00
H365   H     0.63869   0.28894   0.57155   0.00000  Uiso   1.00
H366   H     0.58603   0.36756   0.03822   0.00000  Uiso   1.00
H367   H     0.54301   0.35871   0.67148   0.00000  Uiso   1.00
H368   H     0.36345   0.57439   0.20656   0.00000  Uiso   1.00
H369   H     0.41001   0.53025   0.96650   0.00000  Uiso   1.00
H370   H     0.48850   0.58530   0.54898   0.00000  Uiso   1.00
H371   H     0.53435   0.54731   0.29423   0.00000  Uiso   1.00
H372   H     0.63941   0.96355   0.00398   0.00000  Uiso   1.00
H373   H     0.66597   1.01114  -0.13502   0.00000  Uiso   1.00
H374   H     0.63458   1.02480   0.08429   0.00000  Uiso   1.00
H375   H     0.68006   0.96001   0.35520   0.00000  Uiso   1.00
H376   H     0.67869   1.02463   0.35881   0.00000  Uiso   1.00
H377   H     0.73533   0.99349   0.36167   0.00000  Uiso   1.00
H378   H     0.94978   0.24442   0.43521   0.00000  Uiso   1.00
H379   H     0.95708   0.22488   0.19048   0.00000  Uiso   1.00
H380   H     1.00896   0.23967   0.33293   0.00000  Uiso   1.00
H381   H     0.96603   0.15225   0.12848   0.00000  Uiso   1.00
H382   H     0.96557   0.10883   0.32003   0.00000  Uiso   1.00
H383   H     1.02121   0.13616   0.24674   0.00000  Uiso   1.00
H384   H     0.59524   0.67765   0.29413   0.00000  Uiso   1.00
H385   H     0.59294   0.63948   0.50257   0.00000  Uiso   1.00
H386   H     0.64860   0.66756   0.43434   0.00000  Uiso   1.00
H387   H     0.57738   0.77935   0.56747   0.00000  Uiso   1.00
H388   H     0.58011   0.75341   0.33089   0.00000  Uiso   1.00
H389   H     0.63466   0.76817   0.45636   0.00000  Uiso   1.00
H390   H     0.44608  -0.01294   0.52020   0.00000  Uiso   1.00
H391   H     0.41392  -0.00078   0.30128   0.00000  Uiso   1.00
H392   H     0.39175   0.02204   0.52635   0.00000  Uiso   1.00
H393   H     0.39203   0.08856   0.31530   0.00000  Uiso   1.00
H394   H     0.44526   0.09065   0.16889   0.00000  Uiso   1.00
H395   H     0.44198   0.12559   0.38602   0.00000  Uiso   1.00
H396   H     0.63863   0.21159   0.07724   0.00000  Uiso   1.00
H397   H     0.74712   0.35223   0.95342   0.00000  Uiso   1.00
H398   H     0.92489   0.35560   0.47745   0.00000  Uiso   1.00
H399   H     0.95996   0.33543   0.27579   0.00000  Uiso   1.00
H400   H     0.91250   0.29824   0.36901   0.00000  Uiso   1.00
H401   H     0.77142   0.40426   0.84472   0.00000  Uiso   1.00
H402   H     0.82294   0.43774   0.76446   0.00000  Uiso   1.00
H403   H     0.78704   0.45993   0.96031   0.00000  Uiso   1.00
N404   N     0.39890   0.61050   0.52470   0.00000  Uiso   1.00
O405   O     0.82800   0.40440   0.01040   0.00000  Uiso   1.00
O406   O     0.60840   0.14280   0.28350   0.00000  Uiso   1.00
O407   O     0.73800   0.98650   0.02300   0.00000  Uiso   1.00
O408   O     0.97490   0.16860   0.57280   0.00000  Uiso   1.00
O409   O     0.58610   0.70420   0.72290   0.00000  Uiso   1.00
O410   O     0.49040   0.05850   0.49840   0.00000  Uiso   1.00
C411   C     0.28480   0.72820   0.12950   0.00000  Uiso   1.00
C412   C     0.31830   0.70520   0.01700   0.00000  Uiso   1.00
C413   C     0.32240   0.71740   0.83310   0.00000  Uiso   1.00
C414   C     0.34840   0.67090   0.08220   0.00000  Uiso   1.00
C415   C     0.35780   0.69940   0.72220   0.00000  Uiso   1.00
C416   C     0.38600   0.65530   0.97350   0.00000  Uiso   1.00
C417   C     0.38910   0.66750   0.79010   0.00000  Uiso   1.00
C418   C     0.41750   0.63980   0.66240   0.00000  Uiso   1.00
C419   C     0.57680   0.41750   0.39260   0.00000  Uiso   1.00
C420   C     0.59830   0.43350   0.23230   0.00000  Uiso   1.00
C421   C     0.57320   0.45910   0.10340   0.00000  Uiso   1.00
C422   C     0.24080   0.70510   0.15770   0.00000  Uiso   1.00
C423   C     0.52990   0.42680   0.41740   0.00000  Uiso   1.00
C424   C     0.50510   0.45060   0.28440   0.00000  Uiso   1.00
C425   C     0.52800   0.47160   0.14120   0.00000  Uiso   1.00
C426   C     0.34210   0.00150   0.01150   0.00000  Uiso   1.00
C427   C     0.30070   0.00640   0.11120   0.00000  Uiso   1.00
C428   C     0.30170   0.00710   0.30580   0.00000  Uiso   1.00
C429   C     0.02730   0.77620   0.33590   0.00000  Uiso   1.00
C430   C     0.02450   0.82220   0.39600   0.00000  Uiso   1.00
C431   C     0.01760   0.85790   0.26680   0.00000  Uiso   1.00
C432   C     0.20660   0.72750   0.27820   0.00000  Uiso   1.00
C433   C     0.39070   0.32800   0.44040   0.00000  Uiso   1.00
C434   C     0.40160   0.28960   0.55100   0.00000  Uiso   1.00
C435   C     0.40240   0.24510   0.47280   0.00000  Uiso   1.00
C436   C     0.57570   0.98620   0.44250   0.00000  Uiso   1.00
C437   C     0.54980   0.94570   0.41760   0.00000  Uiso   1.00
C438   C     0.56850   0.90850   0.31730   0.00000  Uiso   1.00
C439   C     0.16380   0.70090   0.30830   0.00000  Uiso   1.00
C440   C     0.15160   0.66300   0.20550   0.00000  Uiso   1.00
C441   C     0.18440   0.64210   0.08580   0.00000  Uiso   1.00
C442   C     0.22730   0.66320   0.05730   0.00000  Uiso   1.00
C443   C     0.42390   0.83550   0.15890   0.00000  Uiso   1.00
C444   C     0.19860   0.57260   0.89070   0.00000  Uiso   1.00
H445   H     0.29657   0.74268   0.76851   0.00000  Uiso   1.00
H446   H     0.34278   0.65503   0.22549   0.00000  Uiso   1.00
H447   H     0.36131   0.71106   0.57155   0.00000  Uiso   1.00
H448   H     0.41397   0.63244   0.03822   0.00000  Uiso   1.00
H449   H     0.45699   0.64129   0.67148   0.00000  Uiso   1.00
H450   H     0.63655   0.42561   0.20656   0.00000  Uiso   1.00
H451   H     0.58999   0.46975   0.96650   0.00000  Uiso   1.00
H452   H     0.51150   0.41470   0.54898   0.00000  Uiso   1.00
H453   H     0.46565   0.45269   0.29423   0.00000  Uiso   1.00
H454   H     0.33648   0.01330  -0.13796   0.00000  Uiso   1.00
H455   H     0.35327  -0.03647   0.01274   0.00000  Uiso   1.00
H456   H     0.37029   0.02368   0.07847   0.00000  Uiso   1.00
H457   H     0.32127   0.03922   0.35514   0.00000  Uiso   1.00
H458   H     0.31998  -0.02540   0.35896   0.00000  Uiso   1.00
H459   H     0.26467   0.00805   0.36158   0.00000  Uiso   1.00
H460   H     0.01039   0.77291   0.19335   0.00000  Uiso   1.00
H461   H     0.00850   0.75274   0.43889   0.00000  Uiso   1.00
H462   H     0.06530   0.76539   0.32638   0.00000  Uiso   1.00
H463   H    -0.02059   0.85913   0.22538   0.00000  Uiso   1.00
H464   H     0.03976   0.85112   0.13844   0.00000  Uiso   1.00
H465   H     0.02801   0.89250   0.33143   0.00000  Uiso   1.00
H466   H     0.35157   0.33393   0.44237   0.00000  Uiso   1.00
H467   H     0.40256   0.32129   0.29175   0.00000  Uiso   1.00
H468   H     0.40909   0.36008   0.49693   0.00000  Uiso   1.00
H469   H     0.38417   0.24579   0.33229   0.00000  Uiso   1.00
H470   H     0.38375   0.21979   0.56899   0.00000  Uiso   1.00
H471   H     0.43993   0.23349   0.45344   0.00000  Uiso   1.00
H472   H     0.58747   0.99988   0.30158   0.00000  Uiso   1.00
H473   H     0.60740   0.97828   0.53185   0.00000  Uiso   1.00
H474   H     0.55338   1.01350   0.51440   0.00000  Uiso   1.00
H475   H     0.55863   0.91203   0.16462   0.00000  Uiso   1.00
H476   H     0.55417   0.87446   0.37426   0.00000  Uiso   1.00
H477   H     0.60793   0.90872   0.33133   0.00000  Uiso   1.00
H478   H     0.36137   0.78841   0.07724   0.00000  Uiso   1.00
H479   H     0.25288   0.64777   0.95342   0.00000  Uiso   1.00
H480   H     0.09578   0.68750   0.44311   0.00000  Uiso   1.00
H481   H     0.05627   0.63665   0.42089   0.00000  Uiso   1.00
H482   H     0.05060   0.68658   0.25825   0.00000  Uiso   1.00
H483   H     0.18901   0.58308   0.74292   0.00000  Uiso   1.00
H484   H     0.19298   0.53368   0.90892   0.00000  Uiso   1.00
H485   H     0.23662   0.58132   0.91765   0.00000  Uiso   1.00
N486   N     0.60110   0.38950   0.52470   0.00000  Uiso   1.00
O487   O     0.17200   0.59560   0.01040   0.00000  Uiso   1.00
O488   O     0.39160   0.85720   0.28350   0.00000  Uiso   1.00
O489   O     0.26200   0.01350   0.02300   0.00000  Uiso   1.00
O490   O     0.02510   0.83140   0.57280   0.00000  Uiso   1.00
O491   O     0.41390   0.29580   0.72290   0.00000  Uiso   1.00
O492   O     0.50960   0.94150   0.49840   0.00000  Uiso   1.00
C493   C     0.22820   0.21520   0.62950   0.00000  Uiso   1.00
C494   C     0.20520   0.18170   0.51700   0.00000  Uiso   1.00
C495   C     0.21740   0.17760   0.33310   0.00000  Uiso   1.00
C496   C     0.17090   0.15160   0.58220   0.00000  Uiso   1.00
C497   C     0.19940   0.14220   0.22220   0.00000  Uiso   1.00
C498   C     0.15530   0.11400   0.47350   0.00000  Uiso   1.00
C499   C     0.16750   0.11090   0.29010   0.00000  Uiso   1.00
C500   C     0.13980   0.08250   0.16240   0.00000  Uiso   1.00
C501   C     0.91750   0.92320   0.89260   0.00000  Uiso   1.00
C502   C     0.93350   0.90170   0.73230   0.00000  Uiso   1.00
C503   C     0.95910   0.92680   0.60340   0.00000  Uiso   1.00
C504   C     0.20510   0.25920   0.65770   0.00000  Uiso   1.00
C505   C     0.92680   0.97010   0.91740   0.00000  Uiso   1.00
C506   C     0.95060   0.99490   0.78440   0.00000  Uiso   1.00
C507   C     0.97160   0.97200   0.64120   0.00000  Uiso   1.00
C508   C     0.50150   0.15790   0.51150   0.00000  Uiso   1.00
C509   C     0.50640   0.19930   0.61120   0.00000  Uiso   1.00
C510   C     0.50710   0.19830   0.80580   0.00000  Uiso   1.00
C511   C     0.27620   0.47270   0.83590   0.00000  Uiso   1.00
C512   C     0.32220   0.47550   0.89600   0.00000  Uiso   1.00
C513   C     0.35790   0.48240   0.76680   0.00000  Uiso   1.00
C514   C     0.22750   0.29340   0.77820   0.00000  Uiso   1.00
C515   C     0.82800   0.10930   0.94040   0.00000  Uiso   1.00
C516   C     0.78960   0.09840   1.05100   0.00000  Uiso   1.00
C517   C     0.74510   0.09760   0.97280   0.00000  Uiso   1.00
C518   C     0.48620   0.92430   0.94250   0.00000  Uiso   1.00
C519   C     0.44570   0.95020   0.91760   0.00000  Uiso   1.00
C520   C     0.40850   0.93150   0.81730   0.00000  Uiso   1.00
C521   C     0.20090   0.33620   0.80830   0.00000  Uiso   1.00
C522   C     0.16300   0.34840   0.70550   0.00000  Uiso   1.00
C523   C     0.14210   0.31560   0.58580   0.00000  Uiso   1.00
C524   C     0.16320   0.27270   0.55730   0.00000  Uiso   1.00
C525   C     0.33550   0.07610   0.65890   0.00000  Uiso   1.00
C526   C     0.07260   0.30140   0.39070   0.00000  Uiso   1.00
H527   H     0.24268   0.20343   0.26851   0.00000  Uiso   1.00
H528   H     0.15503   0.15722   0.72549   0.00000  Uiso   1.00
H529   H     0.21106   0.13869   0.07155   0.00000  Uiso   1.00
H530   H     0.13244   0.08603   0.53822   0.00000  Uiso   1.00
H531   H     0.14129   0.04301   0.17148   0.00000  Uiso   1.00
H532   H     0.92561   0.86345   0.70656   0.00000  Uiso   1.00
H533   H     0.96975   0.91001   0.46650   0.00000  Uiso   1.00
H534   H     0.91470   0.98850   0.04898   0.00000  Uiso   1.00
H535   H     0.95269   0.03435   0.79423   0.00000  Uiso   1.00
H536   H     0.51953   0.12855   0.58948   0.00000  Uiso   1.00
H537   H     0.51792   0.16202   0.36838   0.00000  Uiso   1.00
H538   H     0.46305   0.14940   0.49539   0.00000  Uiso   1.00
H539   H     0.52643   0.23006   0.86009   0.00000  Uiso   1.00
H540   H     0.52546   0.16545   0.85484   0.00000  Uiso   1.00
H541   H     0.46998   0.19858   0.86075   0.00000  Uiso   1.00
H542   H     0.26305   0.43565   0.85428   0.00000  Uiso   1.00
H543   H     0.27417   0.48278   0.68300   0.00000  Uiso   1.00
H544   H     0.25382   0.49739   0.92134   0.00000  Uiso   1.00
H545   H     0.34274   0.49712   0.63290   0.00000  Uiso   1.00
H546   H     0.37565   0.44785   0.73630   0.00000  Uiso   1.00
H547   H     0.38436   0.50785   0.82604   0.00000  Uiso   1.00
H548   H     0.81560   0.12235   0.79939   0.00000  Uiso   1.00
H549   H     0.85027   0.07696   0.92044   0.00000  Uiso   1.00
H550   H     0.84943   0.13748   1.01121   0.00000  Uiso   1.00
H551   H     0.73038   0.06092   0.98163   0.00000  Uiso   1.00
H552   H     0.74715   0.10873   0.82108   0.00000  Uiso   1.00
H553   H     0.72154   0.12249   1.05201   0.00000  Uiso   1.00
H554   H     0.50549   0.92148   0.80469   0.00000  Uiso   1.00
H555   H     0.47684   0.88806   0.99404   0.00000  Uiso   1.00
H556   H     0.50935   0.94221   1.04911   0.00000  Uiso   1.00
H557   H     0.40803   0.89217   0.83510   0.00000  Uiso   1.00
H558   H     0.41264   0.94039   0.66390   0.00000  Uiso   1.00
H559   H     0.37453   0.94671   0.87121   0.00000  Uiso   1.00
H560   H     0.28841   0.13863   0.57724   0.00000  Uiso   1.00
H561   H     0.14777   0.24712   0.45342   0.00000  Uiso   1.00
H562   H     0.13665   0.44394   0.92004   0.00000  Uiso   1.00
H563   H     0.18681   0.44922   0.75836   0.00000  Uiso   1.00
H564   H     0.18727   0.40419   0.94385   0.00000  Uiso   1.00
H565   H     0.08138   0.26339   0.41743   0.00000  Uiso   1.00
H566   H     0.08302   0.31105   0.24291   0.00000  Uiso   1.00
H567   H     0.03368   0.30696   0.40914   0.00000  Uiso   1.00
N568   N     0.88950   0.89890   0.02470   0.00000  Uiso   1.00
O569   O     0.09560   0.32800   0.51040   0.00000  Uiso   1.00
O570   O     0.35720   0.10840   0.78350   0.00000  Uiso   1.00
O571   O     0.51350   0.23800   0.52300   0.00000  Uiso   1.00
O572   O     0.33140   0.47490   1.07280   0.00000  Uiso   1.00
O573   O     0.79580   0.08610   1.22290   0.00000  Uiso   1.00
O574   O     0.44150   0.99040   0.99840   0.00000  Uiso   1.00
C575   C     0.77180   0.78480   0.62950   0.00000  Uiso   1.00
C576   C     0.79480   0.81830   0.51700   0.00000  Uiso   1.00
C577   C     0.78260   0.82240   0.33310   0.00000  Uiso   1.00
C578   C     0.82910   0.84840   0.58220   0.00000  Uiso   1.00
C579   C     0.80060   0.85780   0.22220   0.00000  Uiso   1.00
C580   C     0.84470   0.88600   0.47350   0.00000  Uiso   1.00
C581   C     0.83250   0.88910   0.29010   0.00000  Uiso   1.00
C582   C     0.86020   0.91750   0.16240   0.00000  Uiso   1.00
C583   C     0.08250   0.07680   0.89260   0.00000  Uiso   1.00
C584   C     0.06650   0.09830   0.73230   0.00000  Uiso   1.00
C585   C     0.04090   0.07320   0.60340   0.00000  Uiso   1.00
C586   C     0.79490   0.74080   0.65770   0.00000  Uiso   1.00
C587   C     0.07320   0.02990   0.91740   0.00000  Uiso   1.00
C588   C     0.04940   0.00510   0.78440   0.00000  Uiso   1.00
C589   C     0.02840   0.02800   0.64120   0.00000  Uiso   1.00
C590   C     0.49850   0.84210   0.51150   0.00000  Uiso   1.00
C591   C     0.49360   0.80070   0.61120   0.00000  Uiso   1.00
C592   C     0.49290   0.80170   0.80580   0.00000  Uiso   1.00
C593   C     0.72380   0.52730   0.83590   0.00000  Uiso   1.00
C594   C     0.67780   0.52450   0.89600   0.00000  Uiso   1.00
C595   C     0.64210   0.51760   0.76680   0.00000  Uiso   1.00
C596   C     0.77250   0.70660   0.77820   0.00000  Uiso   1.00
C597   C     0.17200   0.89070   0.94040   0.00000  Uiso   1.00
C598   C     0.21040   0.90160   1.05100   0.00000  Uiso   1.00
C599   C     0.25490   0.90240   0.97280   0.00000  Uiso   1.00
C600   C     0.51380   0.07570   0.94250   0.00000  Uiso   1.00
C601   C     0.55430   0.04980   0.91760   0.00000  Uiso   1.00
C602   C     0.59150   0.06850   0.81730   0.00000  Uiso   1.00
C603   C     0.79910   0.66380   0.80830   0.00000  Uiso   1.00
C604   C     0.83700   0.65160   0.70550   0.00000  Uiso   1.00
C605   C     0.85790   0.68440   0.58580   0.00000  Uiso   1.00
C606   C     0.83680   0.72730   0.55730   0.00000  Uiso   1.00
C607   C     0.66450   0.92390   0.65890   0.00000  Uiso   1.00
C608   C     0.92740   0.69860   0.39070   0.00000  Uiso   1.00
H609   H     0.75732   0.79657   0.26851   0.00000  Uiso   1.00
H610   H     0.84497   0.84278   0.72549   0.00000  Uiso   1.00
H611   H     0.78894   0.86131   0.07155   0.00000  Uiso   1.00
H612   H     0.86756   0.91397   0.53822   0.00000  Uiso   1.00
H613   H     0.85871   0.95699   0.17148   0.00000  Uiso   1.00
H614   H     0.07439   0.13655   0.70656   0.00000  Uiso   1.00
H615   H     0.03025   0.08999   0.46650   0.00000  Uiso   1.00
H616   H     0.08530   0.01150   0.04898   0.00000  Uiso   1.00
H617   H     0.04731   0.96565   0.79423   0.00000  Uiso   1.00
H618   H     0.50493   0.83384   0.35881   0.00000  Uiso   1.00
H619   H     0.52913   0.86262   0.56910   0.00000  Uiso   1.00
H620   H     0.46543   0.86358   0.52534   0.00000  Uiso   1.00
H621   H     0.47450   0.76940   0.86019   0.00000  Uiso   1.00
H622   H     0.47361   0.83402   0.85483   0.00000  Uiso   1.00
H623   H     0.53002   0.80250   0.86067   0.00000  Uiso   1.00
H624   H     0.72462   0.53826   0.68379   0.00000  Uiso   1.00
H625   H     0.74113   0.49193   0.85155   0.00000  Uiso   1.00
H626   H     0.74321   0.55400   0.92328   0.00000  Uiso   1.00
H627   H     0.63443   0.47889   0.75431   0.00000  Uiso   1.00
H628   H     0.65329   0.53172   0.62581   0.00000  Uiso   1.00
H629   H     0.60953   0.53657   0.81512   0.00000  Uiso   1.00
H630   H     0.16594   0.85159   0.94306   0.00000  Uiso   1.00
H631   H     0.17880   0.90237   0.79156   0.00000  Uiso   1.00
H632   H     0.13996   0.90926   0.99642   0.00000  Uiso   1.00
H633   H     0.25248   0.91373   0.82140   0.00000  Uiso   1.00
H634   H     0.27082   0.86621   0.98058   0.00000  Uiso   1.00
H635   H     0.27763   0.92791   1.05274   0.00000  Uiso   1.00
H636   H     0.48556   0.05256   1.00365   0.00000  Uiso   1.00
H637   H     0.50174   0.08993   0.80284   0.00000  Uiso   1.00
H638   H     0.52103   0.10577   1.04134   0.00000  Uiso   1.00
H639   H     0.57892   0.07985   0.67420   0.00000  Uiso   1.00
H640   H     0.61979   0.04111   0.80115   0.00000  Uiso   1.00
H641   H     0.60609   0.09977   0.89486   0.00000  Uiso   1.00
H642   H     0.71159   0.86137   0.57724   0.00000  Uiso   1.00
H643   H     0.85223   0.75288   0.45342   0.00000  Uiso   1.00
H644   H     0.82836   0.59392   0.97956   0.00000  Uiso   1.00
H645   H     0.85953   0.54518   0.86425   0.00000  Uiso   1.00
H646   H     0.80138   0.56355   0.77844   0.00000  Uiso   1.00
H647   H     0.90424   0.70653   0.26627   0.00000  Uiso   1.00
H648   H     0.95991   0.67962   0.34172   0.00000  Uiso   1.00
H649   H     0.93777   0.73245   0.46150   0.00000  Uiso   1.00
N650   N     0.11050   0.10110   0.02470   0.00000  Uiso   1.00
O651   O     0.90440   0.67200   0.51040   0.00000  Uiso   1.00
O652   O     0.64280   0.89160   0.78350   0.00000  Uiso   1.00
O653   O     0.48650   0.76200   0.52300   0.00000  Uiso   1.00
O654   O     0.66860   0.52510   1.07280   0.00000  Uiso   1.00
O655   O     0.20420   0.91390   1.22290   0.00000  Uiso   1.00
O656   O     0.55850   0.00960   0.99840   0.00000  Uiso   1.00
C657   C     0.00000   0.00000   0.50000   0.00000  Uiso   1.00
C658   C     0.50000   0.50000   0.00000   0.00000  Uiso   1.00
loop_
_geom_bond_atom_site_label_1
_geom_bond_atom_site_label_2
_geom_bond_distance
_geom_bond_site_symmetry_2
_ccdc_geom_bond_type
C1     C2      1.423   .     S
C1     C12     1.446   .     S
C1     C350    1.460   .     D
C2     C3      1.375   .     S
C2     C4      1.396   .     D
C3     C5      1.395   .     D
C3     H35     1.140   .     S
C4     C6      1.410   .     S
C4     H36     1.140   .     S
C5     C7      1.377   .     S
C5     H37     1.140   .     S
C6     C7      1.369   .     D
C6     H38     1.140   .     S
C7     C8      1.467   .     S
C8     H39     1.140   .     S
C8     N158    1.408   .     D
C9     C10     1.388   .     D
C9     C13     1.389   .     S
C9     N76     1.430   1_554 S
C10    C11     1.388   .     S
C10    H40     1.140   .     S
C11    C15     1.378   .     D
C11    H41     1.140   .     S
C12    C22     1.463   .     D
C12    C32     1.459   .     S
C13    C14     1.377   .     D
C13    H42     1.140   1_554 S
C14    C15     1.365   .     S
C14    H43     1.140   1_455 S
C15    C657    1.534   1_565 S
C16    C17     1.399   .     S
C16    H44     1.140   .     S
C16    H45     1.140   .     S
C16    H46     1.140   .     S
C17    C18     1.402   .     S
C17    O79     1.299   .     D
C18    H47     1.140   .     S
C18    H48     1.140   .     S
C18    H49     1.140   .     S
C19    C20     1.396   .     S
C19    H50     1.140   .     S
C19    H51     1.140   .     S
C19    H52     1.140   .     S
C20    C21     1.401   .     S
C20    O80     1.300   .     D
C21    H53     1.140   .     S
C21    H54     1.140   .     S
C21    H55     1.140   .     S
C22    C29     1.467   .     S
C22    C329    1.460   .     S
C23    C24     1.398   .     S
C23    H56     1.140   .     S
C23    H57     1.140   .     S
C23    H58     1.140   .     S
C24    C25     1.400   .     S
C24    O81     1.300   .     D
C25    H59     1.140   .     S
C25    H60     1.140   .     S
C25    H61     1.140   .     S
C26    C27     1.396   .     S
C26    H62     1.140   .     S
C26    H63     1.140   .     S
C26    H64     1.140   .     S
C27    C28     1.400   .     S
C27    O82     1.301   .     D
C28    H65     1.140   .     S
C28    H66     1.140   .     S
C28    H67     1.140   .     S
C29    C30     1.365   .     D
C29    H396    1.140   .     S
C30    C31     1.413   .     S
C30    O406    1.376   .     S
C31    C32     1.392   .     D
C31    O77     1.489   .     S
C32    H69     1.140   .     S
C33    O78     1.436   .     S
C33    H399    1.140   .     S
C33    H400    1.140   .     S
C33    H398    1.140   .     S
C34    H73     1.140   .     S
C34    H74     1.140   .     S
C34    H75     1.140   .     S
C34    O77     1.330   .     S
H42    C13     1.140   1_556 S
H43    C14     1.140   1_655 S
H68    C357    1.140   .     S
H70    C361    1.140   .     S
H71    C361    1.140   .     S
H72    C361    1.140   .     S
N76    C90     1.408   .     D
N76    C9      1.430   1_556 S
N76    H632    1.265   .     S
O78    C358    1.376   .     S
C83    C84     1.423   .     S
C83    C94     1.446   .     S
C83    C432    1.460   .     D
C84    C85     1.375   .     S
C84    C86     1.396   .     D
C85    C87     1.395   .     D
C85    H117    1.140   .     S
C86    C88     1.410   .     S
C86    H118    1.140   .     S
C87    C89     1.377   .     S
C87    H119    1.140   .     S
C88    C89     1.369   .     D
C88    H120    1.140   .     S
C89    C90     1.467   .     S
C90    H121    1.140   .     S
C91    C92     1.388   .     S
C91    C95     1.389   .     D
C91    N158    1.430   1_554 S
C92    C93     1.388   .     D
C92    H122    1.140   .     S
C93    C97     1.378   .     S
C93    H123    1.140   .     S
C94    C104    1.463   .     D
C94    C114    1.459   .     S
C95    C96     1.377   .     S
C95    H124    1.140   1_554 S
C96    C97     1.365   .     D
C96    H125    1.140   1_655 S
C97    C657    1.534   1_655 S
C98    C99     1.399   .     S
C98    H126    1.140   .     S
C98    H127    1.140   .     S
C98    H128    1.140   .     S
C99    C100    1.402   .     S
C99    O161    1.299   .     D
C100   H129    1.140   .     S
C100   H130    1.140   .     S
C100   H131    1.140   .     S
C101   C102    1.396   .     S
C101   H132    1.140   .     S
C101   H133    1.140   .     S
C101   H134    1.140   .     S
C102   C103    1.401   .     S
C102   O162    1.300   .     D
C103   H135    1.140   .     S
C103   H136    1.140   .     S
C103   H137    1.140   .     S
C104   C111    1.467   .     S
C104   C411    1.460   .     S
C105   C106    1.398   .     S
C105   H138    1.140   .     S
C105   H139    1.140   .     S
C105   H140    1.140   .     S
C106   C107    1.400   .     S
C106   O163    1.300   .     D
C107   H141    1.140   .     S
C107   H142    1.140   .     S
C107   H143    1.140   .     S
C108   C109    1.396   .     S
C108   H144    1.140   .     S
C108   H145    1.140   .     S
C108   H146    1.140   .     S
C109   C110    1.400   .     S
C109   O164    1.301   .     D
C110   H147    1.140   .     S
C110   H148    1.140   .     S
C110   H149    1.140   .     S
C111   C112    1.365   .     D
C111   H478    1.140   .     S
C112   C113    1.413   .     S
C112   O488    1.376   .     S
C113   C114    1.392   .     D
C113   O159    1.489   .     S
C114   H151    1.140   .     S
C115   O160    1.436   .     S
C115   H481    1.140   .     S
C115   H482    1.140   .     S
C115   H480    1.140   .     S
C116   H155    1.140   .     S
C116   H156    1.140   .     S
C116   H157    1.140   .     S
C116   O159    1.330   .     S
H124   C95     1.140   1_556 S
H125   C96     1.140   1_455 S
H150   C439    1.140   .     S
H152   C443    1.140   .     S
H153   C443    1.140   .     S
H154   C443    1.140   .     S
N158   C91     1.430   1_556 S
O160   C440    1.376   .     S
C165   C166    1.423   .     S
C165   C176    1.446   .     D
C165   C514    1.460   .     S
C166   C168    1.396   .     D
C166   C167    1.375   1_556 S
C167   C169    1.395   .     D
C167   H199    1.140   .     S
C167   C166    1.375   1_554 S
C168   H200    1.140   .     S
C168   C170    1.410   1_556 S
C169   C171    1.377   .     S
C169   H201    1.140   .     S
C170   C171    1.369   .     D
C170   C168    1.410   1_554 S
C170   H202    1.140   1_554 S
C171   C172    1.467   .     S
C172   H203    1.140   .     S
C172   N322    1.408   .     D
C173   C174    1.388   .     D
C173   C177    1.389   .     S
C173   N240    1.430   .     S
C174   C175    1.388   .     S
C174   H204    1.140   .     S
C175   C179    1.378   .     D
C175   H205    1.140   1_556 S
C176   C186    1.463   .     S
C176   C196    1.459   .     S
C177   C178    1.377   .     D
C177   H206    1.140   .     S
C178   C179    1.365   .     S
C178   H207    1.140   .     S
C179   C658    1.534   1_556 S
C180   C181    1.399   .     S
C180   H208    1.140   .     S
C180   H209    1.140   .     S
C180   H210    1.140   .     S
C181   C182    1.402   .     S
C181   O243    1.299   .     D
C182   H211    1.140   .     S
C182   H212    1.140   .     S
C182   H213    1.140   .     S
C183   C184    1.396   .     S
C183   H214    1.140   .     S
C183   H215    1.140   .     S
C183   H216    1.140   .     S
C184   C185    1.401   .     S
C184   O244    1.300   .     D
C185   H217    1.140   .     S
C185   H218    1.140   .     S
C185   H219    1.140   .     S
C186   C193    1.467   .     S
C186   C493    1.460   .     D
C187   C188    1.398   .     S
C187   H220    1.140   .     S
C187   H221    1.140   .     S
C187   H222    1.140   .     S
C188   C189    1.400   .     S
C188   O245    1.300   .     D
C189   H223    1.140   .     S
C189   H224    1.140   .     S
C189   H225    1.140   .     S
C190   C191    1.396   .     S
C190   H226    1.140   .     S
C190   H227    1.140   .     S
C190   H228    1.140   .     S
C191   C192    1.400   .     S
C191   O246    1.301   .     D
C192   H229    1.140   .     S
C192   H230    1.140   .     S
C192   H231    1.140   .     S
C193   C194    1.365   .     D
C193   H560    1.140   .     S
C194   C195    1.413   .     S
C194   O570    1.376   .     S
C195   C196    1.392   .     D
C195   O241    1.489   .     S
C196   H233    1.140   1_556 S
C197   O242    1.436   .     S
C197   H563    1.140   .     S
C197   H564    1.140   .     S
C197   H562    1.140   .     S
C198   H237    1.140   .     S
C198   H238    1.140   .     S
C198   H239    1.140   .     S
C198   O241    1.330   1_554 S
H202   C170    1.140   1_556 S
H205   C175    1.140   1_554 S
H221   N486    1.158   .     S
H232   C521    1.140   .     S
H233   C196    1.140   1_554 S
H234   C525    1.140   .     S
H235   C525    1.140   .     S
H236   C525    1.140   .     S
N240   C254    1.408   .     D
N240   H385    1.231   .     S
O241   C198    1.330   1_556 S
O242   C522    1.376   .     S
C247   C248    1.423   .     S
C247   C258    1.446   .     S
C247   C596    1.460   .     D
C248   C250    1.396   .     S
C248   C249    1.375   1_556 D
C249   C251    1.395   .     S
C249   H281    1.140   .     S
C249   C248    1.375   1_554 D
C250   H282    1.140   .     S
C250   C252    1.410   1_556 D
C251   C253    1.377   .     D
C251   H283    1.140   .     S
C252   C253    1.369   .     S
C252   C250    1.410   1_554 D
C252   H284    1.140   1_554 S
C253   C254    1.467   .     S
C254   H285    1.140   .     S
C255   C256    1.388   .     D
C255   C259    1.389   .     S
C255   N322    1.430   .     S
C256   C257    1.388   .     S
C256   H286    1.140   .     S
C257   C261    1.378   .     D
C257   H287    1.140   1_556 S
C258   C268    1.463   .     D
C258   C278    1.459   .     S
C259   C260    1.377   .     D
C259   H288    1.140   .     S
C260   C261    1.365   .     S
C260   H289    1.140   .     S
C261   C658    1.534   1_556 S
C262   C263    1.399   .     S
C262   H290    1.140   .     S
C262   H291    1.140   .     S
C262   H292    1.140   .     S
C263   C264    1.402   .     S
C263   O325    1.299   .     D
C264   H293    1.140   .     S
C264   H294    1.140   .     S
C264   H295    1.140   .     S
C265   C266    1.396   .     S
C265   H296    1.140   .     S
C265   H297    1.140   .     S
C265   H298    1.140   .     S
C266   C267    1.401   .     S
C266   O326    1.300   .     D
C267   H299    1.140   .     S
C267   H300    1.140   .     S
C267   H301    1.140   .     S
C268   C275    1.467   .     S
C268   C575    1.460   .     S
C269   C270    1.398   .     S
C269   H302    1.140   .     S
C269   H303    1.140   .     S
C269   H304    1.140   .     S
C270   C271    1.400   .     S
C270   O327    1.300   .     D
C271   H305    1.140   .     S
C271   H306    1.140   .     S
C271   H307    1.140   .     S
C272   C273    1.396   .     S
C272   H308    1.140   .     S
C272   H309    1.140   .     S
C272   H310    1.140   .     S
C273   C274    1.400   .     S
C273   O328    1.301   .     D
C274   H311    1.140   .     S
C274   H312    1.140   .     S
C274   H313    1.140   .     S
C275   C276    1.365   .     D
C275   H642    1.140   .     S
C276   C277    1.413   .     S
C276   O652    1.376   .     S
C277   C278    1.392   .     D
C277   O323    1.489   .     S
C278   H315    1.140   1_556 S
C279   O324    1.436   .     S
C279   H645    1.140   .     S
C279   H646    1.140   .     S
C279   H644    1.140   .     S
C280   H319    1.140   .     S
C280   H320    1.140   .     S
C280   H321    1.140   .     S
C280   O323    1.330   1_554 S
H284   C252    1.140   1_556 S
H287   C257    1.140   1_554 S
H314   C603    1.140   .     S
H315   C278    1.140   1_554 S
H316   C607    1.140   .     S
H317   C607    1.140   .     S
H318   C607    1.140   .     S
N322   H468    1.262   .     S
O323   C280    1.330   1_556 S
O324   C604    1.376   .     S
C329   C330    1.423   .     S
C329   C340    1.446   .     D
C330   C332    1.396   .     S
C330   C331    1.375   1_554 D
C331   C333    1.395   .     S
C331   H363    1.140   .     S
C331   C330    1.375   1_556 D
C332   H364    1.140   .     S
C332   C334    1.410   1_554 D
C333   C335    1.377   .     D
C333   H365    1.140   .     S
C334   C335    1.369   .     S
C334   C332    1.410   1_556 D
C334   H366    1.140   1_556 S
C335   C336    1.467   .     S
C336   H367    1.140   .     S
C336   N486    1.408   .     D
C337   C338    1.388   .     D
C337   C341    1.389   .     S
C337   N404    1.430   .     S
C338   C339    1.388   .     S
C338   H368    1.140   .     S
C339   C343    1.378   .     D
C339   H369    1.140   1_554 S
C340   C350    1.463   .     S
C340   C360    1.459   .     S
C341   C342    1.377   .     D
C341   H370    1.140   .     S
C342   C343    1.365   .     S
C342   H371    1.140   .     S
C343   C658    1.534   .     S
C344   C345    1.399   .     S
C344   H372    1.140   .     S
C344   H373    1.140   .     S
C344   H374    1.140   .     S
C345   C346    1.402   .     S
C345   O407    1.299   .     D
C346   H375    1.140   .     S
C346   H376    1.140   .     S
C346   H377    1.140   .     S
C347   C348    1.396   .     S
C347   H378    1.140   .     S
C347   H379    1.140   .     S
C347   H380    1.140   .     S
C348   C349    1.401   .     S
C348   O408    1.300   .     D
C349   H381    1.140   .     S
C349   H382    1.140   .     S
C349   H383    1.140   .     S
C350   C357    1.467   .     S
C351   C352    1.398   .     S
C351   H384    1.140   .     S
C351   H385    1.140   .     S
C351   H386    1.140   .     S
C352   C353    1.400   .     S
C352   O409    1.300   .     D
C353   H387    1.140   .     S
C353   H388    1.140   .     S
C353   H389    1.140   .     S
C354   C355    1.396   .     S
C354   H390    1.140   .     S
C354   H391    1.140   .     S
C354   H392    1.140   .     S
C355   C356    1.400   .     S
C355   O410    1.301   .     D
C356   H393    1.140   .     S
C356   H394    1.140   .     S
C356   H395    1.140   .     S
C357   C358    1.365   .     D
C358   C359    1.413   .     S
C359   C360    1.392   .     D
C359   O405    1.489   .     S
C360   H397    1.140   1_554 S
C361   O406    1.436   .     S
C362   H401    1.140   .     S
C362   H402    1.140   .     S
C362   H403    1.140   .     S
C362   O405    1.330   1_556 S
H366   C334    1.140   1_554 S
H369   C339    1.140   1_556 S
H397   C360    1.140   1_556 S
N404   C418    1.408   .     D
O405   C362    1.330   1_554 S
C411   C412    1.423   .     S
C411   C422    1.446   .     D
C412   C414    1.396   .     D
C412   C413    1.375   1_554 S
C413   C415    1.395   .     D
C413   H445    1.140   .     S
C413   C412    1.375   1_556 S
C414   H446    1.140   .     S
C414   C416    1.410   1_554 S
C415   C417    1.377   .     S
C415   H447    1.140   .     S
C416   C417    1.369   .     D
C416   C414    1.410   1_556 S
C416   H448    1.140   1_556 S
C417   C418    1.467   .     S
C418   H449    1.140   .     S
C419   C420    1.388   .     D
C419   C423    1.389   .     S
C419   N486    1.430   .     S
C420   C421    1.388   .     S
C420   H450    1.140   .     S
C421   C425    1.378   .     D
C421   H451    1.140   1_554 S
C422   C432    1.463   .     S
C422   C442    1.459   .     S
C423   C424    1.377   .     D
C423   H452    1.140   .     S
C424   C425    1.365   .     S
C424   H453    1.140   .     S
C425   C658    1.534   .     S
C426   C427    1.399   .     S
C426   H454    1.140   .     S
C426   H455    1.140   .     S
C426   H456    1.140   .     S
C427   C428    1.402   .     S
C427   O489    1.299   .     D
C428   H457    1.140   .     S
C428   H458    1.140   .     S
C428   H459    1.140   .     S
C429   C430    1.396   .     S
C429   H460    1.140   .     S
C429   H461    1.140   .     S
C429   H462    1.140   .     S
C430   C431    1.401   .     S
C430   O490    1.300   .     D
C431   H463    1.140   .     S
C431   H464    1.140   .     S
C431   H465    1.140   .     S
C432   C439    1.467   .     S
C433   C434    1.398   .     S
C433   H466    1.140   .     S
C433   H467    1.140   .     S
C433   H468    1.140   .     S
C434   C435    1.400   .     S
C434   O491    1.300   .     D
C435   H469    1.140   .     S
C435   H470    1.140   .     S
C435   H471    1.140   .     S
C436   C437    1.396   .     S
C436   H472    1.140   .     S
C436   H473    1.140   .     S
C436   H474    1.140   .     S
C437   C438    1.400   .     S
C437   O492    1.301   .     D
C438   H475    1.140   .     S
C438   H476    1.140   .     S
C438   H477    1.140   .     S
C439   C440    1.365   .     D
C440   C441    1.413   .     S
C441   C442    1.392   .     D
C441   O487    1.489   .     S
C442   H479    1.140   1_554 S
C443   O488    1.436   .     S
C444   H483    1.140   .     S
C444   H484    1.140   .     S
C444   H485    1.140   .     S
C444   O487    1.330   1_556 S
H448   C416    1.140   1_554 S
H451   C421    1.140   1_556 S
H479   C442    1.140   1_556 S
O487   C444    1.330   1_554 S
C493   C494    1.423   .     S
C493   C504    1.446   .     S
C494   C495    1.375   .     D
C494   C496    1.396   .     S
C495   C497    1.395   .     S
C495   H527    1.140   .     S
C496   C498    1.410   .     D
C496   H528    1.140   .     S
C497   C499    1.377   .     D
C497   H529    1.140   .     S
C498   C499    1.369   .     S
C498   H530    1.140   .     S
C499   C500    1.467   .     S
C500   H531    1.140   .     S
C500   N650    1.408   .     D
C501   C502    1.388   .     D
C501   C505    1.389   .     S
C501   N568    1.430   1_556 S
C502   C503    1.388   .     S
C502   H532    1.140   .     S
C503   C507    1.378   .     D
C503   H533    1.140   .     S
C504   C514    1.463   .     D
C504   C524    1.459   .     S
C505   C506    1.377   .     D
C505   H534    1.140   1_556 S
C506   C507    1.365   .     S
C506   H535    1.140   1_565 S
C507   C657    1.534   1_665 S
C508   C509    1.399   .     S
C508   H536    1.140   .     S
C508   H537    1.140   .     S
C508   H538    1.140   .     S
C509   C510    1.402   .     S
C509   O571    1.299   .     D
C510   H539    1.140   .     S
C510   H540    1.140   .     S
C510   H541    1.140   .     S
C511   C512    1.396   .     S
C511   H542    1.140   .     S
C511   H543    1.140   .     S
C511   H544    1.140   .     S
C512   C513    1.401   .     S
C512   O572    1.300   .     D
C513   H545    1.140   .     S
C513   H546    1.140   .     S
C513   H547    1.140   .     S
C514   C521    1.467   .     S
C515   C516    1.398   .     S
C515   H548    1.140   .     S
C515   H549    1.140   .     S
C515   H550    1.140   .     S
C516   C517    1.400   .     S
C516   O573    1.300   .     D
C517   H551    1.140   .     S
C517   H552    1.140   .     S
C517   H553    1.140   .     S
C518   C519    1.396   .     S
C518   H554    1.140   .     S
C518   H555    1.140   .     S
C518   H556    1.140   .     S
C519   C520    1.400   .     S
C519   O574    1.301   .     D
C520   H557    1.140   .     S
C520   H558    1.140   .     S
C520   H559    1.140   .     S
C521   C522    1.365   .     D
C522   C523    1.413   .     S
C523   C524    1.392   .     D
C523   O569    1.489   .     S
C524   H561    1.140   .     S
C525   O570    1.436   .     S
C526   H565    1.140   .     S
C526   H566    1.140   .     S
C526   H567    1.140   .     S
C526   O569    1.330   .     S
H534   C505    1.140   1_554 S
H535   C506    1.140   1_545 S
N568   C582    1.408   .     D
N568   C501    1.430   1_554 S
C575   C576    1.423   .     S
C575   C586    1.446   .     D
C576   C577    1.375   .     D
C576   C578    1.396   .     S
C577   C579    1.395   .     S
C577   H609    1.140   .     S
C578   C580    1.410   .     D
C578   H610    1.140   .     S
C579   C581    1.377   .     D
C579   H611    1.140   .     S
C580   C581    1.369   .     S
C580   H612    1.140   .     S
C581   C582    1.467   .     S
C582   H613    1.140   .     S
C583   C584    1.388   .     D
C583   C587    1.389   .     S
C583   N650    1.430   1_556 S
C584   C585    1.388   .     S
C584   H614    1.140   .     S
C585   C589    1.378   .     D
C585   H615    1.140   .     S
C586   C596    1.463   .     S
C586   C606    1.459   .     S
C587   C588    1.377   .     D
C587   H616    1.140   1_556 S
C588   C589    1.365   .     S
C588   H617    1.140   1_545 S
C589   C657    1.534   .     S
C590   C591    1.399   .     S
C590   H618    1.140   .     S
C590   H619    1.140   .     S
C590   H620    1.140   .     S
C591   C592    1.402   .     S
C591   O653    1.299   .     D
C592   H621    1.140   .     S
C592   H622    1.140   .     S
C592   H623    1.140   .     S
C593   C594    1.396   .     S
C593   H624    1.140   .     S
C593   H625    1.140   .     S
C593   H626    1.140   .     S
C594   C595    1.401   .     S
C594   O654    1.300   .     D
C595   H627    1.140   .     S
C595   H628    1.140   .     S
C595   H629    1.140   .     S
C596   C603    1.467   .     S
C597   C598    1.398   .     S
C597   H630    1.140   .     S
C597   H631    1.140   .     S
C597   H632    1.140   .     S
C598   C599    1.400   .     S
C598   O655    1.300   .     D
C599   H633    1.140   .     S
C599   H634    1.140   .     S
C599   H635    1.140   .     S
C600   C601    1.396   .     S
C600   H636    1.140   .     S
C600   H637    1.140   .     S
C600   H638    1.140   .     S
C601   C602    1.400   .     S
C601   O656    1.301   .     D
C602   H639    1.140   .     S
C602   H640    1.140   .     S
C602   H641    1.140   .     S
C603   C604    1.365   .     D
C604   C605    1.413   .     S
C605   C606    1.392   .     D
C605   O651    1.489   .     S
C606   H643    1.140   .     S
C607   O652    1.436   .     S
C608   H647    1.140   .     S
C608   H648    1.140   .     S
C608   H649    1.140   .     S
C608   O651    1.330   .     S
H616   C587    1.140   1_554 S
H617   C588    1.140   1_565 S
N650   C583    1.430   1_554 S
C657   C15     1.534   1_545 S
C657   C97     1.534   1_455 S
C657   C507    1.534   1_445 S
C658   C179    1.534   1_554 S
C658   C261    1.534   1_554 S
