data_1206
_audit_creation_date              2023-09-08
_audit_creation_method            'Materials Studio'
_symmetry_space_group_name_H-M    'P1'
_symmetry_Int_Tables_number       1
_symmetry_cell_setting            triclinic
loop_
_symmetry_equiv_pos_as_xyz
  x,y,z
_cell_length_a                    26.1114
_cell_length_b                    26.1114
_cell_length_c                    26.1114
_cell_angle_alpha                 90.0000
_cell_angle_beta                  90.0000
_cell_angle_gamma                 90.0000
loop_
_atom_site_label
_atom_site_type_symbol
_atom_site_fract_x
_atom_site_fract_y
_atom_site_fract_z
_atom_site_U_iso_or_equiv
_atom_site_adp_type
_atom_site_occupancy
C1     C     0.97754   0.31183   0.01133   0.00000  Uiso   1.00
C2     C     0.95499   0.35527   0.02295   0.00000  Uiso   1.00
C3     C     0.97750   0.39882   0.01139   0.00000  Uiso   1.00
C4     C     0.91078   0.35674   0.04661   0.00000  Uiso   1.00
C5     C     0.89149   0.40090   0.06058   0.00000  Uiso   1.00
C6     C     0.91604   0.44347   0.04966   0.00000  Uiso   1.00
N1     N     0.95669   0.44135   0.02324   0.00000  Uiso   1.00
C7     C     0.09300   0.49309   0.93020   0.00000  Uiso   1.00
C8     C     0.13650   0.51701   0.93583   0.00000  Uiso   1.00
C9     C     0.14157   0.56359   0.91876   0.00000  Uiso   1.00
C10    C     0.10316   0.58641   0.89537   0.00000  Uiso   1.00
C11    C     0.06102   0.56077   0.88662   0.00000  Uiso   1.00
C12    C     0.05595   0.51429   0.90386   0.00000  Uiso   1.00
H1     H     0.04066   0.27629   0.97969   0.00000  Uiso   1.00
H2     H     0.89063   0.32207   0.05441   0.00000  Uiso   1.00
H3     H     0.85598   0.40222   0.08075   0.00000  Uiso   1.00
H4     H     0.16778   0.49841   0.95438   0.00000  Uiso   1.00
H5     H     0.17694   0.58342   0.92370   0.00000  Uiso   1.00
H6     H     0.03071   0.57796   0.86531   0.00000  Uiso   1.00
H7     H     0.02160   0.49345   0.89652   0.00000  Uiso   1.00
N2     N     0.59424   0.83437   0.41578   0.00000  Uiso   1.00
C13    C     0.60818   0.78288   0.40142   0.00000  Uiso   1.00
C14    C     0.65523   0.76676   0.40820   0.00000  Uiso   1.00
C15    C     0.66769   0.72031   0.39683   0.00000  Uiso   1.00
C16    C     0.63314   0.68845   0.37938   0.00000  Uiso   1.00
C17    C     0.58574   0.70444   0.37251   0.00000  Uiso   1.00
C18    C     0.57360   0.75202   0.38272   0.00000  Uiso   1.00
H8     H     0.68354   0.79210   0.42319   0.00000  Uiso   1.00
H9     H     0.70627   0.70776   0.40165   0.00000  Uiso   1.00
H10    H     0.55727   0.67863   0.35865   0.00000  Uiso   1.00
H11    H     0.53569   0.76560   0.37584   0.00000  Uiso   1.00
C19    C     0.60822   0.36791   0.86666   0.00000  Uiso   1.00
F1     F     0.00132   0.77791   0.54525   0.00000  Uiso   1.00
H12    H     0.85862   0.64440   0.15825   0.00000  Uiso   1.00
O1     O     0.27176   0.63976   0.98296   0.00000  Uiso   1.00
C20    C     0.02246   0.68817   0.01133   0.00000  Uiso   1.00
C21    C     0.04501   0.64473   0.02295   0.00000  Uiso   1.00
C22    C     0.02250   0.60118   0.01139   0.00000  Uiso   1.00
C23    C     0.08922   0.64326   0.04661   0.00000  Uiso   1.00
C24    C     0.10851   0.59910   0.06058   0.00000  Uiso   1.00
C25    C     0.08396   0.55653   0.04966   0.00000  Uiso   1.00
N3     N     0.04331   0.55865   0.02324   0.00000  Uiso   1.00
C26    C     0.90700   0.50691   0.93020   0.00000  Uiso   1.00
C27    C     0.86350   0.48299   0.93583   0.00000  Uiso   1.00
C28    C     0.85843   0.43641   0.91876   0.00000  Uiso   1.00
C29    C     0.89684   0.41359   0.89537   0.00000  Uiso   1.00
C30    C     0.93898   0.43923   0.88662   0.00000  Uiso   1.00
C31    C     0.94405   0.48571   0.90386   0.00000  Uiso   1.00
H13    H     0.95934   0.72371   0.97969   0.00000  Uiso   1.00
H14    H     0.10937   0.67793   0.05441   0.00000  Uiso   1.00
H15    H     0.14402   0.59778   0.08075   0.00000  Uiso   1.00
H16    H     0.83222   0.50159   0.95438   0.00000  Uiso   1.00
H17    H     0.82306   0.41658   0.92370   0.00000  Uiso   1.00
H18    H     0.96929   0.42204   0.86531   0.00000  Uiso   1.00
H19    H     0.97840   0.50655   0.89652   0.00000  Uiso   1.00
N4     N     0.40576   0.16563   0.41578   0.00000  Uiso   1.00
C32    C     0.39182   0.21712   0.40142   0.00000  Uiso   1.00
C33    C     0.34477   0.23324   0.40820   0.00000  Uiso   1.00
C34    C     0.33231   0.27969   0.39683   0.00000  Uiso   1.00
C35    C     0.36686   0.31155   0.37938   0.00000  Uiso   1.00
C36    C     0.41426   0.29556   0.37251   0.00000  Uiso   1.00
C37    C     0.42640   0.24798   0.38272   0.00000  Uiso   1.00
H20    H     0.31646   0.20790   0.42319   0.00000  Uiso   1.00
H21    H     0.29373   0.29224   0.40165   0.00000  Uiso   1.00
H22    H     0.44273   0.32137   0.35865   0.00000  Uiso   1.00
H23    H     0.46431   0.23440   0.37584   0.00000  Uiso   1.00
C38    C     0.39178   0.63209   0.86666   0.00000  Uiso   1.00
F2     F    -0.00132   0.22209   0.54525   0.00000  Uiso   1.00
H24    H     0.14138   0.35560   0.15825   0.00000  Uiso   1.00
O2     O     0.72824   0.36024   0.98296   0.00000  Uiso   1.00
C39    C     0.02246   0.31183   0.98867   0.00000  Uiso   1.00
C40    C     0.04501   0.35527   0.97705   0.00000  Uiso   1.00
C41    C     0.02250   0.39882   0.98861   0.00000  Uiso   1.00
C42    C     0.08922   0.35674   0.95339   0.00000  Uiso   1.00
C43    C     0.10851   0.40090   0.93942   0.00000  Uiso   1.00
C44    C     0.08396   0.44347   0.95034   0.00000  Uiso   1.00
N5     N     0.04331   0.44135   0.97676   0.00000  Uiso   1.00
C45    C     0.90700   0.49309   0.06980   0.00000  Uiso   1.00
C46    C     0.86350   0.51701   0.06417   0.00000  Uiso   1.00
C47    C     0.85843   0.56359   0.08124   0.00000  Uiso   1.00
C48    C     0.89684   0.58641   0.10463   0.00000  Uiso   1.00
C49    C     0.93898   0.56077   0.11338   0.00000  Uiso   1.00
C50    C     0.94405   0.51429   0.09614   0.00000  Uiso   1.00
H25    H     0.95934   0.27629   0.02031   0.00000  Uiso   1.00
H26    H     0.10937   0.32207   0.94559   0.00000  Uiso   1.00
H27    H     0.14402   0.40222   0.91925   0.00000  Uiso   1.00
H28    H     0.83222   0.49841   0.04562   0.00000  Uiso   1.00
H29    H     0.82306   0.58342   0.07630   0.00000  Uiso   1.00
H30    H     0.96929   0.57796   0.13469   0.00000  Uiso   1.00
H31    H     0.97840   0.49345   0.10348   0.00000  Uiso   1.00
N6     N     0.40576   0.83437   0.58422   0.00000  Uiso   1.00
C51    C     0.39182   0.78288   0.59858   0.00000  Uiso   1.00
C52    C     0.34477   0.76676   0.59180   0.00000  Uiso   1.00
C53    C     0.33231   0.72031   0.60317   0.00000  Uiso   1.00
C54    C     0.36686   0.68845   0.62062   0.00000  Uiso   1.00
C55    C     0.41426   0.70444   0.62749   0.00000  Uiso   1.00
C56    C     0.42640   0.75202   0.61728   0.00000  Uiso   1.00
H32    H     0.31646   0.79210   0.57681   0.00000  Uiso   1.00
H33    H     0.29373   0.70776   0.59835   0.00000  Uiso   1.00
H34    H     0.44273   0.67863   0.64135   0.00000  Uiso   1.00
H35    H     0.46431   0.76560   0.62416   0.00000  Uiso   1.00
C57    C     0.39178   0.36791   0.13334   0.00000  Uiso   1.00
F3     F    -0.00132   0.77791   0.45475   0.00000  Uiso   1.00
H36    H     0.14138   0.64440   0.84175   0.00000  Uiso   1.00
O3     O     0.72824   0.63976   0.01704   0.00000  Uiso   1.00
C58    C     0.97754   0.68817   0.98867   0.00000  Uiso   1.00
C59    C     0.95499   0.64473   0.97705   0.00000  Uiso   1.00
C60    C     0.97750   0.60118   0.98861   0.00000  Uiso   1.00
C61    C     0.91078   0.64326   0.95339   0.00000  Uiso   1.00
C62    C     0.89149   0.59910   0.93942   0.00000  Uiso   1.00
C63    C     0.91604   0.55653   0.95034   0.00000  Uiso   1.00
N7     N     0.95669   0.55865   0.97676   0.00000  Uiso   1.00
C64    C     0.09300   0.50691   0.06980   0.00000  Uiso   1.00
C65    C     0.13650   0.48299   0.06417   0.00000  Uiso   1.00
C66    C     0.14157   0.43641   0.08124   0.00000  Uiso   1.00
C67    C     0.10316   0.41359   0.10463   0.00000  Uiso   1.00
C68    C     0.06102   0.43923   0.11338   0.00000  Uiso   1.00
C69    C     0.05595   0.48571   0.09614   0.00000  Uiso   1.00
H37    H     0.04066   0.72371   0.02031   0.00000  Uiso   1.00
H38    H     0.89063   0.67793   0.94559   0.00000  Uiso   1.00
H39    H     0.85598   0.59778   0.91925   0.00000  Uiso   1.00
H40    H     0.16778   0.50159   0.04562   0.00000  Uiso   1.00
H41    H     0.17694   0.41658   0.07630   0.00000  Uiso   1.00
H42    H     0.03071   0.42204   0.13469   0.00000  Uiso   1.00
H43    H     0.02160   0.50655   0.10348   0.00000  Uiso   1.00
N8     N     0.59424   0.16563   0.58422   0.00000  Uiso   1.00
C70    C     0.60818   0.21712   0.59858   0.00000  Uiso   1.00
C71    C     0.65523   0.23324   0.59180   0.00000  Uiso   1.00
C72    C     0.66769   0.27969   0.60317   0.00000  Uiso   1.00
C73    C     0.63314   0.31155   0.62062   0.00000  Uiso   1.00
C74    C     0.58574   0.29556   0.62749   0.00000  Uiso   1.00
C75    C     0.57360   0.24798   0.61728   0.00000  Uiso   1.00
H44    H     0.68354   0.20790   0.57681   0.00000  Uiso   1.00
H45    H     0.70627   0.29224   0.59835   0.00000  Uiso   1.00
H46    H     0.55727   0.32137   0.64135   0.00000  Uiso   1.00
H47    H     0.53569   0.23440   0.62416   0.00000  Uiso   1.00
C76    C     0.60822   0.63209   0.13334   0.00000  Uiso   1.00
F4     F     0.00132   0.22209   0.45475   0.00000  Uiso   1.00
H48    H     0.85862   0.35560   0.84175   0.00000  Uiso   1.00
O4     O     0.27176   0.36024   0.01704   0.00000  Uiso   1.00
C77    C     0.01133   0.97754   0.31183   0.00000  Uiso   1.00
C78    C     0.02295   0.95499   0.35527   0.00000  Uiso   1.00
C79    C     0.01139   0.97750   0.39882   0.00000  Uiso   1.00
C80    C     0.04661   0.91078   0.35674   0.00000  Uiso   1.00
C81    C     0.06058   0.89149   0.40090   0.00000  Uiso   1.00
C82    C     0.04966   0.91604   0.44347   0.00000  Uiso   1.00
N9     N     0.02324   0.95669   0.44135   0.00000  Uiso   1.00
C83    C     0.93020   0.09300   0.49309   0.00000  Uiso   1.00
C84    C     0.93583   0.13650   0.51701   0.00000  Uiso   1.00
C85    C     0.91876   0.14157   0.56359   0.00000  Uiso   1.00
C86    C     0.89537   0.10316   0.58641   0.00000  Uiso   1.00
C87    C     0.88662   0.06102   0.56077   0.00000  Uiso   1.00
C88    C     0.90386   0.05595   0.51429   0.00000  Uiso   1.00
H49    H     0.97969   0.04066   0.27629   0.00000  Uiso   1.00
H50    H     0.05441   0.89063   0.32207   0.00000  Uiso   1.00
H51    H     0.08075   0.85598   0.40222   0.00000  Uiso   1.00
H52    H     0.95438   0.16778   0.49841   0.00000  Uiso   1.00
H53    H     0.92370   0.17694   0.58342   0.00000  Uiso   1.00
H54    H     0.86531   0.03071   0.57796   0.00000  Uiso   1.00
H55    H     0.89652   0.02160   0.49345   0.00000  Uiso   1.00
N10    N     0.41578   0.59424   0.83437   0.00000  Uiso   1.00
C89    C     0.40142   0.60818   0.78288   0.00000  Uiso   1.00
C90    C     0.40820   0.65523   0.76676   0.00000  Uiso   1.00
C91    C     0.39683   0.66769   0.72031   0.00000  Uiso   1.00
C92    C     0.37938   0.63314   0.68845   0.00000  Uiso   1.00
C93    C     0.37251   0.58574   0.70444   0.00000  Uiso   1.00
C94    C     0.38272   0.57360   0.75202   0.00000  Uiso   1.00
H56    H     0.42319   0.68354   0.79210   0.00000  Uiso   1.00
H57    H     0.40165   0.70627   0.70776   0.00000  Uiso   1.00
H58    H     0.35865   0.55727   0.67863   0.00000  Uiso   1.00
H59    H     0.37584   0.53569   0.76560   0.00000  Uiso   1.00
C95    C     0.86666   0.60822   0.36791   0.00000  Uiso   1.00
F5     F     0.54525   0.00132   0.77791   0.00000  Uiso   1.00
H60    H     0.15825   0.85862   0.64440   0.00000  Uiso   1.00
O5     O     0.98296   0.27176   0.63976   0.00000  Uiso   1.00
C96    C     0.01133   0.02246   0.68817   0.00000  Uiso   1.00
C97    C     0.02295   0.04501   0.64473   0.00000  Uiso   1.00
C98    C     0.01139   0.02250   0.60118   0.00000  Uiso   1.00
C99    C     0.04661   0.08922   0.64326   0.00000  Uiso   1.00
C100   C     0.06058   0.10851   0.59910   0.00000  Uiso   1.00
C101   C     0.04966   0.08396   0.55653   0.00000  Uiso   1.00
N11    N     0.02324   0.04331   0.55865   0.00000  Uiso   1.00
C102   C     0.93020   0.90700   0.50691   0.00000  Uiso   1.00
C103   C     0.93583   0.86350   0.48299   0.00000  Uiso   1.00
C104   C     0.91876   0.85843   0.43641   0.00000  Uiso   1.00
C105   C     0.89537   0.89684   0.41359   0.00000  Uiso   1.00
C106   C     0.88662   0.93898   0.43923   0.00000  Uiso   1.00
C107   C     0.90386   0.94405   0.48571   0.00000  Uiso   1.00
H61    H     0.97969   0.95934   0.72371   0.00000  Uiso   1.00
H62    H     0.05441   0.10937   0.67793   0.00000  Uiso   1.00
H63    H     0.08075   0.14402   0.59778   0.00000  Uiso   1.00
H64    H     0.95438   0.83222   0.50159   0.00000  Uiso   1.00
H65    H     0.92370   0.82306   0.41658   0.00000  Uiso   1.00
H66    H     0.86531   0.96929   0.42204   0.00000  Uiso   1.00
H67    H     0.89652   0.97840   0.50655   0.00000  Uiso   1.00
N12    N     0.41578   0.40576   0.16563   0.00000  Uiso   1.00
C108   C     0.40142   0.39182   0.21712   0.00000  Uiso   1.00
C109   C     0.40820   0.34477   0.23324   0.00000  Uiso   1.00
C110   C     0.39683   0.33231   0.27969   0.00000  Uiso   1.00
C111   C     0.37938   0.36686   0.31155   0.00000  Uiso   1.00
C112   C     0.37251   0.41426   0.29556   0.00000  Uiso   1.00
C113   C     0.38272   0.42640   0.24798   0.00000  Uiso   1.00
H68    H     0.42319   0.31646   0.20790   0.00000  Uiso   1.00
H69    H     0.40165   0.29373   0.29224   0.00000  Uiso   1.00
H70    H     0.35865   0.44273   0.32137   0.00000  Uiso   1.00
H71    H     0.37584   0.46431   0.23440   0.00000  Uiso   1.00
C114   C     0.86666   0.39178   0.63209   0.00000  Uiso   1.00
F6     F     0.54525  -0.00132   0.22209   0.00000  Uiso   1.00
H72    H     0.15825   0.14138   0.35560   0.00000  Uiso   1.00
O6     O     0.98296   0.72824   0.36024   0.00000  Uiso   1.00
C115   C     0.98867   0.02246   0.31183   0.00000  Uiso   1.00
C116   C     0.97705   0.04501   0.35527   0.00000  Uiso   1.00
C117   C     0.98861   0.02250   0.39882   0.00000  Uiso   1.00
C118   C     0.95339   0.08922   0.35674   0.00000  Uiso   1.00
C119   C     0.93942   0.10851   0.40090   0.00000  Uiso   1.00
C120   C     0.95034   0.08396   0.44347   0.00000  Uiso   1.00
N13    N     0.97676   0.04331   0.44135   0.00000  Uiso   1.00
C121   C     0.06980   0.90700   0.49309   0.00000  Uiso   1.00
C122   C     0.06417   0.86350   0.51701   0.00000  Uiso   1.00
C123   C     0.08124   0.85843   0.56359   0.00000  Uiso   1.00
C124   C     0.10463   0.89684   0.58641   0.00000  Uiso   1.00
C125   C     0.11338   0.93898   0.56077   0.00000  Uiso   1.00
C126   C     0.09614   0.94405   0.51429   0.00000  Uiso   1.00
H73    H     0.02031   0.95934   0.27629   0.00000  Uiso   1.00
H74    H     0.94559   0.10937   0.32207   0.00000  Uiso   1.00
H75    H     0.91925   0.14402   0.40222   0.00000  Uiso   1.00
H76    H     0.04562   0.83222   0.49841   0.00000  Uiso   1.00
H77    H     0.07630   0.82306   0.58342   0.00000  Uiso   1.00
H78    H     0.13469   0.96929   0.57796   0.00000  Uiso   1.00
H79    H     0.10348   0.97840   0.49345   0.00000  Uiso   1.00
N14    N     0.58422   0.40576   0.83437   0.00000  Uiso   1.00
C127   C     0.59858   0.39182   0.78288   0.00000  Uiso   1.00
C128   C     0.59180   0.34477   0.76676   0.00000  Uiso   1.00
C129   C     0.60317   0.33231   0.72031   0.00000  Uiso   1.00
C130   C     0.62062   0.36686   0.68845   0.00000  Uiso   1.00
C131   C     0.62749   0.41426   0.70444   0.00000  Uiso   1.00
C132   C     0.61728   0.42640   0.75202   0.00000  Uiso   1.00
H80    H     0.57681   0.31646   0.79210   0.00000  Uiso   1.00
H81    H     0.59835   0.29373   0.70776   0.00000  Uiso   1.00
H82    H     0.64135   0.44273   0.67863   0.00000  Uiso   1.00
H83    H     0.62416   0.46431   0.76560   0.00000  Uiso   1.00
C133   C     0.13334   0.39178   0.36791   0.00000  Uiso   1.00
F7     F     0.45475  -0.00132   0.77791   0.00000  Uiso   1.00
H84    H     0.84175   0.14138   0.64440   0.00000  Uiso   1.00
O7     O     0.01704   0.72824   0.63976   0.00000  Uiso   1.00
C134   C     0.98867   0.97754   0.68817   0.00000  Uiso   1.00
C135   C     0.97705   0.95499   0.64473   0.00000  Uiso   1.00
C136   C     0.98861   0.97750   0.60118   0.00000  Uiso   1.00
C137   C     0.95339   0.91078   0.64326   0.00000  Uiso   1.00
C138   C     0.93942   0.89149   0.59910   0.00000  Uiso   1.00
C139   C     0.95034   0.91604   0.55653   0.00000  Uiso   1.00
N15    N     0.97676   0.95669   0.55865   0.00000  Uiso   1.00
C140   C     0.06980   0.09300   0.50691   0.00000  Uiso   1.00
C141   C     0.06417   0.13650   0.48299   0.00000  Uiso   1.00
C142   C     0.08124   0.14157   0.43641   0.00000  Uiso   1.00
C143   C     0.10463   0.10316   0.41359   0.00000  Uiso   1.00
C144   C     0.11338   0.06102   0.43923   0.00000  Uiso   1.00
C145   C     0.09614   0.05595   0.48571   0.00000  Uiso   1.00
H85    H     0.02031   0.04066   0.72371   0.00000  Uiso   1.00
H86    H     0.94559   0.89063   0.67793   0.00000  Uiso   1.00
H87    H     0.91925   0.85598   0.59778   0.00000  Uiso   1.00
H88    H     0.04562   0.16778   0.50159   0.00000  Uiso   1.00
H89    H     0.07630   0.17694   0.41658   0.00000  Uiso   1.00
H90    H     0.13469   0.03071   0.42204   0.00000  Uiso   1.00
H91    H     0.10348   0.02160   0.50655   0.00000  Uiso   1.00
N16    N     0.58422   0.59424   0.16563   0.00000  Uiso   1.00
C146   C     0.59858   0.60818   0.21712   0.00000  Uiso   1.00
C147   C     0.59180   0.65523   0.23324   0.00000  Uiso   1.00
C148   C     0.60317   0.66769   0.27969   0.00000  Uiso   1.00
C149   C     0.62062   0.63314   0.31155   0.00000  Uiso   1.00
C150   C     0.62749   0.58574   0.29556   0.00000  Uiso   1.00
C151   C     0.61728   0.57360   0.24798   0.00000  Uiso   1.00
H92    H     0.57681   0.68354   0.20790   0.00000  Uiso   1.00
H93    H     0.59835   0.70627   0.29224   0.00000  Uiso   1.00
H94    H     0.64135   0.55727   0.32137   0.00000  Uiso   1.00
H95    H     0.62416   0.53569   0.23440   0.00000  Uiso   1.00
C152   C     0.13334   0.60822   0.63209   0.00000  Uiso   1.00
F8     F     0.45475   0.00132   0.22209   0.00000  Uiso   1.00
H96    H     0.84175   0.85862   0.35560   0.00000  Uiso   1.00
O8     O     0.01704   0.27176   0.36024   0.00000  Uiso   1.00
C153   C     0.31183   0.01133   0.97754   0.00000  Uiso   1.00
C154   C     0.35527   0.02295   0.95499   0.00000  Uiso   1.00
C155   C     0.39882   0.01139   0.97750   0.00000  Uiso   1.00
C156   C     0.35674   0.04661   0.91078   0.00000  Uiso   1.00
C157   C     0.40090   0.06058   0.89149   0.00000  Uiso   1.00
C158   C     0.44347   0.04966   0.91604   0.00000  Uiso   1.00
N17    N     0.44135   0.02324   0.95669   0.00000  Uiso   1.00
C159   C     0.49309   0.93020   0.09300   0.00000  Uiso   1.00
C160   C     0.51701   0.93583   0.13650   0.00000  Uiso   1.00
C161   C     0.56359   0.91876   0.14157   0.00000  Uiso   1.00
C162   C     0.58641   0.89537   0.10316   0.00000  Uiso   1.00
C163   C     0.56077   0.88662   0.06102   0.00000  Uiso   1.00
C164   C     0.51429   0.90386   0.05595   0.00000  Uiso   1.00
H97    H     0.27629   0.97969   0.04066   0.00000  Uiso   1.00
H98    H     0.32207   0.05441   0.89063   0.00000  Uiso   1.00
H99    H     0.40222   0.08075   0.85598   0.00000  Uiso   1.00
H100   H     0.49841   0.95438   0.16778   0.00000  Uiso   1.00
H101   H     0.58342   0.92370   0.17694   0.00000  Uiso   1.00
H102   H     0.57796   0.86531   0.03071   0.00000  Uiso   1.00
H103   H     0.49345   0.89652   0.02160   0.00000  Uiso   1.00
N18    N     0.83437   0.41578   0.59424   0.00000  Uiso   1.00
C165   C     0.78288   0.40142   0.60818   0.00000  Uiso   1.00
C166   C     0.76676   0.40820   0.65523   0.00000  Uiso   1.00
C167   C     0.72031   0.39683   0.66769   0.00000  Uiso   1.00
C168   C     0.68845   0.37938   0.63314   0.00000  Uiso   1.00
C169   C     0.70444   0.37251   0.58574   0.00000  Uiso   1.00
C170   C     0.75202   0.38272   0.57360   0.00000  Uiso   1.00
H104   H     0.79210   0.42319   0.68354   0.00000  Uiso   1.00
H105   H     0.70776   0.40165   0.70627   0.00000  Uiso   1.00
H106   H     0.67863   0.35865   0.55727   0.00000  Uiso   1.00
H107   H     0.76560   0.37584   0.53569   0.00000  Uiso   1.00
C171   C     0.36791   0.86666   0.60822   0.00000  Uiso   1.00
F9     F     0.77791   0.54525   0.00132   0.00000  Uiso   1.00
H108   H     0.64440   0.15825   0.85862   0.00000  Uiso   1.00
O9     O     0.63976   0.98296   0.27176   0.00000  Uiso   1.00
C172   C     0.68817   0.01133   0.02246   0.00000  Uiso   1.00
C173   C     0.64473   0.02295   0.04501   0.00000  Uiso   1.00
C174   C     0.60118   0.01139   0.02250   0.00000  Uiso   1.00
C175   C     0.64326   0.04661   0.08922   0.00000  Uiso   1.00
C176   C     0.59910   0.06058   0.10851   0.00000  Uiso   1.00
C177   C     0.55653   0.04966   0.08396   0.00000  Uiso   1.00
N19    N     0.55865   0.02324   0.04331   0.00000  Uiso   1.00
C178   C     0.50691   0.93020   0.90700   0.00000  Uiso   1.00
C179   C     0.48299   0.93583   0.86350   0.00000  Uiso   1.00
C180   C     0.43641   0.91876   0.85843   0.00000  Uiso   1.00
C181   C     0.41359   0.89537   0.89684   0.00000  Uiso   1.00
C182   C     0.43923   0.88662   0.93898   0.00000  Uiso   1.00
C183   C     0.48571   0.90386   0.94405   0.00000  Uiso   1.00
H109   H     0.72371   0.97969   0.95934   0.00000  Uiso   1.00
H110   H     0.67793   0.05441   0.10937   0.00000  Uiso   1.00
H111   H     0.59778   0.08075   0.14402   0.00000  Uiso   1.00
H112   H     0.50159   0.95438   0.83222   0.00000  Uiso   1.00
H113   H     0.41658   0.92370   0.82306   0.00000  Uiso   1.00
H114   H     0.42204   0.86531   0.96929   0.00000  Uiso   1.00
H115   H     0.50655   0.89652   0.97840   0.00000  Uiso   1.00
N20    N     0.16563   0.41578   0.40576   0.00000  Uiso   1.00
C184   C     0.21712   0.40142   0.39182   0.00000  Uiso   1.00
C185   C     0.23324   0.40820   0.34477   0.00000  Uiso   1.00
C186   C     0.27969   0.39683   0.33231   0.00000  Uiso   1.00
C187   C     0.31155   0.37938   0.36686   0.00000  Uiso   1.00
C188   C     0.29556   0.37251   0.41426   0.00000  Uiso   1.00
C189   C     0.24798   0.38272   0.42640   0.00000  Uiso   1.00
H116   H     0.20790   0.42319   0.31646   0.00000  Uiso   1.00
H117   H     0.29224   0.40165   0.29373   0.00000  Uiso   1.00
H118   H     0.32137   0.35865   0.44273   0.00000  Uiso   1.00
H119   H     0.23440   0.37584   0.46431   0.00000  Uiso   1.00
C190   C     0.63209   0.86666   0.39178   0.00000  Uiso   1.00
F10    F     0.22209   0.54525  -0.00132   0.00000  Uiso   1.00
H120   H     0.35560   0.15825   0.14138   0.00000  Uiso   1.00
O10    O     0.36024   0.98296   0.72824   0.00000  Uiso   1.00
C191   C     0.31183   0.98867   0.02246   0.00000  Uiso   1.00
C192   C     0.35527   0.97705   0.04501   0.00000  Uiso   1.00
C193   C     0.39882   0.98861   0.02250   0.00000  Uiso   1.00
C194   C     0.35674   0.95339   0.08922   0.00000  Uiso   1.00
C195   C     0.40090   0.93942   0.10851   0.00000  Uiso   1.00
C196   C     0.44347   0.95034   0.08396   0.00000  Uiso   1.00
N21    N     0.44135   0.97676   0.04331   0.00000  Uiso   1.00
C197   C     0.49309   0.06980   0.90700   0.00000  Uiso   1.00
C198   C     0.51701   0.06417   0.86350   0.00000  Uiso   1.00
C199   C     0.56359   0.08124   0.85843   0.00000  Uiso   1.00
C200   C     0.58641   0.10463   0.89684   0.00000  Uiso   1.00
C201   C     0.56077   0.11338   0.93898   0.00000  Uiso   1.00
C202   C     0.51429   0.09614   0.94405   0.00000  Uiso   1.00
H121   H     0.27629   0.02031   0.95934   0.00000  Uiso   1.00
H122   H     0.32207   0.94559   0.10937   0.00000  Uiso   1.00
H123   H     0.40222   0.91925   0.14402   0.00000  Uiso   1.00
H124   H     0.49841   0.04562   0.83222   0.00000  Uiso   1.00
H125   H     0.58342   0.07630   0.82306   0.00000  Uiso   1.00
H126   H     0.57796   0.13469   0.96929   0.00000  Uiso   1.00
H127   H     0.49345   0.10348   0.97840   0.00000  Uiso   1.00
N22    N     0.83437   0.58422   0.40576   0.00000  Uiso   1.00
C203   C     0.78288   0.59858   0.39182   0.00000  Uiso   1.00
C204   C     0.76676   0.59180   0.34477   0.00000  Uiso   1.00
C205   C     0.72031   0.60317   0.33231   0.00000  Uiso   1.00
C206   C     0.68845   0.62062   0.36686   0.00000  Uiso   1.00
C207   C     0.70444   0.62749   0.41426   0.00000  Uiso   1.00
C208   C     0.75202   0.61728   0.42640   0.00000  Uiso   1.00
H128   H     0.79210   0.57681   0.31646   0.00000  Uiso   1.00
H129   H     0.70776   0.59835   0.29373   0.00000  Uiso   1.00
H130   H     0.67863   0.64135   0.44273   0.00000  Uiso   1.00
H131   H     0.76560   0.62416   0.46431   0.00000  Uiso   1.00
C209   C     0.36791   0.13334   0.39178   0.00000  Uiso   1.00
F11    F     0.77791   0.45475  -0.00132   0.00000  Uiso   1.00
H132   H     0.64440   0.84175   0.14138   0.00000  Uiso   1.00
O11    O     0.63976   0.01704   0.72824   0.00000  Uiso   1.00
C210   C     0.68817   0.98867   0.97754   0.00000  Uiso   1.00
C211   C     0.64473   0.97705   0.95499   0.00000  Uiso   1.00
C212   C     0.60118   0.98861   0.97750   0.00000  Uiso   1.00
C213   C     0.64326   0.95339   0.91078   0.00000  Uiso   1.00
C214   C     0.59910   0.93942   0.89149   0.00000  Uiso   1.00
C215   C     0.55653   0.95034   0.91604   0.00000  Uiso   1.00
N23    N     0.55865   0.97676   0.95669   0.00000  Uiso   1.00
C216   C     0.50691   0.06980   0.09300   0.00000  Uiso   1.00
C217   C     0.48299   0.06417   0.13650   0.00000  Uiso   1.00
C218   C     0.43641   0.08124   0.14157   0.00000  Uiso   1.00
C219   C     0.41359   0.10463   0.10316   0.00000  Uiso   1.00
C220   C     0.43923   0.11338   0.06102   0.00000  Uiso   1.00
C221   C     0.48571   0.09614   0.05595   0.00000  Uiso   1.00
H133   H     0.72371   0.02031   0.04066   0.00000  Uiso   1.00
H134   H     0.67793   0.94559   0.89063   0.00000  Uiso   1.00
H135   H     0.59778   0.91925   0.85598   0.00000  Uiso   1.00
H136   H     0.50159   0.04562   0.16778   0.00000  Uiso   1.00
H137   H     0.41658   0.07630   0.17694   0.00000  Uiso   1.00
H138   H     0.42204   0.13469   0.03071   0.00000  Uiso   1.00
H139   H     0.50655   0.10348   0.02160   0.00000  Uiso   1.00
N24    N     0.16563   0.58422   0.59424   0.00000  Uiso   1.00
C222   C     0.21712   0.59858   0.60818   0.00000  Uiso   1.00
C223   C     0.23324   0.59180   0.65523   0.00000  Uiso   1.00
C224   C     0.27969   0.60317   0.66769   0.00000  Uiso   1.00
C225   C     0.31155   0.62062   0.63314   0.00000  Uiso   1.00
C226   C     0.29556   0.62749   0.58574   0.00000  Uiso   1.00
C227   C     0.24798   0.61728   0.57360   0.00000  Uiso   1.00
H140   H     0.20790   0.57681   0.68354   0.00000  Uiso   1.00
H141   H     0.29224   0.59835   0.70627   0.00000  Uiso   1.00
H142   H     0.32137   0.64135   0.55727   0.00000  Uiso   1.00
H143   H     0.23440   0.62416   0.53569   0.00000  Uiso   1.00
C228   C     0.63209   0.13334   0.60822   0.00000  Uiso   1.00
F12    F     0.22209   0.45475   0.00132   0.00000  Uiso   1.00
H144   H     0.35560   0.84175   0.85862   0.00000  Uiso   1.00
O12    O     0.36024   0.01704   0.27176   0.00000  Uiso   1.00
C229   C     0.81183   0.47754   0.48867   0.00000  Uiso   1.00
C230   C     0.85527   0.45499   0.47705   0.00000  Uiso   1.00
C231   C     0.89882   0.47750   0.48861   0.00000  Uiso   1.00
C232   C     0.85674   0.41078   0.45339   0.00000  Uiso   1.00
C233   C     0.90090   0.39149   0.43942   0.00000  Uiso   1.00
C234   C     0.94347   0.41604   0.45034   0.00000  Uiso   1.00
N25    N     0.94135   0.45669   0.47676   0.00000  Uiso   1.00
C235   C     0.99309   0.59300   0.56980   0.00000  Uiso   1.00
C236   C     0.01701   0.63650   0.56417   0.00000  Uiso   1.00
C237   C     0.06359   0.64157   0.58124   0.00000  Uiso   1.00
C238   C     0.08641   0.60316   0.60463   0.00000  Uiso   1.00
C239   C     0.06077   0.56102   0.61338   0.00000  Uiso   1.00
C240   C     0.01429   0.55595   0.59614   0.00000  Uiso   1.00
H145   H     0.77629   0.54066   0.52031   0.00000  Uiso   1.00
H146   H     0.82207   0.39063   0.44559   0.00000  Uiso   1.00
H147   H     0.90222   0.35598   0.41925   0.00000  Uiso   1.00
H148   H     0.99841   0.66778   0.54562   0.00000  Uiso   1.00
H149   H     0.08342   0.67694   0.57630   0.00000  Uiso   1.00
H150   H     0.07796   0.53071   0.63469   0.00000  Uiso   1.00
H151   H     0.99345   0.52160   0.60348   0.00000  Uiso   1.00
N26    N     0.33437   0.09424   0.08422   0.00000  Uiso   1.00
C241   C     0.28288   0.10818   0.09858   0.00000  Uiso   1.00
C242   C     0.26676   0.15523   0.09180   0.00000  Uiso   1.00
C243   C     0.22031   0.16769   0.10317   0.00000  Uiso   1.00
C244   C     0.18845   0.13314   0.12062   0.00000  Uiso   1.00
C245   C     0.20444   0.08574   0.12749   0.00000  Uiso   1.00
C246   C     0.25202   0.07360   0.11728   0.00000  Uiso   1.00
H152   H     0.29210   0.18354   0.07681   0.00000  Uiso   1.00
H153   H     0.20776   0.20627   0.09835   0.00000  Uiso   1.00
H154   H     0.17863   0.05727   0.14135   0.00000  Uiso   1.00
H155   H     0.26560   0.03569   0.12416   0.00000  Uiso   1.00
C247   C     0.86791   0.10822   0.63334   0.00000  Uiso   1.00
F13    F     0.27791   0.50132  -0.04525   0.00000  Uiso   1.00
H156   H     0.14440   0.35862   0.34175   0.00000  Uiso   1.00
O13    O     0.13976   0.77176   0.51704   0.00000  Uiso   1.00
C248   C     0.18817   0.52246   0.48867   0.00000  Uiso   1.00
C249   C     0.14473   0.54501   0.47705   0.00000  Uiso   1.00
C250   C     0.10118   0.52250   0.48861   0.00000  Uiso   1.00
C251   C     0.14326   0.58922   0.45339   0.00000  Uiso   1.00
C252   C     0.09910   0.60851   0.43942   0.00000  Uiso   1.00
C253   C     0.05653   0.58396   0.45034   0.00000  Uiso   1.00
N27    N     0.05865   0.54331   0.47676   0.00000  Uiso   1.00
C254   C     0.00691   0.40700   0.56980   0.00000  Uiso   1.00
C255   C     0.98299   0.36350   0.56417   0.00000  Uiso   1.00
C256   C     0.93641   0.35843   0.58124   0.00000  Uiso   1.00
C257   C     0.91359   0.39684   0.60463   0.00000  Uiso   1.00
C258   C     0.93923   0.43898   0.61338   0.00000  Uiso   1.00
C259   C     0.98571   0.44405   0.59614   0.00000  Uiso   1.00
H157   H     0.22371   0.45934   0.52031   0.00000  Uiso   1.00
H158   H     0.17793   0.60937   0.44559   0.00000  Uiso   1.00
H159   H     0.09778   0.64402   0.41925   0.00000  Uiso   1.00
H160   H     0.00159   0.33222   0.54562   0.00000  Uiso   1.00
H161   H     0.91658   0.32306   0.57630   0.00000  Uiso   1.00
H162   H     0.92204   0.46929   0.63469   0.00000  Uiso   1.00
H163   H     0.00655   0.47840   0.60348   0.00000  Uiso   1.00
N28    N     0.66563   0.90576   0.08422   0.00000  Uiso   1.00
C260   C     0.71712   0.89182   0.09858   0.00000  Uiso   1.00
C261   C     0.73324   0.84477   0.09180   0.00000  Uiso   1.00
C262   C     0.77969   0.83231   0.10317   0.00000  Uiso   1.00
C263   C     0.81155   0.86686   0.12062   0.00000  Uiso   1.00
C264   C     0.79556   0.91426   0.12749   0.00000  Uiso   1.00
C265   C     0.74798   0.92640   0.11728   0.00000  Uiso   1.00
H164   H     0.70790   0.81646   0.07681   0.00000  Uiso   1.00
H165   H     0.79224   0.79373   0.09835   0.00000  Uiso   1.00
H166   H     0.82137   0.94273   0.14135   0.00000  Uiso   1.00
H167   H     0.73440   0.96431   0.12416   0.00000  Uiso   1.00
C266   C     0.13209   0.89178   0.63334   0.00000  Uiso   1.00
F14    F     0.72209   0.49868  -0.04525   0.00000  Uiso   1.00
H168   H     0.85560   0.64138   0.34175   0.00000  Uiso   1.00
O14    O     0.86024   0.22824   0.51704   0.00000  Uiso   1.00
C267   C     0.81183   0.52246   0.51133   0.00000  Uiso   1.00
C268   C     0.85527   0.54501   0.52295   0.00000  Uiso   1.00
C269   C     0.89882   0.52250   0.51139   0.00000  Uiso   1.00
C270   C     0.85674   0.58922   0.54661   0.00000  Uiso   1.00
C271   C     0.90090   0.60851   0.56058   0.00000  Uiso   1.00
C272   C     0.94347   0.58396   0.54966   0.00000  Uiso   1.00
N29    N     0.94135   0.54331   0.52324   0.00000  Uiso   1.00
C273   C     0.99309   0.40700   0.43020   0.00000  Uiso   1.00
C274   C     0.01701   0.36350   0.43583   0.00000  Uiso   1.00
C275   C     0.06359   0.35843   0.41876   0.00000  Uiso   1.00
C276   C     0.08641   0.39684   0.39537   0.00000  Uiso   1.00
C277   C     0.06077   0.43898   0.38662   0.00000  Uiso   1.00
C278   C     0.01429   0.44405   0.40386   0.00000  Uiso   1.00
H169   H     0.77629   0.45934   0.47969   0.00000  Uiso   1.00
H170   H     0.82207   0.60937   0.55441   0.00000  Uiso   1.00
H171   H     0.90222   0.64402   0.58075   0.00000  Uiso   1.00
H172   H     0.99841   0.33222   0.45438   0.00000  Uiso   1.00
H173   H     0.08342   0.32306   0.42370   0.00000  Uiso   1.00
H174   H     0.07796   0.46929   0.36531   0.00000  Uiso   1.00
H175   H     0.99345   0.47840   0.39652   0.00000  Uiso   1.00
N30    N     0.33437   0.90576   0.91578   0.00000  Uiso   1.00
C279   C     0.28288   0.89182   0.90142   0.00000  Uiso   1.00
C280   C     0.26676   0.84477   0.90820   0.00000  Uiso   1.00
C281   C     0.22031   0.83231   0.89683   0.00000  Uiso   1.00
C282   C     0.18845   0.86686   0.87938   0.00000  Uiso   1.00
C283   C     0.20444   0.91426   0.87251   0.00000  Uiso   1.00
C284   C     0.25202   0.92640   0.88272   0.00000  Uiso   1.00
H176   H     0.29210   0.81646   0.92319   0.00000  Uiso   1.00
H177   H     0.20776   0.79373   0.90165   0.00000  Uiso   1.00
H178   H     0.17863   0.94273   0.85865   0.00000  Uiso   1.00
H179   H     0.26560   0.96431   0.87584   0.00000  Uiso   1.00
C285   C     0.86791   0.89178   0.36666   0.00000  Uiso   1.00
F15    F     0.27791   0.49868   0.04525   0.00000  Uiso   1.00
H180   H     0.14440   0.64138   0.65825   0.00000  Uiso   1.00
O15    O     0.13976   0.22824   0.48296   0.00000  Uiso   1.00
C286   C     0.18817   0.47754   0.51133   0.00000  Uiso   1.00
C287   C     0.14473   0.45499   0.52295   0.00000  Uiso   1.00
C288   C     0.10118   0.47750   0.51139   0.00000  Uiso   1.00
C289   C     0.14326   0.41078   0.54661   0.00000  Uiso   1.00
C290   C     0.09910   0.39149   0.56058   0.00000  Uiso   1.00
C291   C     0.05653   0.41604   0.54966   0.00000  Uiso   1.00
N31    N     0.05865   0.45669   0.52324   0.00000  Uiso   1.00
C292   C     0.00691   0.59300   0.43020   0.00000  Uiso   1.00
C293   C     0.98299   0.63650   0.43583   0.00000  Uiso   1.00
C294   C     0.93641   0.64157   0.41876   0.00000  Uiso   1.00
C295   C     0.91359   0.60316   0.39537   0.00000  Uiso   1.00
C296   C     0.93923   0.56102   0.38662   0.00000  Uiso   1.00
C297   C     0.98571   0.55595   0.40386   0.00000  Uiso   1.00
H181   H     0.22371   0.54066   0.47969   0.00000  Uiso   1.00
H182   H     0.17793   0.39063   0.55441   0.00000  Uiso   1.00
H183   H     0.09778   0.35598   0.58075   0.00000  Uiso   1.00
H184   H     0.00159   0.66778   0.45438   0.00000  Uiso   1.00
H185   H     0.91658   0.67694   0.42370   0.00000  Uiso   1.00
H186   H     0.92204   0.53071   0.36531   0.00000  Uiso   1.00
H187   H     0.00655   0.52160   0.39652   0.00000  Uiso   1.00
N32    N     0.66563   0.09424   0.91578   0.00000  Uiso   1.00
C298   C     0.71712   0.10818   0.90142   0.00000  Uiso   1.00
C299   C     0.73324   0.15523   0.90820   0.00000  Uiso   1.00
C300   C     0.77969   0.16769   0.89683   0.00000  Uiso   1.00
C301   C     0.81155   0.13314   0.87938   0.00000  Uiso   1.00
C302   C     0.79556   0.08574   0.87251   0.00000  Uiso   1.00
C303   C     0.74798   0.07360   0.88272   0.00000  Uiso   1.00
H188   H     0.70790   0.18354   0.92319   0.00000  Uiso   1.00
H189   H     0.79224   0.20627   0.90165   0.00000  Uiso   1.00
H190   H     0.82137   0.05727   0.85865   0.00000  Uiso   1.00
H191   H     0.73440   0.03569   0.87584   0.00000  Uiso   1.00
C304   C     0.13209   0.10822   0.36666   0.00000  Uiso   1.00
F16    F     0.72209   0.50132   0.04525   0.00000  Uiso   1.00
H192   H     0.85560   0.35862   0.65825   0.00000  Uiso   1.00
O16    O     0.86024   0.77176   0.48296   0.00000  Uiso   1.00
C305   C     0.47754   0.51133   0.18817   0.00000  Uiso   1.00
C306   C     0.45499   0.52295   0.14473   0.00000  Uiso   1.00
C307   C     0.47750   0.51139   0.10118   0.00000  Uiso   1.00
C308   C     0.41078   0.54661   0.14326   0.00000  Uiso   1.00
C309   C     0.39149   0.56058   0.09910   0.00000  Uiso   1.00
C310   C     0.41604   0.54966   0.05653   0.00000  Uiso   1.00
N33    N     0.45669   0.52324   0.05865   0.00000  Uiso   1.00
C311   C     0.59300   0.43020   0.00691   0.00000  Uiso   1.00
C312   C     0.63650   0.43583   0.98299   0.00000  Uiso   1.00
C313   C     0.64157   0.41876   0.93641   0.00000  Uiso   1.00
C314   C     0.60316   0.39537   0.91359   0.00000  Uiso   1.00
C315   C     0.56102   0.38662   0.93923   0.00000  Uiso   1.00
C316   C     0.55595   0.40386   0.98571   0.00000  Uiso   1.00
H193   H     0.54066   0.47969   0.22371   0.00000  Uiso   1.00
H194   H     0.39063   0.55441   0.17793   0.00000  Uiso   1.00
H195   H     0.35598   0.58075   0.09778   0.00000  Uiso   1.00
H196   H     0.66778   0.45438   0.00159   0.00000  Uiso   1.00
H197   H     0.67694   0.42370   0.91658   0.00000  Uiso   1.00
H198   H     0.53071   0.36531   0.92204   0.00000  Uiso   1.00
H199   H     0.52160   0.39652   0.00655   0.00000  Uiso   1.00
N34    N     0.09424   0.91578   0.66563   0.00000  Uiso   1.00
C317   C     0.10818   0.90142   0.71712   0.00000  Uiso   1.00
C318   C     0.15523   0.90820   0.73324   0.00000  Uiso   1.00
C319   C     0.16769   0.89683   0.77969   0.00000  Uiso   1.00
C320   C     0.13314   0.87938   0.81155   0.00000  Uiso   1.00
C321   C     0.08574   0.87251   0.79556   0.00000  Uiso   1.00
C322   C     0.07360   0.88272   0.74798   0.00000  Uiso   1.00
H200   H     0.18354   0.92319   0.70790   0.00000  Uiso   1.00
H201   H     0.20627   0.90165   0.79224   0.00000  Uiso   1.00
H202   H     0.05727   0.85865   0.82137   0.00000  Uiso   1.00
H203   H     0.03569   0.87584   0.73440   0.00000  Uiso   1.00
C323   C     0.10822   0.36666   0.13209   0.00000  Uiso   1.00
F17    F     0.50132   0.04525   0.72209   0.00000  Uiso   1.00
H204   H     0.35862   0.65825   0.85560   0.00000  Uiso   1.00
O17    O     0.77176   0.48296   0.86024   0.00000  Uiso   1.00
C324   C     0.52246   0.51133   0.81183   0.00000  Uiso   1.00
C325   C     0.54501   0.52295   0.85527   0.00000  Uiso   1.00
C326   C     0.52250   0.51139   0.89882   0.00000  Uiso   1.00
C327   C     0.58922   0.54661   0.85674   0.00000  Uiso   1.00
C328   C     0.60851   0.56058   0.90090   0.00000  Uiso   1.00
C329   C     0.58396   0.54966   0.94347   0.00000  Uiso   1.00
N35    N     0.54331   0.52324   0.94135   0.00000  Uiso   1.00
C330   C     0.40700   0.43020   0.99309   0.00000  Uiso   1.00
C331   C     0.36350   0.43583   0.01701   0.00000  Uiso   1.00
C332   C     0.35843   0.41876   0.06359   0.00000  Uiso   1.00
C333   C     0.39684   0.39537   0.08641   0.00000  Uiso   1.00
C334   C     0.43898   0.38662   0.06077   0.00000  Uiso   1.00
C335   C     0.44405   0.40386   0.01429   0.00000  Uiso   1.00
H205   H     0.45934   0.47969   0.77629   0.00000  Uiso   1.00
H206   H     0.60937   0.55441   0.82207   0.00000  Uiso   1.00
H207   H     0.64402   0.58075   0.90222   0.00000  Uiso   1.00
H208   H     0.33222   0.45438   0.99841   0.00000  Uiso   1.00
H209   H     0.32306   0.42370   0.08342   0.00000  Uiso   1.00
H210   H     0.46929   0.36531   0.07796   0.00000  Uiso   1.00
H211   H     0.47840   0.39652   0.99345   0.00000  Uiso   1.00
N36    N     0.90576   0.91578   0.33437   0.00000  Uiso   1.00
C336   C     0.89182   0.90142   0.28288   0.00000  Uiso   1.00
C337   C     0.84477   0.90820   0.26676   0.00000  Uiso   1.00
C338   C     0.83231   0.89683   0.22031   0.00000  Uiso   1.00
C339   C     0.86686   0.87938   0.18845   0.00000  Uiso   1.00
C340   C     0.91426   0.87251   0.20444   0.00000  Uiso   1.00
C341   C     0.92640   0.88272   0.25202   0.00000  Uiso   1.00
H212   H     0.81646   0.92319   0.29210   0.00000  Uiso   1.00
H213   H     0.79373   0.90165   0.20776   0.00000  Uiso   1.00
H214   H     0.94273   0.85865   0.17863   0.00000  Uiso   1.00
H215   H     0.96431   0.87584   0.26560   0.00000  Uiso   1.00
C342   C     0.89178   0.36666   0.86791   0.00000  Uiso   1.00
F18    F     0.49868   0.04525   0.27791   0.00000  Uiso   1.00
H216   H     0.64138   0.65825   0.14440   0.00000  Uiso   1.00
O18    O     0.22824   0.48296   0.13976   0.00000  Uiso   1.00
C343   C     0.52246   0.48867   0.18817   0.00000  Uiso   1.00
C344   C     0.54501   0.47705   0.14473   0.00000  Uiso   1.00
C345   C     0.52250   0.48861   0.10118   0.00000  Uiso   1.00
C346   C     0.58922   0.45339   0.14326   0.00000  Uiso   1.00
C347   C     0.60851   0.43942   0.09910   0.00000  Uiso   1.00
C348   C     0.58396   0.45034   0.05653   0.00000  Uiso   1.00
N37    N     0.54331   0.47676   0.05865   0.00000  Uiso   1.00
C349   C     0.40700   0.56980   0.00691   0.00000  Uiso   1.00
C350   C     0.36350   0.56417   0.98299   0.00000  Uiso   1.00
C351   C     0.35843   0.58124   0.93641   0.00000  Uiso   1.00
C352   C     0.39684   0.60463   0.91359   0.00000  Uiso   1.00
C353   C     0.43898   0.61338   0.93923   0.00000  Uiso   1.00
C354   C     0.44405   0.59614   0.98571   0.00000  Uiso   1.00
H217   H     0.45934   0.52031   0.22371   0.00000  Uiso   1.00
H218   H     0.60937   0.44559   0.17793   0.00000  Uiso   1.00
H219   H     0.64402   0.41925   0.09778   0.00000  Uiso   1.00
H220   H     0.33222   0.54562   0.00159   0.00000  Uiso   1.00
H221   H     0.32306   0.57630   0.91658   0.00000  Uiso   1.00
H222   H     0.46929   0.63469   0.92204   0.00000  Uiso   1.00
H223   H     0.47840   0.60348   0.00655   0.00000  Uiso   1.00
N38    N     0.90576   0.08422   0.66563   0.00000  Uiso   1.00
C355   C     0.89182   0.09858   0.71712   0.00000  Uiso   1.00
C356   C     0.84477   0.09180   0.73324   0.00000  Uiso   1.00
C357   C     0.83231   0.10317   0.77969   0.00000  Uiso   1.00
C358   C     0.86686   0.12062   0.81155   0.00000  Uiso   1.00
C359   C     0.91426   0.12749   0.79556   0.00000  Uiso   1.00
C360   C     0.92640   0.11728   0.74798   0.00000  Uiso   1.00
H224   H     0.81646   0.07681   0.70790   0.00000  Uiso   1.00
H225   H     0.79373   0.09835   0.79224   0.00000  Uiso   1.00
H226   H     0.94273   0.14135   0.82137   0.00000  Uiso   1.00
H227   H     0.96431   0.12416   0.73440   0.00000  Uiso   1.00
C361   C     0.89178   0.63334   0.13209   0.00000  Uiso   1.00
F19    F     0.49868  -0.04525   0.72209   0.00000  Uiso   1.00
H228   H     0.64138   0.34175   0.85560   0.00000  Uiso   1.00
O19    O     0.22824   0.51704   0.86024   0.00000  Uiso   1.00
C362   C     0.47754   0.48867   0.81183   0.00000  Uiso   1.00
C363   C     0.45499   0.47705   0.85527   0.00000  Uiso   1.00
C364   C     0.47750   0.48861   0.89882   0.00000  Uiso   1.00
C365   C     0.41078   0.45339   0.85674   0.00000  Uiso   1.00
C366   C     0.39149   0.43942   0.90090   0.00000  Uiso   1.00
C367   C     0.41604   0.45034   0.94347   0.00000  Uiso   1.00
N39    N     0.45669   0.47676   0.94135   0.00000  Uiso   1.00
C368   C     0.59300   0.56980   0.99309   0.00000  Uiso   1.00
C369   C     0.63650   0.56417   0.01701   0.00000  Uiso   1.00
C370   C     0.64157   0.58124   0.06359   0.00000  Uiso   1.00
C371   C     0.60316   0.60463   0.08641   0.00000  Uiso   1.00
C372   C     0.56102   0.61338   0.06077   0.00000  Uiso   1.00
C373   C     0.55595   0.59614   0.01429   0.00000  Uiso   1.00
H229   H     0.54066   0.52031   0.77629   0.00000  Uiso   1.00
H230   H     0.39063   0.44559   0.82207   0.00000  Uiso   1.00
H231   H     0.35598   0.41925   0.90222   0.00000  Uiso   1.00
H232   H     0.66778   0.54562   0.99841   0.00000  Uiso   1.00
H233   H     0.67694   0.57630   0.08342   0.00000  Uiso   1.00
H234   H     0.53071   0.63469   0.07796   0.00000  Uiso   1.00
H235   H     0.52160   0.60348   0.99345   0.00000  Uiso   1.00
N40    N     0.09424   0.08422   0.33437   0.00000  Uiso   1.00
C374   C     0.10818   0.09858   0.28288   0.00000  Uiso   1.00
C375   C     0.15523   0.09180   0.26676   0.00000  Uiso   1.00
C376   C     0.16769   0.10317   0.22031   0.00000  Uiso   1.00
C377   C     0.13314   0.12062   0.18845   0.00000  Uiso   1.00
C378   C     0.08574   0.12749   0.20444   0.00000  Uiso   1.00
C379   C     0.07360   0.11728   0.25202   0.00000  Uiso   1.00
H236   H     0.18354   0.07681   0.29210   0.00000  Uiso   1.00
H237   H     0.20627   0.09835   0.20776   0.00000  Uiso   1.00
H238   H     0.05727   0.14135   0.17863   0.00000  Uiso   1.00
H239   H     0.03569   0.12416   0.26560   0.00000  Uiso   1.00
C380   C     0.10822   0.63334   0.86791   0.00000  Uiso   1.00
F20    F     0.50132  -0.04525   0.27791   0.00000  Uiso   1.00
H240   H     0.35862   0.34175   0.14440   0.00000  Uiso   1.00
O20    O     0.77176   0.51704   0.13976   0.00000  Uiso   1.00
C381   C     0.51133   0.81183   0.52246   0.00000  Uiso   1.00
C382   C     0.52295   0.85527   0.54501   0.00000  Uiso   1.00
C383   C     0.51139   0.89882   0.52250   0.00000  Uiso   1.00
C384   C     0.54661   0.85674   0.58922   0.00000  Uiso   1.00
C385   C     0.56058   0.90090   0.60851   0.00000  Uiso   1.00
C386   C     0.54966   0.94347   0.58396   0.00000  Uiso   1.00
N41    N     0.52324   0.94135   0.54331   0.00000  Uiso   1.00
C387   C     0.43020   0.99309   0.40700   0.00000  Uiso   1.00
C388   C     0.43583   0.01701   0.36350   0.00000  Uiso   1.00
C389   C     0.41876   0.06359   0.35843   0.00000  Uiso   1.00
C390   C     0.39537   0.08641   0.39684   0.00000  Uiso   1.00
C391   C     0.38662   0.06077   0.43898   0.00000  Uiso   1.00
C392   C     0.40386   0.01429   0.44405   0.00000  Uiso   1.00
H241   H     0.47969   0.77629   0.45934   0.00000  Uiso   1.00
H242   H     0.55441   0.82207   0.60937   0.00000  Uiso   1.00
H243   H     0.58075   0.90222   0.64402   0.00000  Uiso   1.00
H244   H     0.45438   0.99841   0.33222   0.00000  Uiso   1.00
H245   H     0.42370   0.08342   0.32306   0.00000  Uiso   1.00
H246   H     0.36531   0.07796   0.46929   0.00000  Uiso   1.00
H247   H     0.39652   0.99345   0.47840   0.00000  Uiso   1.00
N42    N     0.91578   0.33437   0.90576   0.00000  Uiso   1.00
C393   C     0.90142   0.28288   0.89182   0.00000  Uiso   1.00
C394   C     0.90820   0.26676   0.84477   0.00000  Uiso   1.00
C395   C     0.89683   0.22031   0.83231   0.00000  Uiso   1.00
C396   C     0.87938   0.18845   0.86686   0.00000  Uiso   1.00
C397   C     0.87251   0.20444   0.91426   0.00000  Uiso   1.00
C398   C     0.88272   0.25202   0.92640   0.00000  Uiso   1.00
H248   H     0.92319   0.29210   0.81646   0.00000  Uiso   1.00
H249   H     0.90165   0.20776   0.79373   0.00000  Uiso   1.00
H250   H     0.85865   0.17863   0.94273   0.00000  Uiso   1.00
H251   H     0.87584   0.26560   0.96431   0.00000  Uiso   1.00
C399   C     0.36666   0.86791   0.89178   0.00000  Uiso   1.00
F21    F     0.04525   0.27791   0.49868   0.00000  Uiso   1.00
H252   H     0.65825   0.14440   0.64138   0.00000  Uiso   1.00
O21    O     0.48296   0.13976   0.22824   0.00000  Uiso   1.00
C400   C     0.51133   0.18817   0.47754   0.00000  Uiso   1.00
C401   C     0.52295   0.14473   0.45499   0.00000  Uiso   1.00
C402   C     0.51139   0.10118   0.47750   0.00000  Uiso   1.00
C403   C     0.54661   0.14326   0.41078   0.00000  Uiso   1.00
C404   C     0.56058   0.09910   0.39149   0.00000  Uiso   1.00
C405   C     0.54966   0.05653   0.41604   0.00000  Uiso   1.00
N43    N     0.52324   0.05865   0.45669   0.00000  Uiso   1.00
C406   C     0.43020   0.00691   0.59300   0.00000  Uiso   1.00
C407   C     0.43583   0.98299   0.63650   0.00000  Uiso   1.00
C408   C     0.41876   0.93641   0.64157   0.00000  Uiso   1.00
C409   C     0.39537   0.91359   0.60316   0.00000  Uiso   1.00
C410   C     0.38662   0.93923   0.56102   0.00000  Uiso   1.00
C411   C     0.40386   0.98571   0.55595   0.00000  Uiso   1.00
H253   H     0.47969   0.22371   0.54066   0.00000  Uiso   1.00
H254   H     0.55441   0.17793   0.39063   0.00000  Uiso   1.00
H255   H     0.58075   0.09778   0.35598   0.00000  Uiso   1.00
H256   H     0.45438   0.00159   0.66778   0.00000  Uiso   1.00
H257   H     0.42370   0.91658   0.67694   0.00000  Uiso   1.00
H258   H     0.36531   0.92204   0.53071   0.00000  Uiso   1.00
H259   H     0.39652   0.00655   0.52160   0.00000  Uiso   1.00
N44    N     0.91578   0.66563   0.09424   0.00000  Uiso   1.00
C412   C     0.90142   0.71712   0.10818   0.00000  Uiso   1.00
C413   C     0.90820   0.73324   0.15523   0.00000  Uiso   1.00
C414   C     0.89683   0.77969   0.16769   0.00000  Uiso   1.00
C415   C     0.87938   0.81155   0.13314   0.00000  Uiso   1.00
C416   C     0.87251   0.79556   0.08574   0.00000  Uiso   1.00
C417   C     0.88272   0.74798   0.07360   0.00000  Uiso   1.00
H260   H     0.92319   0.70790   0.18354   0.00000  Uiso   1.00
H261   H     0.90165   0.79224   0.20627   0.00000  Uiso   1.00
H262   H     0.85865   0.82137   0.05727   0.00000  Uiso   1.00
H263   H     0.87584   0.73440   0.03569   0.00000  Uiso   1.00
C418   C     0.36666   0.13209   0.10822   0.00000  Uiso   1.00
F22    F     0.04525   0.72209   0.50132   0.00000  Uiso   1.00
H264   H     0.65825   0.85560   0.35862   0.00000  Uiso   1.00
O22    O     0.48296   0.86024   0.77176   0.00000  Uiso   1.00
C419   C     0.48867   0.81183   0.47754   0.00000  Uiso   1.00
C420   C     0.47705   0.85527   0.45499   0.00000  Uiso   1.00
C421   C     0.48861   0.89882   0.47750   0.00000  Uiso   1.00
C422   C     0.45339   0.85674   0.41078   0.00000  Uiso   1.00
C423   C     0.43942   0.90090   0.39149   0.00000  Uiso   1.00
C424   C     0.45034   0.94347   0.41604   0.00000  Uiso   1.00
N45    N     0.47676   0.94135   0.45669   0.00000  Uiso   1.00
C425   C     0.56980   0.99309   0.59300   0.00000  Uiso   1.00
C426   C     0.56417   0.01701   0.63650   0.00000  Uiso   1.00
C427   C     0.58124   0.06359   0.64157   0.00000  Uiso   1.00
C428   C     0.60463   0.08641   0.60316   0.00000  Uiso   1.00
C429   C     0.61338   0.06077   0.56102   0.00000  Uiso   1.00
C430   C     0.59614   0.01429   0.55595   0.00000  Uiso   1.00
H265   H     0.52031   0.77629   0.54066   0.00000  Uiso   1.00
H266   H     0.44559   0.82207   0.39063   0.00000  Uiso   1.00
H267   H     0.41925   0.90222   0.35598   0.00000  Uiso   1.00
H268   H     0.54562   0.99841   0.66778   0.00000  Uiso   1.00
H269   H     0.57630   0.08342   0.67694   0.00000  Uiso   1.00
H270   H     0.63469   0.07796   0.53071   0.00000  Uiso   1.00
H271   H     0.60348   0.99345   0.52160   0.00000  Uiso   1.00
N46    N     0.08422   0.33437   0.09424   0.00000  Uiso   1.00
C431   C     0.09858   0.28288   0.10818   0.00000  Uiso   1.00
C432   C     0.09180   0.26676   0.15523   0.00000  Uiso   1.00
C433   C     0.10317   0.22031   0.16769   0.00000  Uiso   1.00
C434   C     0.12062   0.18845   0.13314   0.00000  Uiso   1.00
C435   C     0.12749   0.20444   0.08574   0.00000  Uiso   1.00
C436   C     0.11728   0.25202   0.07360   0.00000  Uiso   1.00
H272   H     0.07681   0.29210   0.18354   0.00000  Uiso   1.00
H273   H     0.09835   0.20776   0.20627   0.00000  Uiso   1.00
H274   H     0.14135   0.17863   0.05727   0.00000  Uiso   1.00
H275   H     0.12416   0.26560   0.03569   0.00000  Uiso   1.00
C437   C     0.63334   0.86791   0.10822   0.00000  Uiso   1.00
F23    F    -0.04525   0.27791   0.50132   0.00000  Uiso   1.00
H276   H     0.34175   0.14440   0.35862   0.00000  Uiso   1.00
O23    O     0.51704   0.13976   0.77176   0.00000  Uiso   1.00
C438   C     0.48867   0.18817   0.52246   0.00000  Uiso   1.00
C439   C     0.47705   0.14473   0.54501   0.00000  Uiso   1.00
C440   C     0.48861   0.10118   0.52250   0.00000  Uiso   1.00
C441   C     0.45339   0.14326   0.58922   0.00000  Uiso   1.00
C442   C     0.43942   0.09910   0.60851   0.00000  Uiso   1.00
C443   C     0.45034   0.05653   0.58396   0.00000  Uiso   1.00
N47    N     0.47676   0.05865   0.54331   0.00000  Uiso   1.00
C444   C     0.56980   0.00691   0.40700   0.00000  Uiso   1.00
C445   C     0.56417   0.98299   0.36350   0.00000  Uiso   1.00
C446   C     0.58124   0.93641   0.35843   0.00000  Uiso   1.00
C447   C     0.60463   0.91359   0.39684   0.00000  Uiso   1.00
C448   C     0.61338   0.93923   0.43898   0.00000  Uiso   1.00
C449   C     0.59614   0.98571   0.44405   0.00000  Uiso   1.00
H277   H     0.52031   0.22371   0.45934   0.00000  Uiso   1.00
H278   H     0.44559   0.17793   0.60937   0.00000  Uiso   1.00
H279   H     0.41925   0.09778   0.64402   0.00000  Uiso   1.00
H280   H     0.54562   0.00159   0.33222   0.00000  Uiso   1.00
H281   H     0.57630   0.91658   0.32306   0.00000  Uiso   1.00
H282   H     0.63469   0.92204   0.46929   0.00000  Uiso   1.00
H283   H     0.60348   0.00655   0.47840   0.00000  Uiso   1.00
N48    N     0.08422   0.66563   0.90576   0.00000  Uiso   1.00
C450   C     0.09858   0.71712   0.89182   0.00000  Uiso   1.00
C451   C     0.09180   0.73324   0.84477   0.00000  Uiso   1.00
C452   C     0.10317   0.77969   0.83231   0.00000  Uiso   1.00
C453   C     0.12062   0.81155   0.86686   0.00000  Uiso   1.00
C454   C     0.12749   0.79556   0.91426   0.00000  Uiso   1.00
C455   C     0.11728   0.74798   0.92640   0.00000  Uiso   1.00
H284   H     0.07681   0.70790   0.81646   0.00000  Uiso   1.00
H285   H     0.09835   0.79224   0.79373   0.00000  Uiso   1.00
H286   H     0.14135   0.82137   0.94273   0.00000  Uiso   1.00
H287   H     0.12416   0.73440   0.96431   0.00000  Uiso   1.00
C456   C     0.63334   0.13209   0.89178   0.00000  Uiso   1.00
F24    F    -0.04525   0.72209   0.49868   0.00000  Uiso   1.00
H288   H     0.34175   0.85560   0.64138   0.00000  Uiso   1.00
O24    O     0.51704   0.86024   0.22824   0.00000  Uiso   1.00
C457   C     0.13207   0.13207   0.13207   0.00000  Uiso   1.00
C458   C     0.86793   0.86793   0.13207   0.00000  Uiso   1.00
C459   C     0.86793   0.13207   0.86793   0.00000  Uiso   1.00
C460   C     0.13207   0.86793   0.86793   0.00000  Uiso   1.00
C461   C     0.63207   0.63207   0.36793   0.00000  Uiso   1.00
C462   C     0.36793   0.36793   0.36793   0.00000  Uiso   1.00
C463   C     0.63207   0.36793   0.63207   0.00000  Uiso   1.00
C464   C     0.36793   0.63207   0.63207   0.00000  Uiso   1.00
Cu1    Cu    0.50000   0.00000   0.00000   0.00000  Uiso   1.00
Cu2    Cu    0.00000   0.50000   0.00000   0.00000  Uiso   1.00
Cu3    Cu    0.00000   0.00000   0.50000   0.00000  Uiso   1.00
Cu4    Cu    0.50000   0.00000   0.50000   0.00000  Uiso   1.00
Cu5    Cu    0.00000   0.50000   0.50000   0.00000  Uiso   1.00
Cu6    Cu    0.50000   0.50000   0.00000   0.00000  Uiso   1.00
O25    O     0.25000   0.40249   0.90249   0.00000  Uiso   1.00
O26    O     0.75000   0.59751   0.90249   0.00000  Uiso   1.00
O27    O     0.75000   0.40249   0.09751   0.00000  Uiso   1.00
O28    O     0.25000   0.59751   0.09751   0.00000  Uiso   1.00
O29    O     0.90249   0.25000   0.40249   0.00000  Uiso   1.00
O30    O     0.90249   0.75000   0.59751   0.00000  Uiso   1.00
O31    O     0.09751   0.75000   0.40249   0.00000  Uiso   1.00
O32    O     0.09751   0.25000   0.59751   0.00000  Uiso   1.00
O33    O     0.40249   0.90249   0.25000   0.00000  Uiso   1.00
O34    O     0.59751   0.90249   0.75000   0.00000  Uiso   1.00
O35    O     0.40249   0.09751   0.75000   0.00000  Uiso   1.00
O36    O     0.59751   0.09751   0.25000   0.00000  Uiso   1.00
O37    O     0.59869   0.40131   0.59869   0.00000  Uiso   1.00
O38    O     0.40131   0.59869   0.59869   0.00000  Uiso   1.00
O39    O     0.40131   0.40131   0.40131   0.00000  Uiso   1.00
O40    O     0.59869   0.59869   0.40131   0.00000  Uiso   1.00
O41    O     0.90131   0.09869   0.90131   0.00000  Uiso   1.00
O42    O     0.09869   0.90131   0.90131   0.00000  Uiso   1.00
O43    O     0.90131   0.90131   0.09869   0.00000  Uiso   1.00
O44    O     0.09869   0.09869   0.09869   0.00000  Uiso   1.00
B1     B     0.00000   0.75000   0.50000   0.00000  Uiso   1.00
B2     B     0.00000   0.25000   0.50000   0.00000  Uiso   1.00
B3     B     0.50000   0.00000   0.75000   0.00000  Uiso   1.00
B4     B     0.50000   0.00000   0.25000   0.00000  Uiso   1.00
B5     B     0.75000   0.50000   0.00000   0.00000  Uiso   1.00
B6     B     0.25000   0.50000   0.00000   0.00000  Uiso   1.00
O45    O     0.79977   0.25000   0.29977   0.00000  Uiso   1.00
O46    O     0.20023   0.75000   0.29977   0.00000  Uiso   1.00
O47    O     0.20023   0.25000   0.70023   0.00000  Uiso   1.00
O48    O     0.79977   0.75000   0.70023   0.00000  Uiso   1.00
O49    O     0.29977   0.79977   0.25000   0.00000  Uiso   1.00
O50    O     0.29977   0.20023   0.75000   0.00000  Uiso   1.00
O51    O     0.70023   0.20023   0.25000   0.00000  Uiso   1.00
O52    O     0.70023   0.79977   0.75000   0.00000  Uiso   1.00
O53    O     0.25000   0.29977   0.79977   0.00000  Uiso   1.00
O54    O     0.75000   0.29977   0.20023   0.00000  Uiso   1.00
O55    O     0.25000   0.70023   0.20023   0.00000  Uiso   1.00
O56    O     0.75000   0.70023   0.79977   0.00000  Uiso   1.00
loop_
_geom_bond_atom_site_label_1
_geom_bond_atom_site_label_2
_geom_bond_distance
_geom_bond_site_symmetry_2
_ccdc_geom_bond_type
C1     H25     1.069   .     S
C1     C2      1.314   .     S
C1     C39     1.314   1_654 D
C2     C4      1.310   .     S
C2     C3      1.315   .     D
C3     N1      1.274   .     S
C3     C41     1.317   1_654 S
C4     C5      1.310   .     D
C4     H2      1.067   .     S
C5     H3      1.067   .     S
C5     C6      1.314   .     S
C6     N1      1.267   .     D
C6     C45     1.418   .     S
N1     Cu2     1.998   1_655 S
C7     C12     1.310   .     S
C7     C44     1.418   .     S
C7     C8      1.305   .     D
C8     H4      1.067   .     S
C8     C9      1.302   .     S
C9     H5      1.067   .     S
C9     C10     1.317   .     D
C10    C11     1.308   .     S
C10    C380    1.426   .     S
C11    H6      1.067   .     S
C11    C12     1.301   .     D
C12    H7      1.066   .     S
H1     C39     1.069   .     S
N2     C13     1.442   .     S
N2     C190    1.442   .     D
C13    C18     1.305   .     S
C13    C14     1.311   .     D
C14    H8      1.067   .     S
C14    C15     1.290   .     S
C15    H9      1.067   .     S
C15    C16     1.309   .     D
C16    C17     1.318   .     S
C16    C461    1.502   .     S
C17    H10     1.067   .     S
C17    C18     1.310   .     D
C18    H11     1.067   .     S
C19    C314    1.426   .     S
C19    H228    1.140   .     S
C19    N14     1.442   .     D
F1     B1      1.389   .     S
H12    C361    1.140   .     S
C20    C21     1.314   .     S
C20    H37     1.069   .     S
C20    C58     1.314   1_454 D
C21    C23     1.310   .     D
C21    C22     1.315   .     S
C22    N3      1.274   .     D
C22    C60     1.317   1_454 S
C23    H14     1.067   .     S
C23    C24     1.310   .     S
C24    H15     1.067   .     S
C24    C25     1.314   .     D
C25    N3      1.267   .     S
C25    C64     1.418   .     S
N3     Cu2     1.998   .     S
C26    C27     1.305   .     D
C26    C31     1.310   .     S
C26    C63     1.418   .     S
C27    C28     1.302   .     S
C27    H16     1.067   .     S
C28    C29     1.317   .     D
C28    H17     1.067   .     S
C29    C342    1.426   .     S
C29    C30     1.308   .     S
C30    C31     1.301   .     D
C30    H18     1.067   .     S
C31    H19     1.066   .     S
H13    C58     1.069   .     S
N4     C209    1.442   .     D
N4     C32     1.442   .     S
C32    C33     1.311   .     D
C32    C37     1.305   .     S
C33    C34     1.290   .     S
C33    H20     1.067   .     S
C34    C35     1.309   .     D
C34    H21     1.067   .     S
C35    C36     1.318   .     S
C35    C462    1.502   .     S
C36    C37     1.310   .     D
C36    H22     1.067   .     S
C37    H23     1.067   .     S
C38    C352    1.426   .     S
C38    H204    1.140   .     S
C38    N10     1.442   .     D
F2     B2      1.389   .     S
H24    C323    1.140   .     S
C39    C40     1.314   .     S
C39    C1      1.314   1_456 D
C40    C41     1.315   .     S
C40    C42     1.310   .     D
C41    N5      1.274   .     D
C41    C3      1.317   1_456 S
C42    C43     1.310   .     S
C42    H26     1.067   .     S
C43    H27     1.067   .     S
C43    C44     1.314   .     D
C44    N5      1.267   .     S
N5     Cu2     1.998   1_556 S
C45    C46     1.305   .     D
C45    C50     1.310   .     S
C46    H28     1.067   .     S
C46    C47     1.302   .     S
C47    C48     1.317   .     D
C47    H29     1.067   .     S
C48    C49     1.308   .     S
C48    C361    1.426   .     S
C49    H30     1.067   .     S
C49    C50     1.301   .     D
C50    H31     1.066   .     S
N6     C51     1.442   .     S
N6     C171    1.442   .     D
C51    C52     1.311   .     D
C51    C56     1.305   .     S
C52    H32     1.067   .     S
C52    C53     1.290   .     S
C53    C54     1.309   .     D
C53    H33     1.067   .     S
C54    C55     1.318   .     S
C54    C464    1.502   .     S
C55    C56     1.310   .     D
C55    H34     1.067   .     S
C56    H35     1.067   .     S
C57    N12     1.442   .     D
C57    H240    1.140   .     S
C57    C333    1.426   .     S
F3     B1      1.389   .     S
H36    C380    1.140   .     S
C58    C59     1.314   .     S
C58    C20     1.314   1_656 D
C59    C60     1.315   .     D
C59    C61     1.310   .     S
C60    N7      1.274   .     S
C60    C22     1.317   1_656 S
C61    H38     1.067   .     S
C61    C62     1.310   .     D
C62    C63     1.314   .     S
C62    H39     1.067   .     S
C63    N7      1.267   .     D
N7     Cu2     1.998   1_656 S
C64    C69     1.310   .     S
C64    C65     1.305   .     D
C65    C66     1.302   .     S
C65    H40     1.067   .     S
C66    H41     1.067   .     S
C66    C67     1.317   .     D
C67    C68     1.308   .     S
C67    C323    1.426   .     S
C68    H42     1.067   .     S
C68    C69     1.301   .     D
C69    H43     1.066   .     S
N8     C228    1.442   .     D
N8     C70     1.442   .     S
C70    C75     1.305   .     S
C70    C71     1.311   .     D
C71    C72     1.290   .     S
C71    H44     1.067   .     S
C72    H45     1.067   .     S
C72    C73     1.309   .     D
C73    C74     1.318   .     S
C73    C463    1.502   .     S
C74    C75     1.310   .     D
C74    H46     1.067   .     S
C75    H47     1.067   .     S
C76    N16     1.442   .     D
C76    H216    1.140   .     S
C76    C371    1.426   .     S
F4     B2      1.389   .     S
H48    C342    1.140   .     S
C77    H73     1.069   .     S
C77    C78     1.314   .     S
C77    C115    1.314   1_465 D
C78    C80     1.310   .     S
C78    C79     1.315   .     D
C79    N9      1.274   .     S
C79    C117    1.317   1_465 S
C80    C81     1.310   .     D
C80    H50     1.067   .     S
C81    H51     1.067   .     S
C81    C82     1.314   .     S
C82    N9      1.267   .     D
C82    C121    1.418   .     S
N9     Cu3     1.998   1_565 S
C83    C88     1.310   .     S
C83    C120    1.418   .     S
C83    C84     1.305   .     D
C84    H52     1.067   .     S
C84    C85     1.302   .     S
C85    H53     1.067   .     S
C85    C86     1.317   .     D
C86    C87     1.308   .     S
C86    C247    1.426   .     S
C87    H54     1.067   .     S
C87    C88     1.301   .     D
C88    H55     1.066   .     S
H49    C115    1.069   .     S
N10    C89     1.442   .     S
C89    C94     1.305   .     S
C89    C90     1.311   .     D
C90    H56     1.067   .     S
C90    C91     1.290   .     S
C91    H57     1.067   .     S
C91    C92     1.309   .     D
C92    C93     1.318   .     S
C92    C464    1.502   .     S
C93    H58     1.067   .     S
C93    C94     1.310   .     D
C94    H59     1.067   .     S
C95    C295    1.426   .     S
C95    N22     1.442   .     D
C95    H168    1.140   .     S
F5     B3      1.389   .     S
H60    C266    1.140   .     S
C96    C97     1.314   .     S
C96    H85     1.069   .     S
C96    C134    1.314   1_445 D
C97    C99     1.310   .     D
C97    C98     1.315   .     S
C98    N11     1.274   .     D
C98    C136    1.317   1_445 S
C99    H62     1.067   .     S
C99    C100    1.310   .     S
C100   H63     1.067   .     S
C100   C101    1.314   .     D
C101   N11     1.267   .     S
C101   C140    1.418   .     S
N11    Cu3     1.998   .     S
C102   C103    1.305   .     D
C102   C107    1.310   .     S
C102   C139    1.418   .     S
C103   C104    1.302   .     S
C103   H64     1.067   .     S
C104   C105    1.317   .     D
C104   H65     1.067   .     S
C105   C285    1.426   .     S
C105   C106    1.308   .     S
C106   C107    1.301   .     D
C106   H66     1.067   .     S
C107   H67     1.066   .     S
H61    C134    1.069   .     S
N12    C108    1.442   .     S
C108   C109    1.311   .     D
C108   C113    1.305   .     S
C109   C110    1.290   .     S
C109   H68     1.067   .     S
C110   C111    1.309   .     D
C110   H69     1.067   .     S
C111   C112    1.318   .     S
C111   C462    1.502   .     S
C112   C113    1.310   .     D
C112   H70     1.067   .     S
C113   H71     1.067   .     S
C114   C257    1.426   .     S
C114   N18     1.442   .     D
C114   H192    1.140   .     S
F6     B4      1.389   .     S
H72    C304    1.140   .     S
C115   C116    1.314   .     S
C115   C77     1.314   1_645 D
C116   C117    1.315   .     S
C116   C118    1.310   .     D
C117   N13     1.274   .     D
C117   C79     1.317   1_645 S
C118   C119    1.310   .     S
C118   H74     1.067   .     S
C119   H75     1.067   .     S
C119   C120    1.314   .     D
C120   N13     1.267   .     S
N13    Cu3     1.998   1_655 S
C121   C122    1.305   .     D
C121   C126    1.310   .     S
C122   H76     1.067   .     S
C122   C123    1.302   .     S
C123   C124    1.317   .     D
C123   H77     1.067   .     S
C124   C125    1.308   .     S
C124   C266    1.426   .     S
C125   H78     1.067   .     S
C125   C126    1.301   .     D
C126   H79     1.066   .     S
N14    C127    1.442   .     S
C127   C128    1.311   .     D
C127   C132    1.305   .     S
C128   H80     1.067   .     S
C128   C129    1.290   .     S
C129   C130    1.309   .     D
C129   H81     1.067   .     S
C130   C131    1.318   .     S
C130   C463    1.502   .     S
C131   H82     1.067   .     S
C131   C132    1.310   .     D
C132   H83     1.067   .     S
C133   N20     1.442   .     D
C133   H156    1.140   .     S
C133   C276    1.426   .     S
F7     B3      1.389   .     S
H84    C247    1.140   .     S
C134   C135    1.314   .     S
C134   C96     1.314   1_665 D
C135   C137    1.310   .     S
C135   C136    1.315   .     D
C136   N15     1.274   .     S
C136   C98     1.317   1_665 S
C137   H86     1.067   .     S
C137   C138    1.310   .     D
C138   C139    1.314   .     S
C138   H87     1.067   .     S
C139   N15     1.267   .     D
N15    Cu3     1.998   1_665 S
C140   C145    1.310   .     S
C140   C141    1.305   .     D
C141   C142    1.302   .     S
C141   H88     1.067   .     S
C142   H89     1.067   .     S
C142   C143    1.317   .     D
C143   C304    1.426   .     S
C143   C144    1.308   .     S
C144   C145    1.301   .     D
C144   H90     1.067   .     S
C145   H91     1.066   .     S
N16    C146    1.442   .     S
C146   C151    1.305   .     S
C146   C147    1.311   .     D
C147   C148    1.290   .     S
C147   H92     1.067   .     S
C148   H93     1.067   .     S
C148   C149    1.309   .     D
C149   C150    1.318   .     S
C149   C461    1.502   .     S
C150   C151    1.310   .     D
C150   H94     1.067   .     S
C151   H95     1.067   .     S
C152   N24     1.442   .     D
C152   C238    1.426   .     S
C152   H180    1.140   .     S
F8     B4      1.389   .     S
H96    C285    1.140   .     S
C153   H121    1.069   .     S
C153   C154    1.314   .     S
C153   C191    1.314   1_546 D
C154   C156    1.310   .     D
C154   C155    1.315   .     S
C155   N17     1.274   .     D
C155   C193    1.317   1_546 S
C156   C157    1.310   .     S
C156   H98     1.067   .     S
C157   H99     1.067   .     S
C157   C158    1.314   .     D
C158   N17     1.267   .     S
C158   C197    1.418   .     S
N17    Cu1     1.998   1_556 S
C159   C164    1.310   .     D
C159   C196    1.418   .     S
C159   C160    1.305   .     S
C160   H100    1.067   .     S
C160   C161    1.302   .     D
C161   H101    1.067   .     S
C161   C162    1.317   .     S
C162   C163    1.308   .     D
C162   C437    1.426   .     S
C163   H102    1.067   .     S
C163   C164    1.301   .     S
C164   H103    1.066   .     S
H97    C191    1.069   .     S
N18    C165    1.442   .     S
C165   C170    1.305   .     D
C165   C166    1.311   .     S
C166   H104    1.067   .     S
C166   C167    1.290   .     D
C167   H105    1.067   .     S
C167   C168    1.309   .     S
C168   C169    1.318   .     D
C168   C463    1.502   .     S
C169   H106    1.067   .     S
C169   C170    1.310   .     S
C170   H107    1.067   .     S
C171   C409    1.426   .     S
C171   H288    1.140   .     S
F9     B5      1.389   .     S
H108   C456    1.140   .     S
C172   C173    1.314   .     S
C172   H133    1.069   .     S
C172   C210    1.314   1_544 D
C173   C175    1.310   .     S
C173   C174    1.315   .     D
C174   N19     1.274   .     S
C174   C212    1.317   1_544 S
C175   H110    1.067   .     S
C175   C176    1.310   .     D
C176   H111    1.067   .     S
C176   C177    1.314   .     S
C177   N19     1.267   .     D
C177   C216    1.418   .     S
N19    Cu1     1.998   .     S
C178   C179    1.305   .     D
C178   C183    1.310   .     S
C178   C215    1.418   .     S
C179   C180    1.302   .     S
C179   H112    1.067   .     S
C180   C181    1.317   .     D
C180   H113    1.067   .     S
C181   C399    1.426   .     S
C181   C182    1.308   .     S
C182   C183    1.301   .     D
C182   H114    1.067   .     S
C183   H115    1.066   .     S
H109   C210    1.069   .     S
N20    C184    1.442   .     S
C184   C185    1.311   .     S
C184   C189    1.305   .     D
C185   C186    1.290   .     D
C185   H116    1.067   .     S
C186   C187    1.309   .     S
C186   H117    1.067   .     S
C187   C188    1.318   .     D
C187   C462    1.502   .     S
C188   C189    1.310   .     S
C188   H118    1.067   .     S
C189   H119    1.067   .     S
C190   C447    1.426   .     S
C190   H264    1.140   .     S
F10    B6      1.389   .     S
H120   C418    1.140   .     S
C191   C192    1.314   .     S
C191   C153    1.314   1_564 D
C192   C193    1.315   .     D
C192   C194    1.310   .     S
C193   N21     1.274   .     S
C193   C155    1.317   1_564 S
C194   C195    1.310   .     D
C194   H122    1.067   .     S
C195   H123    1.067   .     S
C195   C196    1.314   .     S
C196   N21     1.267   .     D
N21    Cu1     1.998   1_565 S
C197   C198    1.305   .     D
C197   C202    1.310   .     S
C198   C199    1.302   .     S
C198   H124    1.067   .     S
C199   C200    1.317   .     D
C199   H125    1.067   .     S
C200   C201    1.308   .     S
C200   C456    1.426   .     S
C201   C202    1.301   .     D
C201   H126    1.067   .     S
C202   H127    1.066   .     S
N22    C203    1.442   .     S
C203   C204    1.311   .     S
C203   C208    1.305   .     D
C204   C205    1.290   .     D
C204   H128    1.067   .     S
C205   C206    1.309   .     S
C205   H129    1.067   .     S
C206   C207    1.318   .     D
C206   C461    1.502   .     S
C207   H130    1.067   .     S
C207   C208    1.310   .     S
C208   H131    1.067   .     S
C209   H276    1.140   .     S
C209   C390    1.426   .     S
F11    B5      1.389   .     S
H132   C437    1.140   .     S
C210   C211    1.314   .     S
C210   C172    1.314   1_566 D
C211   C213    1.310   .     D
C211   C212    1.315   .     S
C212   N23     1.274   .     D
C212   C174    1.317   1_566 S
C213   H134    1.067   .     S
C213   C214    1.310   .     S
C214   C215    1.314   .     D
C214   H135    1.067   .     S
C215   N23     1.267   .     S
N23    Cu1     1.998   1_566 S
C216   C221    1.310   .     D
C216   C217    1.305   .     S
C217   C218    1.302   .     D
C217   H136    1.067   .     S
C218   H137    1.067   .     S
C218   C219    1.317   .     S
C219   C220    1.308   .     D
C219   C418    1.426   .     S
C220   H138    1.067   .     S
C220   C221    1.301   .     S
C221   H139    1.066   .     S
N24    C222    1.442   .     S
C222   C227    1.305   .     D
C222   C223    1.311   .     S
C223   C224    1.290   .     D
C223   H140    1.067   .     S
C224   H141    1.067   .     S
C224   C225    1.309   .     S
C225   C226    1.318   .     D
C225   C464    1.502   .     S
C226   C227    1.310   .     S
C226   H142    1.067   .     S
C227   H143    1.067   .     S
C228   C428    1.426   .     S
C228   H252    1.140   .     S
F12    B6      1.389   .     S
H144   C399    1.140   .     S
C229   C267    1.314   .     S
C229   H169    1.069   .     S
C229   C230    1.314   .     D
C230   C231    1.315   .     S
C230   C232    1.310   .     S
C231   N25     1.274   .     S
C231   C269    1.317   .     D
C232   C233    1.310   .     D
C232   H146    1.067   .     S
C233   C234    1.314   .     S
C233   H147    1.067   .     S
C234   C273    1.418   .     S
C234   N25     1.267   .     D
N25    Cu5     1.998   1_655 S
C235   C272    1.418   .     S
C235   C236    1.305   1_655 D
C235   C240    1.310   1_655 S
C236   C237    1.302   .     S
C236   C235    1.305   1_455 D
C236   H148    1.067   1_455 S
C237   H149    1.067   .     S
C237   C238    1.317   .     D
C238   C239    1.308   .     S
C239   C240    1.301   .     D
C239   H150    1.067   .     S
C240   C235    1.310   1_455 S
C240   H151    1.066   1_455 S
H145   C267    1.069   .     S
H148   C236    1.067   1_655 S
H151   C240    1.066   1_655 S
N26    C241    1.442   .     S
N26    C418    1.442   .     D
C241   C242    1.311   .     D
C241   C246    1.305   .     S
C242   C243    1.290   .     S
C242   H152    1.067   .     S
C243   H153    1.067   .     S
C243   C244    1.309   .     D
C244   C457    1.502   .     S
C244   C245    1.318   .     S
C245   H154    1.067   .     S
C245   C246    1.310   .     D
C246   H155    1.067   .     S
C247   N38     1.442   .     D
F13    B6      1.389   .     S
C248   C286    1.314   .     S
C248   C249    1.314   .     D
C248   H181    1.069   .     S
C249   C251    1.310   .     S
C249   C250    1.315   .     S
C250   C288    1.317   .     D
C250   N27     1.274   .     S
C251   H158    1.067   .     S
C251   C252    1.310   .     D
C252   C253    1.314   .     S
C252   H159    1.067   .     S
C253   N27     1.267   .     D
C253   C292    1.418   .     S
N27    Cu5     1.998   .     S
C254   C291    1.418   .     S
C254   C255    1.305   1_455 D
C254   C259    1.310   1_455 S
C255   C256    1.302   .     S
C255   C254    1.305   1_655 D
C255   H160    1.067   1_655 S
C256   C257    1.317   .     D
C256   H161    1.067   .     S
C257   C258    1.308   .     S
C258   H162    1.067   .     S
C258   C259    1.301   .     D
C259   C254    1.310   1_655 S
C259   H163    1.066   1_655 S
H157   C286    1.069   .     S
H160   C255    1.067   1_455 S
H163   C259    1.066   1_455 S
N28    C260    1.442   .     S
N28    C437    1.442   .     D
C260   C261    1.311   .     D
C260   C265    1.305   .     S
C261   H164    1.067   .     S
C261   C262    1.290   .     S
C262   H165    1.067   .     S
C262   C263    1.309   .     D
C263   C264    1.318   .     S
C263   C458    1.502   .     S
C264   C265    1.310   .     D
C264   H166    1.067   .     S
C265   H167    1.067   .     S
C266   N34     1.442   .     D
F14    B5      1.389   .     S
C267   C268    1.314   .     D
C268   C269    1.315   .     S
C268   C270    1.310   .     S
C269   N29     1.274   .     S
C270   C271    1.310   .     D
C270   H170    1.067   .     S
C271   C272    1.314   .     S
C271   H171    1.067   .     S
C272   N29     1.267   .     D
N29    Cu5     1.998   1_655 S
C273   C274    1.305   1_655 S
C273   C278    1.310   1_655 D
C274   C275    1.302   .     D
C274   C273    1.305   1_455 S
C274   H172    1.067   1_455 S
C275   C276    1.317   .     S
C275   H173    1.067   .     S
C276   C277    1.308   .     D
C277   C278    1.301   .     S
C277   H174    1.067   .     S
C278   C273    1.310   1_455 D
C278   H175    1.066   1_455 S
H172   C274    1.067   1_655 S
H175   C278    1.066   1_655 S
N30    C399    1.442   .     D
N30    C279    1.442   .     S
C279   C284    1.305   .     D
C279   C280    1.311   .     S
C280   C281    1.290   .     D
C280   H176    1.067   .     S
C281   H177    1.067   .     S
C281   C282    1.309   .     S
C282   C283    1.318   .     D
C282   C460    1.502   .     S
C283   H178    1.067   .     S
C283   C284    1.310   .     S
C284   H179    1.067   .     S
C285   N36     1.442   .     D
F15    B6      1.389   .     S
C286   C287    1.314   .     D
C287   C288    1.315   .     S
C287   C289    1.310   .     S
C288   N31     1.274   .     S
C289   H182    1.067   .     S
C289   C290    1.310   .     D
C290   C291    1.314   .     S
C290   H183    1.067   .     S
C291   N31     1.267   .     D
N31    Cu5     1.998   .     S
C292   C293    1.305   1_455 S
C292   C297    1.310   1_455 D
C293   C294    1.302   .     D
C293   C292    1.305   1_655 S
C293   H184    1.067   1_655 S
C294   H185    1.067   .     S
C294   C295    1.317   .     S
C295   C296    1.308   .     D
C296   C297    1.301   .     S
C296   H186    1.067   .     S
C297   C292    1.310   1_655 D
C297   H187    1.066   1_655 S
H184   C293    1.067   1_455 S
H187   C297    1.066   1_455 S
N32    C298    1.442   .     S
N32    C456    1.442   .     D
C298   C299    1.311   .     S
C298   C303    1.305   .     D
C299   H188    1.067   .     S
C299   C300    1.290   .     D
C300   C301    1.309   .     S
C300   H189    1.067   .     S
C301   C459    1.502   .     S
C301   C302    1.318   .     D
C302   C303    1.310   .     S
C302   H190    1.067   .     S
C303   H191    1.067   .     S
C304   N40     1.442   .     D
F16    B5      1.389   .     S
C305   C306    1.314   .     D
C305   C343    1.314   .     S
C305   H217    1.069   .     S
C306   C308    1.310   .     S
C306   C307    1.315   .     S
C307   N33     1.274   .     S
C307   C345    1.317   .     D
C308   H194    1.067   .     S
C308   C309    1.310   .     D
C309   C310    1.314   .     S
C309   H195    1.067   .     S
C310   C349    1.418   .     S
C310   N33     1.267   .     D
N33    Cu6     1.998   .     S
C311   C348    1.418   .     S
C311   C312    1.305   1_554 D
C311   C316    1.310   1_554 S
C312   C313    1.302   .     S
C312   C311    1.305   1_556 D
C312   H196    1.067   1_556 S
C313   H197    1.067   .     S
C313   C314    1.317   .     D
C314   C315    1.308   .     S
C315   H198    1.067   .     S
C315   C316    1.301   .     D
C316   C311    1.310   1_556 S
C316   H199    1.066   1_556 S
H193   C343    1.069   .     S
H196   C312    1.067   1_554 S
H199   C316    1.066   1_554 S
N34    C317    1.442   .     S
C317   C318    1.311   .     D
C317   C322    1.305   .     S
C318   H200    1.067   .     S
C318   C319    1.290   .     S
C319   C320    1.309   .     D
C319   H201    1.067   .     S
C320   C321    1.318   .     S
C320   C460    1.502   .     S
C321   C322    1.310   .     D
C321   H202    1.067   .     S
C322   H203    1.067   .     S
C323   N46     1.442   .     D
F17    B3      1.389   .     S
C324   C362    1.314   .     S
C324   H229    1.069   .     S
C324   C325    1.314   .     D
C325   C326    1.315   .     S
C325   C327    1.310   .     S
C326   C364    1.317   .     D
C326   N35     1.274   .     S
C327   C328    1.310   .     D
C327   H206    1.067   .     S
C328   C329    1.314   .     S
C328   H207    1.067   .     S
C329   N35     1.267   .     D
C329   C368    1.418   .     S
N35    Cu6     1.998   1_556 S
C330   C367    1.418   .     S
C330   C331    1.305   1_556 D
C330   C335    1.310   1_556 S
C331   C332    1.302   .     S
C331   C330    1.305   1_554 D
C331   H208    1.067   1_554 S
C332   C333    1.317   .     D
C332   H209    1.067   .     S
C333   C334    1.308   .     S
C334   C335    1.301   .     D
C334   H210    1.067   .     S
C335   C330    1.310   1_554 S
C335   H211    1.066   1_554 S
H205   C362    1.069   .     S
H208   C331    1.067   1_556 S
H211   C335    1.066   1_556 S
N36    C336    1.442   .     S
C336   C341    1.305   .     D
C336   C337    1.311   .     S
C337   C338    1.290   .     D
C337   H212    1.067   .     S
C338   H213    1.067   .     S
C338   C339    1.309   .     S
C339   C340    1.318   .     D
C339   C458    1.502   .     S
C340   H214    1.067   .     S
C340   C341    1.310   .     S
C341   H215    1.067   .     S
C342   N42     1.442   .     D
F18    B4      1.389   .     S
C343   C344    1.314   .     D
C344   C346    1.310   .     S
C344   C345    1.315   .     S
C345   N37     1.274   .     S
C346   H218    1.067   .     S
C346   C347    1.310   .     D
C347   C348    1.314   .     S
C347   H219    1.067   .     S
C348   N37     1.267   .     D
N37    Cu6     1.998   .     S
C349   C350    1.305   1_554 S
C349   C354    1.310   1_554 D
C350   C351    1.302   .     D
C350   C349    1.305   1_556 S
C350   H220    1.067   1_556 S
C351   C352    1.317   .     S
C351   H221    1.067   .     S
C352   C353    1.308   .     D
C353   H222    1.067   .     S
C353   C354    1.301   .     S
C354   C349    1.310   1_556 D
C354   H223    1.066   1_556 S
H220   C350    1.067   1_554 S
H223   C354    1.066   1_554 S
N38    C355    1.442   .     S
C355   C356    1.311   .     S
C355   C360    1.305   .     D
C356   H224    1.067   .     S
C356   C357    1.290   .     D
C357   H225    1.067   .     S
C357   C358    1.309   .     S
C358   C359    1.318   .     D
C358   C459    1.502   .     S
C359   C360    1.310   .     S
C359   H226    1.067   .     S
C360   H227    1.067   .     S
C361   N44     1.442   .     D
F19    B3      1.389   .     S
C362   C363    1.314   .     D
C363   C364    1.315   .     S
C363   C365    1.310   .     S
C364   N39     1.274   .     S
C365   C366    1.310   .     D
C365   H230    1.067   .     S
C366   C367    1.314   .     S
C366   H231    1.067   .     S
C367   N39     1.267   .     D
N39    Cu6     1.998   1_556 S
C368   C369    1.305   1_556 S
C368   C373    1.310   1_556 D
C369   C370    1.302   .     D
C369   C368    1.305   1_554 S
C369   H232    1.067   1_554 S
C370   H233    1.067   .     S
C370   C371    1.317   .     S
C371   C372    1.308   .     D
C372   C373    1.301   .     S
C372   H234    1.067   .     S
C373   C368    1.310   1_554 D
C373   H235    1.066   1_554 S
H232   C369    1.067   1_556 S
H235   C373    1.066   1_556 S
N40    C374    1.442   .     S
C374   C375    1.311   .     S
C374   C379    1.305   .     D
C375   C376    1.290   .     D
C375   H236    1.067   .     S
C376   C377    1.309   .     S
C376   H237    1.067   .     S
C377   C457    1.502   .     S
C377   C378    1.318   .     D
C378   H238    1.067   .     S
C378   C379    1.310   .     S
C379   H239    1.067   .     S
C380   N48     1.442   .     D
F20    B4      1.389   .     S
C381   C419    1.314   .     S
C381   C382    1.314   .     D
C381   H265    1.069   .     S
C382   C384    1.310   .     S
C382   C383    1.315   .     S
C383   C421    1.317   .     D
C383   N41     1.274   .     S
C384   C385    1.310   .     D
C384   H242    1.067   .     S
C385   C386    1.314   .     S
C385   H243    1.067   .     S
C386   N41     1.267   .     D
C386   C425    1.418   .     S
N41    Cu4     1.998   1_565 S
C387   C424    1.418   .     S
C387   C388    1.305   1_565 D
C387   C392    1.310   1_565 S
C388   C389    1.302   .     S
C388   C387    1.305   1_545 D
C388   H244    1.067   1_545 S
C389   C390    1.317   .     D
C389   H245    1.067   .     S
C390   C391    1.308   .     S
C391   C392    1.301   .     D
C391   H246    1.067   .     S
C392   C387    1.310   1_545 S
C392   H247    1.066   1_545 S
H241   C419    1.069   .     S
H244   C388    1.067   1_565 S
H247   C392    1.066   1_565 S
N42    C393    1.442   .     S
C393   C398    1.305   .     D
C393   C394    1.311   .     S
C394   C395    1.290   .     D
C394   H248    1.067   .     S
C395   H249    1.067   .     S
C395   C396    1.309   .     S
C396   C397    1.318   .     D
C396   C459    1.502   .     S
C397   H250    1.067   .     S
C397   C398    1.310   .     S
C398   H251    1.067   .     S
F21    B2      1.389   .     S
C400   C401    1.314   .     D
C400   C438    1.314   .     S
C400   H277    1.069   .     S
C401   C402    1.315   .     S
C401   C403    1.310   .     S
C402   N43     1.274   .     S
C402   C440    1.317   .     D
C403   H254    1.067   .     S
C403   C404    1.310   .     D
C404   C405    1.314   .     S
C404   H255    1.067   .     S
C405   C444    1.418   .     S
C405   N43     1.267   .     D
N43    Cu4     1.998   .     S
C406   C443    1.418   .     S
C406   C407    1.305   1_545 D
C406   C411    1.310   1_545 S
C407   C408    1.302   .     S
C407   C406    1.305   1_565 D
C407   H256    1.067   1_565 S
C408   H257    1.067   .     S
C408   C409    1.317   .     D
C409   C410    1.308   .     S
C410   C411    1.301   .     D
C410   H258    1.067   .     S
C411   C406    1.310   1_565 S
C411   H259    1.066   1_565 S
H253   C438    1.069   .     S
H256   C407    1.067   1_545 S
H259   C411    1.066   1_545 S
N44    C412    1.442   .     S
C412   C413    1.311   .     D
C412   C417    1.305   .     S
C413   H260    1.067   .     S
C413   C414    1.290   .     S
C414   C415    1.309   .     D
C414   H261    1.067   .     S
C415   C458    1.502   .     S
C415   C416    1.318   .     S
C416   C417    1.310   .     D
C416   H262    1.067   .     S
C417   H263    1.067   .     S
F22    B1      1.389   .     S
C419   C420    1.314   .     D
C420   C421    1.315   .     S
C420   C422    1.310   .     S
C421   N45     1.274   .     S
C422   C423    1.310   .     D
C422   H266    1.067   .     S
C423   C424    1.314   .     S
C423   H267    1.067   .     S
C424   N45     1.267   .     D
N45    Cu4     1.998   1_565 S
C425   C426    1.305   1_565 S
C425   C430    1.310   1_565 D
C426   C427    1.302   .     D
C426   C425    1.305   1_545 S
C426   H268    1.067   1_545 S
C427   H269    1.067   .     S
C427   C428    1.317   .     S
C428   C429    1.308   .     D
C429   C430    1.301   .     S
C429   H270    1.067   .     S
C430   C425    1.310   1_545 D
C430   H271    1.066   1_545 S
H268   C426    1.067   1_565 S
H271   C430    1.066   1_565 S
N46    C431    1.442   .     S
C431   C432    1.311   .     S
C431   C436    1.305   .     D
C432   C433    1.290   .     D
C432   H272    1.067   .     S
C433   H273    1.067   .     S
C433   C434    1.309   .     S
C434   C457    1.502   .     S
C434   C435    1.318   .     D
C435   H274    1.067   .     S
C435   C436    1.310   .     S
C436   H275    1.067   .     S
F23    B2      1.389   .     S
C438   C439    1.314   .     D
C439   C441    1.310   .     S
C439   C440    1.315   .     S
C440   N47     1.274   .     S
C441   H278    1.067   .     S
C441   C442    1.310   .     D
C442   C443    1.314   .     S
C442   H279    1.067   .     S
C443   N47     1.267   .     D
N47    Cu4     1.998   .     S
C444   C445    1.305   1_545 S
C444   C449    1.310   1_545 D
C445   C446    1.302   .     D
C445   C444    1.305   1_565 S
C445   H280    1.067   1_565 S
C446   C447    1.317   .     S
C446   H281    1.067   .     S
C447   C448    1.308   .     D
C448   H282    1.067   .     S
C448   C449    1.301   .     S
C449   C444    1.310   1_565 D
C449   H283    1.066   1_565 S
H280   C445    1.067   1_545 S
H283   C449    1.066   1_545 S
N48    C450    1.442   .     S
C450   C455    1.305   .     D
C450   C451    1.311   .     S
C451   H284    1.067   .     S
C451   C452    1.290   .     D
C452   H285    1.067   .     S
C452   C453    1.309   .     S
C453   C454    1.318   .     D
C453   C460    1.502   .     S
C454   C455    1.310   .     S
C454   H286    1.067   .     S
C455   H287    1.067   .     S
F24    B1      1.389   .     S
C457   O44     1.510   .     S
C458   O43     1.510   .     S
C459   O41     1.510   .     S
C460   O42     1.510   .     S
C461   O40     1.510   .     S
C462   O39     1.510   .     S
C463   O37     1.510   .     S
C464   O38     1.510   .     S
Cu1    N17     1.998   1_554 S
Cu1    N21     1.998   1_545 S
Cu1    N23     1.998   1_544 S
Cu2    N1      1.998   1_455 S
Cu2    N5      1.998   1_554 S
Cu2    N7      1.998   1_454 S
Cu3    N9      1.998   1_545 S
Cu3    N13     1.998   1_455 S
Cu3    N15     1.998   1_445 S
Cu4    N41     1.998   1_545 S
Cu4    N45     1.998   1_545 S
Cu5    N25     1.998   1_455 S
Cu5    N29     1.998   1_455 S
Cu6    N35     1.998   1_554 S
Cu6    N39     1.998   1_554 S
