data_1207
_audit_creation_date              2023-09-08
_audit_creation_method            'Materials Studio'
_symmetry_space_group_name_H-M    'P1'
_symmetry_Int_Tables_number       1
_symmetry_cell_setting            triclinic
loop_
_symmetry_equiv_pos_as_xyz
  x,y,z
_cell_length_a                    27.8544
_cell_length_b                    27.8544
_cell_length_c                    27.8544
_cell_angle_alpha                 90.0000
_cell_angle_beta                  90.0000
_cell_angle_gamma                 90.0000
loop_
_atom_site_label
_atom_site_type_symbol
_atom_site_fract_x
_atom_site_fract_y
_atom_site_fract_z
_atom_site_U_iso_or_equiv
_atom_site_adp_type
_atom_site_occupancy
C1     C     0.98183   0.32099   0.01740   0.00000  Uiso   1.00
C2     C     0.96366   0.36443   0.03510   0.00000  Uiso   1.00
C3     C     0.98181   0.40798   0.01747   0.00000  Uiso   1.00
C4     C     0.92829   0.36590   0.07064   0.00000  Uiso   1.00
C5     C     0.91392   0.41006   0.08964   0.00000  Uiso   1.00
C6     C     0.93421   0.45263   0.07203   0.00000  Uiso   1.00
N1     N     0.96537   0.45051   0.03488   0.00000  Uiso   1.00
C7     C     0.07142   0.49687   0.90085   0.00000  Uiso   1.00
C8     C     0.07316   0.53929   0.92719   0.00000  Uiso   1.00
C9     C     0.07094   0.58320   0.90365   0.00000  Uiso   1.00
C10    C     0.06750   0.58493   0.85337   0.00000  Uiso   1.00
C11    C     0.06956   0.54230   0.82713   0.00000  Uiso   1.00
C12    C     0.07160   0.49846   0.85072   0.00000  Uiso   1.00
H1     H     0.03295   0.28545   0.96870   0.00000  Uiso   1.00
H2     H     0.91130   0.33123   0.08399   0.00000  Uiso   1.00
H3     H     0.88586   0.41138   0.11930   0.00000  Uiso   1.00
H4     H     0.07639   0.53794   0.96789   0.00000  Uiso   1.00
H5     H     0.07190   0.61795   0.92510   0.00000  Uiso   1.00
H6     H     0.06957   0.54343   0.78630   0.00000  Uiso   1.00
H7     H     0.07343   0.46379   0.82920   0.00000  Uiso   1.00
N2     N     0.63647   0.82988   0.43817   0.00000  Uiso   1.00
C13    C     0.64369   0.78884   0.42140   0.00000  Uiso   1.00
C14    C     0.65454   0.78625   0.37246   0.00000  Uiso   1.00
C15    C     0.65514   0.74266   0.34919   0.00000  Uiso   1.00
C16    C     0.64594   0.70038   0.37453   0.00000  Uiso   1.00
C17    C     0.63503   0.70275   0.42377   0.00000  Uiso   1.00
C18    C     0.63303   0.74720   0.44691   0.00000  Uiso   1.00
H8     H     0.66294   0.82033   0.35157   0.00000  Uiso   1.00
H9     H     0.66316   0.74099   0.30917   0.00000  Uiso   1.00
H10    H     0.62784   0.66846   0.44478   0.00000  Uiso   1.00
H11    H     0.62276   0.74950   0.48638   0.00000  Uiso   1.00
C19    C     0.57198   0.32790   0.86946   0.00000  Uiso   1.00
F1     F     0.97373   0.78887   0.54762   0.00000  Uiso   1.00
F2     F     0.94903   0.73477   0.60568   0.00000  Uiso   1.00
O1     O     0.77433   0.96478   0.61456   0.00000  Uiso   1.00
H12    H     0.21187   0.08164   0.36909   0.00000  Uiso   1.00
C20    C     0.01817   0.67901   0.01740   0.00000  Uiso   1.00
C21    C     0.03634   0.63557   0.03510   0.00000  Uiso   1.00
C22    C     0.01819   0.59202   0.01747   0.00000  Uiso   1.00
C23    C     0.07171   0.63410   0.07064   0.00000  Uiso   1.00
C24    C     0.08608   0.58994   0.08964   0.00000  Uiso   1.00
C25    C     0.06579   0.54737   0.07203   0.00000  Uiso   1.00
N3     N     0.03463   0.54949   0.03488   0.00000  Uiso   1.00
C26    C     0.92858   0.50313   0.90085   0.00000  Uiso   1.00
C27    C     0.92684   0.46071   0.92719   0.00000  Uiso   1.00
C28    C     0.92906   0.41680   0.90365   0.00000  Uiso   1.00
C29    C     0.93250   0.41507   0.85337   0.00000  Uiso   1.00
C30    C     0.93044   0.45770   0.82713   0.00000  Uiso   1.00
C31    C     0.92840   0.50154   0.85072   0.00000  Uiso   1.00
H13    H     0.96705   0.71455   0.96870   0.00000  Uiso   1.00
H14    H     0.08870   0.66877   0.08399   0.00000  Uiso   1.00
H15    H     0.11414   0.58862   0.11930   0.00000  Uiso   1.00
H16    H     0.92361   0.46206   0.96789   0.00000  Uiso   1.00
H17    H     0.92810   0.38205   0.92510   0.00000  Uiso   1.00
H18    H     0.93043   0.45657   0.78630   0.00000  Uiso   1.00
H19    H     0.92657   0.53621   0.82920   0.00000  Uiso   1.00
N4     N     0.36353   0.17012   0.43817   0.00000  Uiso   1.00
C32    C     0.35631   0.21116   0.42140   0.00000  Uiso   1.00
C33    C     0.34546   0.21375   0.37246   0.00000  Uiso   1.00
C34    C     0.34486   0.25734   0.34919   0.00000  Uiso   1.00
C35    C     0.35406   0.29962   0.37453   0.00000  Uiso   1.00
C36    C     0.36497   0.29725   0.42377   0.00000  Uiso   1.00
C37    C     0.36697   0.25280   0.44691   0.00000  Uiso   1.00
H20    H     0.33706   0.17967   0.35157   0.00000  Uiso   1.00
H21    H     0.33684   0.25901   0.30917   0.00000  Uiso   1.00
H22    H     0.37216   0.33154   0.44478   0.00000  Uiso   1.00
H23    H     0.37724   0.25050   0.48638   0.00000  Uiso   1.00
C38    C     0.42802   0.67210   0.86946   0.00000  Uiso   1.00
F3     F     0.02627   0.21113   0.54762   0.00000  Uiso   1.00
F4     F     0.05097   0.26523   0.60568   0.00000  Uiso   1.00
O2     O     0.22567   0.03522   0.61456   0.00000  Uiso   1.00
H24    H     0.78813   0.91836   0.36909   0.00000  Uiso   1.00
C39    C     0.01817   0.32099   0.98260   0.00000  Uiso   1.00
C40    C     0.03634   0.36443   0.96490   0.00000  Uiso   1.00
C41    C     0.01819   0.40798   0.98253   0.00000  Uiso   1.00
C42    C     0.07171   0.36590   0.92936   0.00000  Uiso   1.00
C43    C     0.08608   0.41006   0.91036   0.00000  Uiso   1.00
C44    C     0.06579   0.45263   0.92797   0.00000  Uiso   1.00
N5     N     0.03463   0.45051   0.96512   0.00000  Uiso   1.00
C45    C     0.92858   0.49687   0.09915   0.00000  Uiso   1.00
C46    C     0.92684   0.53929   0.07281   0.00000  Uiso   1.00
C47    C     0.92906   0.58320   0.09635   0.00000  Uiso   1.00
C48    C     0.93250   0.58493   0.14663   0.00000  Uiso   1.00
C49    C     0.93044   0.54230   0.17287   0.00000  Uiso   1.00
C50    C     0.92840   0.49846   0.14928   0.00000  Uiso   1.00
H25    H     0.96705   0.28545   0.03130   0.00000  Uiso   1.00
H26    H     0.08870   0.33123   0.91601   0.00000  Uiso   1.00
H27    H     0.11414   0.41138   0.88070   0.00000  Uiso   1.00
H28    H     0.92361   0.53794   0.03211   0.00000  Uiso   1.00
H29    H     0.92810   0.61795   0.07490   0.00000  Uiso   1.00
H30    H     0.93043   0.54343   0.21370   0.00000  Uiso   1.00
H31    H     0.92657   0.46379   0.17080   0.00000  Uiso   1.00
N6     N     0.36353   0.82988   0.56183   0.00000  Uiso   1.00
C51    C     0.35631   0.78884   0.57860   0.00000  Uiso   1.00
C52    C     0.34546   0.78625   0.62754   0.00000  Uiso   1.00
C53    C     0.34486   0.74266   0.65081   0.00000  Uiso   1.00
C54    C     0.35406   0.70038   0.62547   0.00000  Uiso   1.00
C55    C     0.36497   0.70275   0.57623   0.00000  Uiso   1.00
C56    C     0.36697   0.74720   0.55309   0.00000  Uiso   1.00
H32    H     0.33706   0.82033   0.64843   0.00000  Uiso   1.00
H33    H     0.33684   0.74099   0.69083   0.00000  Uiso   1.00
H34    H     0.37216   0.66846   0.55522   0.00000  Uiso   1.00
H35    H     0.37724   0.74950   0.51362   0.00000  Uiso   1.00
C57    C     0.42802   0.32790   0.13054   0.00000  Uiso   1.00
F5     F     0.02627   0.78887   0.45238   0.00000  Uiso   1.00
F6     F     0.05097   0.73477   0.39432   0.00000  Uiso   1.00
O3     O     0.22567   0.96478   0.38544   0.00000  Uiso   1.00
H36    H     0.78813   0.08164   0.63091   0.00000  Uiso   1.00
C58    C     0.98183   0.67901   0.98260   0.00000  Uiso   1.00
C59    C     0.96366   0.63557   0.96490   0.00000  Uiso   1.00
C60    C     0.98181   0.59202   0.98253   0.00000  Uiso   1.00
C61    C     0.92829   0.63410   0.92936   0.00000  Uiso   1.00
C62    C     0.91392   0.58994   0.91036   0.00000  Uiso   1.00
C63    C     0.93421   0.54737   0.92797   0.00000  Uiso   1.00
N7     N     0.96537   0.54949   0.96512   0.00000  Uiso   1.00
C64    C     0.07142   0.50313   0.09915   0.00000  Uiso   1.00
C65    C     0.07316   0.46071   0.07281   0.00000  Uiso   1.00
C66    C     0.07094   0.41680   0.09635   0.00000  Uiso   1.00
C67    C     0.06750   0.41507   0.14663   0.00000  Uiso   1.00
C68    C     0.06956   0.45770   0.17287   0.00000  Uiso   1.00
C69    C     0.07160   0.50154   0.14928   0.00000  Uiso   1.00
H37    H     0.03295   0.71455   0.03130   0.00000  Uiso   1.00
H38    H     0.91130   0.66877   0.91601   0.00000  Uiso   1.00
H39    H     0.88586   0.58862   0.88070   0.00000  Uiso   1.00
H40    H     0.07639   0.46206   0.03211   0.00000  Uiso   1.00
H41    H     0.07190   0.38205   0.07490   0.00000  Uiso   1.00
H42    H     0.06957   0.45657   0.21370   0.00000  Uiso   1.00
H43    H     0.07343   0.53621   0.17080   0.00000  Uiso   1.00
N8     N     0.63647   0.17012   0.56183   0.00000  Uiso   1.00
C70    C     0.64369   0.21116   0.57860   0.00000  Uiso   1.00
C71    C     0.65454   0.21375   0.62754   0.00000  Uiso   1.00
C72    C     0.65514   0.25734   0.65081   0.00000  Uiso   1.00
C73    C     0.64594   0.29962   0.62547   0.00000  Uiso   1.00
C74    C     0.63503   0.29725   0.57623   0.00000  Uiso   1.00
C75    C     0.63303   0.25280   0.55309   0.00000  Uiso   1.00
H44    H     0.66294   0.17967   0.64843   0.00000  Uiso   1.00
H45    H     0.66316   0.25901   0.69083   0.00000  Uiso   1.00
H46    H     0.62784   0.33154   0.55522   0.00000  Uiso   1.00
H47    H     0.62276   0.25050   0.51362   0.00000  Uiso   1.00
C76    C     0.57198   0.67210   0.13054   0.00000  Uiso   1.00
F7     F     0.97373   0.21113   0.45238   0.00000  Uiso   1.00
F8     F     0.94903   0.26523   0.39432   0.00000  Uiso   1.00
O4     O     0.77433   0.03522   0.38544   0.00000  Uiso   1.00
H48    H     0.21187   0.91836   0.63091   0.00000  Uiso   1.00
C77    C     0.01740   0.98183   0.32099   0.00000  Uiso   1.00
C78    C     0.03510   0.96366   0.36443   0.00000  Uiso   1.00
C79    C     0.01747   0.98181   0.40798   0.00000  Uiso   1.00
C80    C     0.07064   0.92829   0.36590   0.00000  Uiso   1.00
C81    C     0.08964   0.91392   0.41006   0.00000  Uiso   1.00
C82    C     0.07203   0.93421   0.45263   0.00000  Uiso   1.00
N9     N     0.03488   0.96537   0.45051   0.00000  Uiso   1.00
C83    C     0.90085   0.07142   0.49687   0.00000  Uiso   1.00
C84    C     0.92719   0.07316   0.53929   0.00000  Uiso   1.00
C85    C     0.90365   0.07094   0.58320   0.00000  Uiso   1.00
C86    C     0.85337   0.06750   0.58493   0.00000  Uiso   1.00
C87    C     0.82713   0.06956   0.54230   0.00000  Uiso   1.00
C88    C     0.85072   0.07160   0.49846   0.00000  Uiso   1.00
H49    H     0.96870   0.03295   0.28545   0.00000  Uiso   1.00
H50    H     0.08399   0.91130   0.33123   0.00000  Uiso   1.00
H51    H     0.11930   0.88586   0.41138   0.00000  Uiso   1.00
H52    H     0.96789   0.07639   0.53794   0.00000  Uiso   1.00
H53    H     0.92510   0.07190   0.61795   0.00000  Uiso   1.00
H54    H     0.78630   0.06957   0.54343   0.00000  Uiso   1.00
H55    H     0.82920   0.07343   0.46379   0.00000  Uiso   1.00
N10    N     0.43817   0.63647   0.82988   0.00000  Uiso   1.00
C89    C     0.42140   0.64369   0.78884   0.00000  Uiso   1.00
C90    C     0.37246   0.65454   0.78625   0.00000  Uiso   1.00
C91    C     0.34919   0.65514   0.74266   0.00000  Uiso   1.00
C92    C     0.37453   0.64594   0.70038   0.00000  Uiso   1.00
C93    C     0.42377   0.63503   0.70275   0.00000  Uiso   1.00
C94    C     0.44691   0.63303   0.74720   0.00000  Uiso   1.00
H56    H     0.35157   0.66294   0.82033   0.00000  Uiso   1.00
H57    H     0.30917   0.66316   0.74099   0.00000  Uiso   1.00
H58    H     0.44478   0.62784   0.66846   0.00000  Uiso   1.00
H59    H     0.48638   0.62276   0.74950   0.00000  Uiso   1.00
C95    C     0.86946   0.57198   0.32790   0.00000  Uiso   1.00
F9     F     0.54762   0.97373   0.78887   0.00000  Uiso   1.00
F10    F     0.60568   0.94903   0.73477   0.00000  Uiso   1.00
O5     O     0.61456   0.77433   0.96478   0.00000  Uiso   1.00
H60    H     0.36909   0.21187   0.08164   0.00000  Uiso   1.00
C96    C     0.01740   0.01817   0.67901   0.00000  Uiso   1.00
C97    C     0.03510   0.03634   0.63557   0.00000  Uiso   1.00
C98    C     0.01747   0.01819   0.59202   0.00000  Uiso   1.00
C99    C     0.07064   0.07171   0.63410   0.00000  Uiso   1.00
C100   C     0.08964   0.08608   0.58994   0.00000  Uiso   1.00
C101   C     0.07203   0.06579   0.54737   0.00000  Uiso   1.00
N11    N     0.03488   0.03463   0.54949   0.00000  Uiso   1.00
C102   C     0.90085   0.92858   0.50313   0.00000  Uiso   1.00
C103   C     0.92719   0.92684   0.46071   0.00000  Uiso   1.00
C104   C     0.90365   0.92906   0.41680   0.00000  Uiso   1.00
C105   C     0.85337   0.93250   0.41507   0.00000  Uiso   1.00
C106   C     0.82713   0.93044   0.45770   0.00000  Uiso   1.00
C107   C     0.85072   0.92840   0.50154   0.00000  Uiso   1.00
H61    H     0.96870   0.96705   0.71455   0.00000  Uiso   1.00
H62    H     0.08399   0.08870   0.66877   0.00000  Uiso   1.00
H63    H     0.11930   0.11414   0.58862   0.00000  Uiso   1.00
H64    H     0.96789   0.92361   0.46206   0.00000  Uiso   1.00
H65    H     0.92510   0.92810   0.38205   0.00000  Uiso   1.00
H66    H     0.78630   0.93043   0.45657   0.00000  Uiso   1.00
H67    H     0.82920   0.92657   0.53621   0.00000  Uiso   1.00
N12    N     0.43817   0.36353   0.17012   0.00000  Uiso   1.00
C108   C     0.42140   0.35631   0.21116   0.00000  Uiso   1.00
C109   C     0.37246   0.34546   0.21375   0.00000  Uiso   1.00
C110   C     0.34919   0.34486   0.25734   0.00000  Uiso   1.00
C111   C     0.37453   0.35406   0.29962   0.00000  Uiso   1.00
C112   C     0.42377   0.36497   0.29725   0.00000  Uiso   1.00
C113   C     0.44691   0.36697   0.25280   0.00000  Uiso   1.00
H68    H     0.35157   0.33706   0.17967   0.00000  Uiso   1.00
H69    H     0.30917   0.33684   0.25901   0.00000  Uiso   1.00
H70    H     0.44478   0.37216   0.33154   0.00000  Uiso   1.00
H71    H     0.48638   0.37724   0.25050   0.00000  Uiso   1.00
C114   C     0.86946   0.42802   0.67210   0.00000  Uiso   1.00
F11    F     0.54762   0.02627   0.21113   0.00000  Uiso   1.00
F12    F     0.60568   0.05097   0.26523   0.00000  Uiso   1.00
O6     O     0.61456   0.22567   0.03522   0.00000  Uiso   1.00
H72    H     0.36909   0.78813   0.91836   0.00000  Uiso   1.00
C115   C     0.98260   0.01817   0.32099   0.00000  Uiso   1.00
C116   C     0.96490   0.03634   0.36443   0.00000  Uiso   1.00
C117   C     0.98253   0.01819   0.40798   0.00000  Uiso   1.00
C118   C     0.92936   0.07171   0.36590   0.00000  Uiso   1.00
C119   C     0.91036   0.08608   0.41006   0.00000  Uiso   1.00
C120   C     0.92797   0.06579   0.45263   0.00000  Uiso   1.00
N13    N     0.96512   0.03463   0.45051   0.00000  Uiso   1.00
C121   C     0.09915   0.92858   0.49687   0.00000  Uiso   1.00
C122   C     0.07281   0.92684   0.53929   0.00000  Uiso   1.00
C123   C     0.09635   0.92906   0.58320   0.00000  Uiso   1.00
C124   C     0.14663   0.93250   0.58493   0.00000  Uiso   1.00
C125   C     0.17287   0.93044   0.54230   0.00000  Uiso   1.00
C126   C     0.14928   0.92840   0.49846   0.00000  Uiso   1.00
H73    H     0.03130   0.96705   0.28545   0.00000  Uiso   1.00
H74    H     0.91601   0.08870   0.33123   0.00000  Uiso   1.00
H75    H     0.88070   0.11414   0.41138   0.00000  Uiso   1.00
H76    H     0.03211   0.92361   0.53794   0.00000  Uiso   1.00
H77    H     0.07490   0.92810   0.61795   0.00000  Uiso   1.00
H78    H     0.21370   0.93043   0.54343   0.00000  Uiso   1.00
H79    H     0.17080   0.92657   0.46379   0.00000  Uiso   1.00
N14    N     0.56183   0.36353   0.82988   0.00000  Uiso   1.00
C127   C     0.57860   0.35631   0.78884   0.00000  Uiso   1.00
C128   C     0.62754   0.34546   0.78625   0.00000  Uiso   1.00
C129   C     0.65081   0.34486   0.74266   0.00000  Uiso   1.00
C130   C     0.62547   0.35406   0.70038   0.00000  Uiso   1.00
C131   C     0.57623   0.36497   0.70275   0.00000  Uiso   1.00
C132   C     0.55309   0.36697   0.74720   0.00000  Uiso   1.00
H80    H     0.64843   0.33706   0.82033   0.00000  Uiso   1.00
H81    H     0.69083   0.33684   0.74099   0.00000  Uiso   1.00
H82    H     0.55522   0.37216   0.66846   0.00000  Uiso   1.00
H83    H     0.51362   0.37724   0.74950   0.00000  Uiso   1.00
C133   C     0.13054   0.42802   0.32790   0.00000  Uiso   1.00
F13    F     0.45238   0.02627   0.78887   0.00000  Uiso   1.00
F14    F     0.39432   0.05097   0.73477   0.00000  Uiso   1.00
O7     O     0.38544   0.22567   0.96478   0.00000  Uiso   1.00
H84    H     0.63091   0.78813   0.08164   0.00000  Uiso   1.00
C134   C     0.98260   0.98183   0.67901   0.00000  Uiso   1.00
C135   C     0.96490   0.96366   0.63557   0.00000  Uiso   1.00
C136   C     0.98253   0.98181   0.59202   0.00000  Uiso   1.00
C137   C     0.92936   0.92829   0.63410   0.00000  Uiso   1.00
C138   C     0.91036   0.91392   0.58994   0.00000  Uiso   1.00
C139   C     0.92797   0.93421   0.54737   0.00000  Uiso   1.00
N15    N     0.96512   0.96537   0.54949   0.00000  Uiso   1.00
C140   C     0.09915   0.07142   0.50313   0.00000  Uiso   1.00
C141   C     0.07281   0.07316   0.46071   0.00000  Uiso   1.00
C142   C     0.09635   0.07094   0.41680   0.00000  Uiso   1.00
C143   C     0.14663   0.06750   0.41507   0.00000  Uiso   1.00
C144   C     0.17287   0.06956   0.45770   0.00000  Uiso   1.00
C145   C     0.14928   0.07160   0.50154   0.00000  Uiso   1.00
H85    H     0.03130   0.03295   0.71455   0.00000  Uiso   1.00
H86    H     0.91601   0.91130   0.66877   0.00000  Uiso   1.00
H87    H     0.88070   0.88586   0.58862   0.00000  Uiso   1.00
H88    H     0.03211   0.07639   0.46206   0.00000  Uiso   1.00
H89    H     0.07490   0.07190   0.38205   0.00000  Uiso   1.00
H90    H     0.21370   0.06957   0.45657   0.00000  Uiso   1.00
H91    H     0.17080   0.07343   0.53621   0.00000  Uiso   1.00
N16    N     0.56183   0.63647   0.17012   0.00000  Uiso   1.00
C146   C     0.57860   0.64369   0.21116   0.00000  Uiso   1.00
C147   C     0.62754   0.65454   0.21375   0.00000  Uiso   1.00
C148   C     0.65081   0.65514   0.25734   0.00000  Uiso   1.00
C149   C     0.62547   0.64594   0.29962   0.00000  Uiso   1.00
C150   C     0.57623   0.63503   0.29725   0.00000  Uiso   1.00
C151   C     0.55309   0.63303   0.25280   0.00000  Uiso   1.00
H92    H     0.64843   0.66294   0.17967   0.00000  Uiso   1.00
H93    H     0.69083   0.66316   0.25901   0.00000  Uiso   1.00
H94    H     0.55522   0.62784   0.33154   0.00000  Uiso   1.00
H95    H     0.51362   0.62276   0.25050   0.00000  Uiso   1.00
C152   C     0.13054   0.57198   0.67210   0.00000  Uiso   1.00
F15    F     0.45238   0.97373   0.21113   0.00000  Uiso   1.00
F16    F     0.39432   0.94903   0.26523   0.00000  Uiso   1.00
O8     O     0.38544   0.77433   0.03522   0.00000  Uiso   1.00
H96    H     0.63091   0.21187   0.91836   0.00000  Uiso   1.00
C153   C     0.32099   0.01740   0.98183   0.00000  Uiso   1.00
C154   C     0.36443   0.03510   0.96366   0.00000  Uiso   1.00
C155   C     0.40798   0.01747   0.98181   0.00000  Uiso   1.00
C156   C     0.36590   0.07064   0.92829   0.00000  Uiso   1.00
C157   C     0.41006   0.08964   0.91392   0.00000  Uiso   1.00
C158   C     0.45263   0.07203   0.93421   0.00000  Uiso   1.00
N17    N     0.45051   0.03488   0.96537   0.00000  Uiso   1.00
C159   C     0.49687   0.90085   0.07142   0.00000  Uiso   1.00
C160   C     0.53929   0.92719   0.07316   0.00000  Uiso   1.00
C161   C     0.58320   0.90365   0.07094   0.00000  Uiso   1.00
C162   C     0.58493   0.85337   0.06750   0.00000  Uiso   1.00
C163   C     0.54230   0.82713   0.06956   0.00000  Uiso   1.00
C164   C     0.49846   0.85072   0.07160   0.00000  Uiso   1.00
H97    H     0.28545   0.96870   0.03295   0.00000  Uiso   1.00
H98    H     0.33123   0.08399   0.91130   0.00000  Uiso   1.00
H99    H     0.41138   0.11930   0.88586   0.00000  Uiso   1.00
H100   H     0.53794   0.96789   0.07639   0.00000  Uiso   1.00
H101   H     0.61795   0.92510   0.07190   0.00000  Uiso   1.00
H102   H     0.54343   0.78630   0.06957   0.00000  Uiso   1.00
H103   H     0.46379   0.82920   0.07343   0.00000  Uiso   1.00
N18    N     0.82988   0.43817   0.63647   0.00000  Uiso   1.00
C165   C     0.78884   0.42140   0.64369   0.00000  Uiso   1.00
C166   C     0.78625   0.37246   0.65454   0.00000  Uiso   1.00
C167   C     0.74266   0.34919   0.65514   0.00000  Uiso   1.00
C168   C     0.70038   0.37453   0.64594   0.00000  Uiso   1.00
C169   C     0.70275   0.42377   0.63503   0.00000  Uiso   1.00
C170   C     0.74720   0.44691   0.63303   0.00000  Uiso   1.00
H104   H     0.82033   0.35157   0.66294   0.00000  Uiso   1.00
H105   H     0.74099   0.30917   0.66316   0.00000  Uiso   1.00
H106   H     0.66846   0.44478   0.62784   0.00000  Uiso   1.00
H107   H     0.74950   0.48638   0.62276   0.00000  Uiso   1.00
C171   C     0.32790   0.86946   0.57198   0.00000  Uiso   1.00
F17    F     0.78887   0.54762   0.97373   0.00000  Uiso   1.00
F18    F     0.73477   0.60568   0.94903   0.00000  Uiso   1.00
O9     O     0.96478   0.61456   0.77433   0.00000  Uiso   1.00
H108   H     0.08164   0.36909   0.21187   0.00000  Uiso   1.00
C172   C     0.67901   0.01740   0.01817   0.00000  Uiso   1.00
C173   C     0.63557   0.03510   0.03634   0.00000  Uiso   1.00
C174   C     0.59202   0.01747   0.01819   0.00000  Uiso   1.00
C175   C     0.63410   0.07064   0.07171   0.00000  Uiso   1.00
C176   C     0.58994   0.08964   0.08608   0.00000  Uiso   1.00
C177   C     0.54737   0.07203   0.06579   0.00000  Uiso   1.00
N19    N     0.54949   0.03488   0.03463   0.00000  Uiso   1.00
C178   C     0.50313   0.90085   0.92858   0.00000  Uiso   1.00
C179   C     0.46071   0.92719   0.92684   0.00000  Uiso   1.00
C180   C     0.41680   0.90365   0.92906   0.00000  Uiso   1.00
C181   C     0.41507   0.85337   0.93250   0.00000  Uiso   1.00
C182   C     0.45770   0.82713   0.93044   0.00000  Uiso   1.00
C183   C     0.50154   0.85072   0.92840   0.00000  Uiso   1.00
H109   H     0.71455   0.96870   0.96705   0.00000  Uiso   1.00
H110   H     0.66877   0.08399   0.08870   0.00000  Uiso   1.00
H111   H     0.58862   0.11930   0.11414   0.00000  Uiso   1.00
H112   H     0.46206   0.96789   0.92361   0.00000  Uiso   1.00
H113   H     0.38205   0.92510   0.92810   0.00000  Uiso   1.00
H114   H     0.45657   0.78630   0.93043   0.00000  Uiso   1.00
H115   H     0.53621   0.82920   0.92657   0.00000  Uiso   1.00
N20    N     0.17012   0.43817   0.36353   0.00000  Uiso   1.00
C184   C     0.21116   0.42140   0.35631   0.00000  Uiso   1.00
C185   C     0.21375   0.37246   0.34546   0.00000  Uiso   1.00
C186   C     0.25734   0.34919   0.34486   0.00000  Uiso   1.00
C187   C     0.29962   0.37453   0.35406   0.00000  Uiso   1.00
C188   C     0.29725   0.42377   0.36497   0.00000  Uiso   1.00
C189   C     0.25280   0.44691   0.36697   0.00000  Uiso   1.00
H116   H     0.17967   0.35157   0.33706   0.00000  Uiso   1.00
H117   H     0.25901   0.30917   0.33684   0.00000  Uiso   1.00
H118   H     0.33154   0.44478   0.37216   0.00000  Uiso   1.00
H119   H     0.25050   0.48638   0.37724   0.00000  Uiso   1.00
C190   C     0.67210   0.86946   0.42802   0.00000  Uiso   1.00
F19    F     0.21113   0.54762   0.02627   0.00000  Uiso   1.00
F20    F     0.26523   0.60568   0.05097   0.00000  Uiso   1.00
O10    O     0.03522   0.61456   0.22567   0.00000  Uiso   1.00
H120   H     0.91836   0.36909   0.78813   0.00000  Uiso   1.00
C191   C     0.32099   0.98260   0.01817   0.00000  Uiso   1.00
C192   C     0.36443   0.96490   0.03634   0.00000  Uiso   1.00
C193   C     0.40798   0.98253   0.01819   0.00000  Uiso   1.00
C194   C     0.36590   0.92936   0.07171   0.00000  Uiso   1.00
C195   C     0.41006   0.91036   0.08608   0.00000  Uiso   1.00
C196   C     0.45263   0.92797   0.06579   0.00000  Uiso   1.00
N21    N     0.45051   0.96512   0.03463   0.00000  Uiso   1.00
C197   C     0.49687   0.09915   0.92858   0.00000  Uiso   1.00
C198   C     0.53929   0.07281   0.92684   0.00000  Uiso   1.00
C199   C     0.58320   0.09635   0.92906   0.00000  Uiso   1.00
C200   C     0.58493   0.14663   0.93250   0.00000  Uiso   1.00
C201   C     0.54230   0.17287   0.93044   0.00000  Uiso   1.00
C202   C     0.49846   0.14928   0.92840   0.00000  Uiso   1.00
H121   H     0.28545   0.03130   0.96705   0.00000  Uiso   1.00
H122   H     0.33123   0.91601   0.08870   0.00000  Uiso   1.00
H123   H     0.41138   0.88070   0.11414   0.00000  Uiso   1.00
H124   H     0.53794   0.03211   0.92361   0.00000  Uiso   1.00
H125   H     0.61795   0.07490   0.92810   0.00000  Uiso   1.00
H126   H     0.54343   0.21370   0.93043   0.00000  Uiso   1.00
H127   H     0.46379   0.17080   0.92657   0.00000  Uiso   1.00
N22    N     0.82988   0.56183   0.36353   0.00000  Uiso   1.00
C203   C     0.78884   0.57860   0.35631   0.00000  Uiso   1.00
C204   C     0.78625   0.62754   0.34546   0.00000  Uiso   1.00
C205   C     0.74266   0.65081   0.34486   0.00000  Uiso   1.00
C206   C     0.70038   0.62547   0.35406   0.00000  Uiso   1.00
C207   C     0.70275   0.57623   0.36497   0.00000  Uiso   1.00
C208   C     0.74720   0.55309   0.36697   0.00000  Uiso   1.00
H128   H     0.82033   0.64843   0.33706   0.00000  Uiso   1.00
H129   H     0.74099   0.69083   0.33684   0.00000  Uiso   1.00
H130   H     0.66846   0.55522   0.37216   0.00000  Uiso   1.00
H131   H     0.74950   0.51362   0.37724   0.00000  Uiso   1.00
C209   C     0.32790   0.13054   0.42802   0.00000  Uiso   1.00
F21    F     0.78887   0.45238   0.02627   0.00000  Uiso   1.00
F22    F     0.73477   0.39432   0.05097   0.00000  Uiso   1.00
O11    O     0.96478   0.38544   0.22567   0.00000  Uiso   1.00
H132   H     0.08164   0.63091   0.78813   0.00000  Uiso   1.00
C210   C     0.67901   0.98260   0.98183   0.00000  Uiso   1.00
C211   C     0.63557   0.96490   0.96366   0.00000  Uiso   1.00
C212   C     0.59202   0.98253   0.98181   0.00000  Uiso   1.00
C213   C     0.63410   0.92936   0.92829   0.00000  Uiso   1.00
C214   C     0.58994   0.91036   0.91392   0.00000  Uiso   1.00
C215   C     0.54737   0.92797   0.93421   0.00000  Uiso   1.00
N23    N     0.54949   0.96512   0.96537   0.00000  Uiso   1.00
C216   C     0.50313   0.09915   0.07142   0.00000  Uiso   1.00
C217   C     0.46071   0.07281   0.07316   0.00000  Uiso   1.00
C218   C     0.41680   0.09635   0.07094   0.00000  Uiso   1.00
C219   C     0.41507   0.14663   0.06750   0.00000  Uiso   1.00
C220   C     0.45770   0.17287   0.06956   0.00000  Uiso   1.00
C221   C     0.50154   0.14928   0.07160   0.00000  Uiso   1.00
H133   H     0.71455   0.03130   0.03295   0.00000  Uiso   1.00
H134   H     0.66877   0.91601   0.91130   0.00000  Uiso   1.00
H135   H     0.58862   0.88070   0.88586   0.00000  Uiso   1.00
H136   H     0.46206   0.03211   0.07639   0.00000  Uiso   1.00
H137   H     0.38205   0.07490   0.07190   0.00000  Uiso   1.00
H138   H     0.45657   0.21370   0.06957   0.00000  Uiso   1.00
H139   H     0.53621   0.17080   0.07343   0.00000  Uiso   1.00
N24    N     0.17012   0.56183   0.63647   0.00000  Uiso   1.00
C222   C     0.21116   0.57860   0.64369   0.00000  Uiso   1.00
C223   C     0.21375   0.62754   0.65454   0.00000  Uiso   1.00
C224   C     0.25734   0.65081   0.65514   0.00000  Uiso   1.00
C225   C     0.29962   0.62547   0.64594   0.00000  Uiso   1.00
C226   C     0.29725   0.57623   0.63503   0.00000  Uiso   1.00
C227   C     0.25280   0.55309   0.63303   0.00000  Uiso   1.00
H140   H     0.17967   0.64843   0.66294   0.00000  Uiso   1.00
H141   H     0.25901   0.69083   0.66316   0.00000  Uiso   1.00
H142   H     0.33154   0.55522   0.62784   0.00000  Uiso   1.00
H143   H     0.25050   0.51362   0.62276   0.00000  Uiso   1.00
C228   C     0.67210   0.13054   0.57198   0.00000  Uiso   1.00
F23    F     0.21113   0.45238   0.97373   0.00000  Uiso   1.00
F24    F     0.26523   0.39432   0.94903   0.00000  Uiso   1.00
O12    O     0.03522   0.38544   0.77433   0.00000  Uiso   1.00
H144   H     0.91836   0.63091   0.21187   0.00000  Uiso   1.00
C229   C     0.82099   0.48183   0.48260   0.00000  Uiso   1.00
C230   C     0.86443   0.46366   0.46490   0.00000  Uiso   1.00
C231   C     0.90798   0.48181   0.48253   0.00000  Uiso   1.00
C232   C     0.86590   0.42829   0.42936   0.00000  Uiso   1.00
C233   C     0.91006   0.41392   0.41036   0.00000  Uiso   1.00
C234   C     0.95263   0.43421   0.42797   0.00000  Uiso   1.00
N25    N     0.95051   0.46537   0.46512   0.00000  Uiso   1.00
C235   C     0.99687   0.57142   0.59915   0.00000  Uiso   1.00
C236   C     0.03929   0.57316   0.57281   0.00000  Uiso   1.00
C237   C     0.08320   0.57094   0.59635   0.00000  Uiso   1.00
C238   C     0.08493   0.56750   0.64663   0.00000  Uiso   1.00
C239   C     0.04230   0.56956   0.67287   0.00000  Uiso   1.00
C240   C     0.99846   0.57160   0.64928   0.00000  Uiso   1.00
H145   H     0.78545   0.53295   0.53130   0.00000  Uiso   1.00
H146   H     0.83123   0.41130   0.41601   0.00000  Uiso   1.00
H147   H     0.91138   0.38586   0.38070   0.00000  Uiso   1.00
H148   H     0.03794   0.57639   0.53211   0.00000  Uiso   1.00
H149   H     0.11795   0.57190   0.57490   0.00000  Uiso   1.00
H150   H     0.04343   0.56957   0.71370   0.00000  Uiso   1.00
H151   H     0.96379   0.57343   0.67080   0.00000  Uiso   1.00
N26    N     0.32988   0.13647   0.06183   0.00000  Uiso   1.00
C241   C     0.28884   0.14369   0.07860   0.00000  Uiso   1.00
C242   C     0.28625   0.15454   0.12754   0.00000  Uiso   1.00
C243   C     0.24266   0.15514   0.15081   0.00000  Uiso   1.00
C244   C     0.20038   0.14594   0.12547   0.00000  Uiso   1.00
C245   C     0.20275   0.13503   0.07623   0.00000  Uiso   1.00
C246   C     0.24720   0.13303   0.05309   0.00000  Uiso   1.00
H152   H     0.32033   0.16294   0.14843   0.00000  Uiso   1.00
H153   H     0.24099   0.16316   0.19083   0.00000  Uiso   1.00
H154   H     0.16846   0.12784   0.05522   0.00000  Uiso   1.00
H155   H     0.24950   0.12276   0.01362   0.00000  Uiso   1.00
C247   C     0.82790   0.07198   0.63054   0.00000  Uiso   1.00
F25    F     0.28887   0.47373   0.95238   0.00000  Uiso   1.00
F26    F     0.23477   0.44903   0.89432   0.00000  Uiso   1.00
O13    O     0.46478   0.27433   0.88544   0.00000  Uiso   1.00
H156   H     0.58164   0.71187   0.13091   0.00000  Uiso   1.00
C248   C     0.17901   0.51817   0.48260   0.00000  Uiso   1.00
C249   C     0.13557   0.53634   0.46490   0.00000  Uiso   1.00
C250   C     0.09202   0.51819   0.48253   0.00000  Uiso   1.00
C251   C     0.13410   0.57171   0.42936   0.00000  Uiso   1.00
C252   C     0.08994   0.58608   0.41036   0.00000  Uiso   1.00
C253   C     0.04737   0.56579   0.42797   0.00000  Uiso   1.00
N27    N     0.04949   0.53463   0.46512   0.00000  Uiso   1.00
C254   C     0.00313   0.42858   0.59915   0.00000  Uiso   1.00
C255   C     0.96071   0.42684   0.57281   0.00000  Uiso   1.00
C256   C     0.91680   0.42906   0.59635   0.00000  Uiso   1.00
C257   C     0.91507   0.43250   0.64663   0.00000  Uiso   1.00
C258   C     0.95770   0.43044   0.67287   0.00000  Uiso   1.00
C259   C     0.00154   0.42840   0.64928   0.00000  Uiso   1.00
H157   H     0.21455   0.46705   0.53130   0.00000  Uiso   1.00
H158   H     0.16877   0.58870   0.41601   0.00000  Uiso   1.00
H159   H     0.08862   0.61414   0.38070   0.00000  Uiso   1.00
H160   H     0.96206   0.42361   0.53211   0.00000  Uiso   1.00
H161   H     0.88205   0.42810   0.57490   0.00000  Uiso   1.00
H162   H     0.95657   0.43043   0.71370   0.00000  Uiso   1.00
H163   H     0.03621   0.42657   0.67080   0.00000  Uiso   1.00
N28    N     0.67012   0.86353   0.06183   0.00000  Uiso   1.00
C260   C     0.71116   0.85631   0.07860   0.00000  Uiso   1.00
C261   C     0.71375   0.84546   0.12754   0.00000  Uiso   1.00
C262   C     0.75734   0.84486   0.15081   0.00000  Uiso   1.00
C263   C     0.79962   0.85406   0.12547   0.00000  Uiso   1.00
C264   C     0.79725   0.86497   0.07623   0.00000  Uiso   1.00
C265   C     0.75280   0.86697   0.05309   0.00000  Uiso   1.00
H164   H     0.67967   0.83706   0.14843   0.00000  Uiso   1.00
H165   H     0.75901   0.83684   0.19083   0.00000  Uiso   1.00
H166   H     0.83154   0.87216   0.05522   0.00000  Uiso   1.00
H167   H     0.75050   0.87724   0.01362   0.00000  Uiso   1.00
C266   C     0.17210   0.92802   0.63054   0.00000  Uiso   1.00
F27    F     0.71113   0.52627   0.95238   0.00000  Uiso   1.00
F28    F     0.76523   0.55097   0.89432   0.00000  Uiso   1.00
O14    O     0.53522   0.72567   0.88544   0.00000  Uiso   1.00
H168   H     0.41836   0.28813   0.13091   0.00000  Uiso   1.00
C267   C     0.82099   0.51817   0.51740   0.00000  Uiso   1.00
C268   C     0.86443   0.53634   0.53510   0.00000  Uiso   1.00
C269   C     0.90798   0.51819   0.51747   0.00000  Uiso   1.00
C270   C     0.86590   0.57171   0.57064   0.00000  Uiso   1.00
C271   C     0.91006   0.58608   0.58964   0.00000  Uiso   1.00
C272   C     0.95263   0.56579   0.57203   0.00000  Uiso   1.00
N29    N     0.95051   0.53463   0.53488   0.00000  Uiso   1.00
C273   C     0.99687   0.42858   0.40085   0.00000  Uiso   1.00
C274   C     0.03929   0.42684   0.42719   0.00000  Uiso   1.00
C275   C     0.08320   0.42906   0.40365   0.00000  Uiso   1.00
C276   C     0.08493   0.43250   0.35337   0.00000  Uiso   1.00
C277   C     0.04230   0.43044   0.32713   0.00000  Uiso   1.00
C278   C     0.99846   0.42840   0.35072   0.00000  Uiso   1.00
H169   H     0.78545   0.46705   0.46870   0.00000  Uiso   1.00
H170   H     0.83123   0.58870   0.58399   0.00000  Uiso   1.00
H171   H     0.91138   0.61414   0.61930   0.00000  Uiso   1.00
H172   H     0.03794   0.42361   0.46789   0.00000  Uiso   1.00
H173   H     0.11795   0.42810   0.42510   0.00000  Uiso   1.00
H174   H     0.04343   0.43043   0.28630   0.00000  Uiso   1.00
H175   H     0.96379   0.42657   0.32920   0.00000  Uiso   1.00
N30    N     0.32988   0.86353   0.93817   0.00000  Uiso   1.00
C279   C     0.28884   0.85631   0.92140   0.00000  Uiso   1.00
C280   C     0.28625   0.84546   0.87246   0.00000  Uiso   1.00
C281   C     0.24266   0.84486   0.84919   0.00000  Uiso   1.00
C282   C     0.20038   0.85406   0.87453   0.00000  Uiso   1.00
C283   C     0.20275   0.86497   0.92377   0.00000  Uiso   1.00
C284   C     0.24720   0.86697   0.94691   0.00000  Uiso   1.00
H176   H     0.32033   0.83706   0.85157   0.00000  Uiso   1.00
H177   H     0.24099   0.83684   0.80917   0.00000  Uiso   1.00
H178   H     0.16846   0.87216   0.94478   0.00000  Uiso   1.00
H179   H     0.24950   0.87724   0.98638   0.00000  Uiso   1.00
C285   C     0.82790   0.92802   0.36946   0.00000  Uiso   1.00
F29    F     0.28887   0.52627   0.04762   0.00000  Uiso   1.00
F30    F     0.23477   0.55097   0.10568   0.00000  Uiso   1.00
O15    O     0.46478   0.72567   0.11456   0.00000  Uiso   1.00
H180   H     0.58164   0.28813   0.86909   0.00000  Uiso   1.00
C286   C     0.17901   0.48183   0.51740   0.00000  Uiso   1.00
C287   C     0.13557   0.46366   0.53510   0.00000  Uiso   1.00
C288   C     0.09202   0.48181   0.51747   0.00000  Uiso   1.00
C289   C     0.13410   0.42829   0.57064   0.00000  Uiso   1.00
C290   C     0.08994   0.41392   0.58964   0.00000  Uiso   1.00
C291   C     0.04737   0.43421   0.57203   0.00000  Uiso   1.00
N31    N     0.04949   0.46537   0.53488   0.00000  Uiso   1.00
C292   C     0.00313   0.57142   0.40085   0.00000  Uiso   1.00
C293   C     0.96071   0.57316   0.42719   0.00000  Uiso   1.00
C294   C     0.91680   0.57094   0.40365   0.00000  Uiso   1.00
C295   C     0.91507   0.56750   0.35337   0.00000  Uiso   1.00
C296   C     0.95770   0.56956   0.32713   0.00000  Uiso   1.00
C297   C     0.00154   0.57160   0.35072   0.00000  Uiso   1.00
H181   H     0.21455   0.53295   0.46870   0.00000  Uiso   1.00
H182   H     0.16877   0.41130   0.58399   0.00000  Uiso   1.00
H183   H     0.08862   0.38586   0.61930   0.00000  Uiso   1.00
H184   H     0.96206   0.57639   0.46789   0.00000  Uiso   1.00
H185   H     0.88205   0.57190   0.42510   0.00000  Uiso   1.00
H186   H     0.95657   0.56957   0.28630   0.00000  Uiso   1.00
H187   H     0.03621   0.57343   0.32920   0.00000  Uiso   1.00
N32    N     0.67012   0.13647   0.93817   0.00000  Uiso   1.00
C298   C     0.71116   0.14369   0.92140   0.00000  Uiso   1.00
C299   C     0.71375   0.15454   0.87246   0.00000  Uiso   1.00
C300   C     0.75734   0.15514   0.84919   0.00000  Uiso   1.00
C301   C     0.79962   0.14594   0.87453   0.00000  Uiso   1.00
C302   C     0.79725   0.13503   0.92377   0.00000  Uiso   1.00
C303   C     0.75280   0.13303   0.94691   0.00000  Uiso   1.00
H188   H     0.67967   0.16294   0.85157   0.00000  Uiso   1.00
H189   H     0.75901   0.16316   0.80917   0.00000  Uiso   1.00
H190   H     0.83154   0.12784   0.94478   0.00000  Uiso   1.00
H191   H     0.75050   0.12276   0.98638   0.00000  Uiso   1.00
C304   C     0.17210   0.07198   0.36946   0.00000  Uiso   1.00
F31    F     0.71113   0.47373   0.04762   0.00000  Uiso   1.00
F32    F     0.76523   0.44903   0.10568   0.00000  Uiso   1.00
O16    O     0.53522   0.27433   0.11456   0.00000  Uiso   1.00
H192   H     0.41836   0.71187   0.86909   0.00000  Uiso   1.00
C305   C     0.48183   0.51740   0.17901   0.00000  Uiso   1.00
C306   C     0.46366   0.53510   0.13557   0.00000  Uiso   1.00
C307   C     0.48181   0.51747   0.09202   0.00000  Uiso   1.00
C308   C     0.42829   0.57064   0.13410   0.00000  Uiso   1.00
C309   C     0.41392   0.58964   0.08994   0.00000  Uiso   1.00
C310   C     0.43421   0.57203   0.04737   0.00000  Uiso   1.00
N33    N     0.46537   0.53488   0.04949   0.00000  Uiso   1.00
C311   C     0.57142   0.40085   0.00313   0.00000  Uiso   1.00
C312   C     0.57316   0.42719   0.96071   0.00000  Uiso   1.00
C313   C     0.57094   0.40365   0.91680   0.00000  Uiso   1.00
C314   C     0.56750   0.35337   0.91507   0.00000  Uiso   1.00
C315   C     0.56956   0.32713   0.95770   0.00000  Uiso   1.00
C316   C     0.57160   0.35072   0.00154   0.00000  Uiso   1.00
H193   H     0.53295   0.46870   0.21455   0.00000  Uiso   1.00
H194   H     0.41130   0.58399   0.16877   0.00000  Uiso   1.00
H195   H     0.38586   0.61930   0.08862   0.00000  Uiso   1.00
H196   H     0.57639   0.46789   0.96206   0.00000  Uiso   1.00
H197   H     0.57190   0.42510   0.88205   0.00000  Uiso   1.00
H198   H     0.56957   0.28630   0.95657   0.00000  Uiso   1.00
H199   H     0.57343   0.32920   0.03621   0.00000  Uiso   1.00
N34    N     0.13647   0.93817   0.67012   0.00000  Uiso   1.00
C317   C     0.14369   0.92140   0.71116   0.00000  Uiso   1.00
C318   C     0.15454   0.87246   0.71375   0.00000  Uiso   1.00
C319   C     0.15514   0.84919   0.75734   0.00000  Uiso   1.00
C320   C     0.14594   0.87453   0.79962   0.00000  Uiso   1.00
C321   C     0.13503   0.92377   0.79725   0.00000  Uiso   1.00
C322   C     0.13303   0.94691   0.75280   0.00000  Uiso   1.00
H200   H     0.16294   0.85157   0.67967   0.00000  Uiso   1.00
H201   H     0.16316   0.80917   0.75901   0.00000  Uiso   1.00
H202   H     0.12784   0.94478   0.83154   0.00000  Uiso   1.00
H203   H     0.12276   0.98638   0.75050   0.00000  Uiso   1.00
C323   C     0.07198   0.36946   0.17210   0.00000  Uiso   1.00
F33    F     0.47373   0.04762   0.71113   0.00000  Uiso   1.00
F34    F     0.44903   0.10568   0.76523   0.00000  Uiso   1.00
O17    O     0.27433   0.11456   0.53522   0.00000  Uiso   1.00
H204   H     0.71187   0.86909   0.41836   0.00000  Uiso   1.00
C324   C     0.51817   0.51740   0.82099   0.00000  Uiso   1.00
C325   C     0.53634   0.53510   0.86443   0.00000  Uiso   1.00
C326   C     0.51819   0.51747   0.90798   0.00000  Uiso   1.00
C327   C     0.57171   0.57064   0.86590   0.00000  Uiso   1.00
C328   C     0.58608   0.58964   0.91006   0.00000  Uiso   1.00
C329   C     0.56579   0.57203   0.95263   0.00000  Uiso   1.00
N35    N     0.53463   0.53488   0.95051   0.00000  Uiso   1.00
C330   C     0.42858   0.40085   0.99687   0.00000  Uiso   1.00
C331   C     0.42684   0.42719   0.03929   0.00000  Uiso   1.00
C332   C     0.42906   0.40365   0.08320   0.00000  Uiso   1.00
C333   C     0.43250   0.35337   0.08493   0.00000  Uiso   1.00
C334   C     0.43044   0.32713   0.04230   0.00000  Uiso   1.00
C335   C     0.42840   0.35072   0.99846   0.00000  Uiso   1.00
H205   H     0.46705   0.46870   0.78545   0.00000  Uiso   1.00
H206   H     0.58870   0.58399   0.83123   0.00000  Uiso   1.00
H207   H     0.61414   0.61930   0.91138   0.00000  Uiso   1.00
H208   H     0.42361   0.46789   0.03794   0.00000  Uiso   1.00
H209   H     0.42810   0.42510   0.11795   0.00000  Uiso   1.00
H210   H     0.43043   0.28630   0.04343   0.00000  Uiso   1.00
H211   H     0.42657   0.32920   0.96379   0.00000  Uiso   1.00
N36    N     0.86353   0.93817   0.32988   0.00000  Uiso   1.00
C336   C     0.85631   0.92140   0.28884   0.00000  Uiso   1.00
C337   C     0.84546   0.87246   0.28625   0.00000  Uiso   1.00
C338   C     0.84486   0.84919   0.24266   0.00000  Uiso   1.00
C339   C     0.85406   0.87453   0.20038   0.00000  Uiso   1.00
C340   C     0.86497   0.92377   0.20275   0.00000  Uiso   1.00
C341   C     0.86697   0.94691   0.24720   0.00000  Uiso   1.00
H212   H     0.83706   0.85157   0.32033   0.00000  Uiso   1.00
H213   H     0.83684   0.80917   0.24099   0.00000  Uiso   1.00
H214   H     0.87216   0.94478   0.16846   0.00000  Uiso   1.00
H215   H     0.87724   0.98638   0.24950   0.00000  Uiso   1.00
C342   C     0.92802   0.36946   0.82790   0.00000  Uiso   1.00
F35    F     0.52627   0.04762   0.28887   0.00000  Uiso   1.00
F36    F     0.55097   0.10568   0.23477   0.00000  Uiso   1.00
O18    O     0.72567   0.11456   0.46478   0.00000  Uiso   1.00
H216   H     0.28813   0.86909   0.58164   0.00000  Uiso   1.00
C343   C     0.51817   0.48260   0.17901   0.00000  Uiso   1.00
C344   C     0.53634   0.46490   0.13557   0.00000  Uiso   1.00
C345   C     0.51819   0.48253   0.09202   0.00000  Uiso   1.00
C346   C     0.57171   0.42936   0.13410   0.00000  Uiso   1.00
C347   C     0.58608   0.41036   0.08994   0.00000  Uiso   1.00
C348   C     0.56579   0.42797   0.04737   0.00000  Uiso   1.00
N37    N     0.53463   0.46512   0.04949   0.00000  Uiso   1.00
C349   C     0.42858   0.59915   0.00313   0.00000  Uiso   1.00
C350   C     0.42684   0.57281   0.96071   0.00000  Uiso   1.00
C351   C     0.42906   0.59635   0.91680   0.00000  Uiso   1.00
C352   C     0.43250   0.64663   0.91507   0.00000  Uiso   1.00
C353   C     0.43044   0.67287   0.95770   0.00000  Uiso   1.00
C354   C     0.42840   0.64928   0.00154   0.00000  Uiso   1.00
H217   H     0.46705   0.53130   0.21455   0.00000  Uiso   1.00
H218   H     0.58870   0.41601   0.16877   0.00000  Uiso   1.00
H219   H     0.61414   0.38070   0.08862   0.00000  Uiso   1.00
H220   H     0.42361   0.53211   0.96206   0.00000  Uiso   1.00
H221   H     0.42810   0.57490   0.88205   0.00000  Uiso   1.00
H222   H     0.43043   0.71370   0.95657   0.00000  Uiso   1.00
H223   H     0.42657   0.67080   0.03621   0.00000  Uiso   1.00
N38    N     0.86353   0.06183   0.67012   0.00000  Uiso   1.00
C355   C     0.85631   0.07860   0.71116   0.00000  Uiso   1.00
C356   C     0.84546   0.12754   0.71375   0.00000  Uiso   1.00
C357   C     0.84486   0.15081   0.75734   0.00000  Uiso   1.00
C358   C     0.85406   0.12547   0.79962   0.00000  Uiso   1.00
C359   C     0.86497   0.07623   0.79725   0.00000  Uiso   1.00
C360   C     0.86697   0.05309   0.75280   0.00000  Uiso   1.00
H224   H     0.83706   0.14843   0.67967   0.00000  Uiso   1.00
H225   H     0.83684   0.19083   0.75901   0.00000  Uiso   1.00
H226   H     0.87216   0.05522   0.83154   0.00000  Uiso   1.00
H227   H     0.87724   0.01362   0.75050   0.00000  Uiso   1.00
C361   C     0.92802   0.63054   0.17210   0.00000  Uiso   1.00
F37    F     0.52627   0.95238   0.71113   0.00000  Uiso   1.00
F38    F     0.55097   0.89432   0.76523   0.00000  Uiso   1.00
O19    O     0.72567   0.88544   0.53522   0.00000  Uiso   1.00
H228   H     0.28813   0.13091   0.41836   0.00000  Uiso   1.00
C362   C     0.48183   0.48260   0.82099   0.00000  Uiso   1.00
C363   C     0.46366   0.46490   0.86443   0.00000  Uiso   1.00
C364   C     0.48181   0.48253   0.90798   0.00000  Uiso   1.00
C365   C     0.42829   0.42936   0.86590   0.00000  Uiso   1.00
C366   C     0.41392   0.41036   0.91006   0.00000  Uiso   1.00
C367   C     0.43421   0.42797   0.95263   0.00000  Uiso   1.00
N39    N     0.46537   0.46512   0.95051   0.00000  Uiso   1.00
C368   C     0.57142   0.59915   0.99687   0.00000  Uiso   1.00
C369   C     0.57316   0.57281   0.03929   0.00000  Uiso   1.00
C370   C     0.57094   0.59635   0.08320   0.00000  Uiso   1.00
C371   C     0.56750   0.64663   0.08493   0.00000  Uiso   1.00
C372   C     0.56956   0.67287   0.04230   0.00000  Uiso   1.00
C373   C     0.57160   0.64928   0.99846   0.00000  Uiso   1.00
H229   H     0.53295   0.53130   0.78545   0.00000  Uiso   1.00
H230   H     0.41130   0.41601   0.83123   0.00000  Uiso   1.00
H231   H     0.38586   0.38070   0.91138   0.00000  Uiso   1.00
H232   H     0.57639   0.53211   0.03794   0.00000  Uiso   1.00
H233   H     0.57190   0.57490   0.11795   0.00000  Uiso   1.00
H234   H     0.56957   0.71370   0.04343   0.00000  Uiso   1.00
H235   H     0.57343   0.67080   0.96379   0.00000  Uiso   1.00
N40    N     0.13647   0.06183   0.32988   0.00000  Uiso   1.00
C374   C     0.14369   0.07860   0.28884   0.00000  Uiso   1.00
C375   C     0.15454   0.12754   0.28625   0.00000  Uiso   1.00
C376   C     0.15514   0.15081   0.24266   0.00000  Uiso   1.00
C377   C     0.14594   0.12547   0.20038   0.00000  Uiso   1.00
C378   C     0.13503   0.07623   0.20275   0.00000  Uiso   1.00
C379   C     0.13303   0.05309   0.24720   0.00000  Uiso   1.00
H236   H     0.16294   0.14843   0.32033   0.00000  Uiso   1.00
H237   H     0.16316   0.19083   0.24099   0.00000  Uiso   1.00
H238   H     0.12784   0.05522   0.16846   0.00000  Uiso   1.00
H239   H     0.12276   0.01362   0.24950   0.00000  Uiso   1.00
C380   C     0.07198   0.63054   0.82790   0.00000  Uiso   1.00
F39    F     0.47373   0.95238   0.28887   0.00000  Uiso   1.00
F40    F     0.44903   0.89432   0.23477   0.00000  Uiso   1.00
O20    O     0.27433   0.88544   0.46478   0.00000  Uiso   1.00
H240   H     0.71187   0.13091   0.58164   0.00000  Uiso   1.00
C381   C     0.51740   0.82099   0.51817   0.00000  Uiso   1.00
C382   C     0.53510   0.86443   0.53634   0.00000  Uiso   1.00
C383   C     0.51747   0.90798   0.51819   0.00000  Uiso   1.00
C384   C     0.57064   0.86590   0.57171   0.00000  Uiso   1.00
C385   C     0.58964   0.91006   0.58608   0.00000  Uiso   1.00
C386   C     0.57203   0.95263   0.56579   0.00000  Uiso   1.00
N41    N     0.53488   0.95051   0.53463   0.00000  Uiso   1.00
C387   C     0.40085   0.99687   0.42858   0.00000  Uiso   1.00
C388   C     0.42719   0.03929   0.42684   0.00000  Uiso   1.00
C389   C     0.40365   0.08320   0.42906   0.00000  Uiso   1.00
C390   C     0.35337   0.08493   0.43250   0.00000  Uiso   1.00
C391   C     0.32713   0.04230   0.43044   0.00000  Uiso   1.00
C392   C     0.35072   0.99846   0.42840   0.00000  Uiso   1.00
H241   H     0.46870   0.78545   0.46705   0.00000  Uiso   1.00
H242   H     0.58399   0.83123   0.58870   0.00000  Uiso   1.00
H243   H     0.61930   0.91138   0.61414   0.00000  Uiso   1.00
H244   H     0.46789   0.03794   0.42361   0.00000  Uiso   1.00
H245   H     0.42510   0.11795   0.42810   0.00000  Uiso   1.00
H246   H     0.28630   0.04343   0.43043   0.00000  Uiso   1.00
H247   H     0.32920   0.96379   0.42657   0.00000  Uiso   1.00
N42    N     0.93817   0.32988   0.86353   0.00000  Uiso   1.00
C393   C     0.92140   0.28884   0.85631   0.00000  Uiso   1.00
C394   C     0.87246   0.28625   0.84546   0.00000  Uiso   1.00
C395   C     0.84919   0.24266   0.84486   0.00000  Uiso   1.00
C396   C     0.87453   0.20038   0.85406   0.00000  Uiso   1.00
C397   C     0.92377   0.20275   0.86497   0.00000  Uiso   1.00
C398   C     0.94691   0.24720   0.86697   0.00000  Uiso   1.00
H248   H     0.85157   0.32033   0.83706   0.00000  Uiso   1.00
H249   H     0.80917   0.24099   0.83684   0.00000  Uiso   1.00
H250   H     0.94478   0.16846   0.87216   0.00000  Uiso   1.00
H251   H     0.98638   0.24950   0.87724   0.00000  Uiso   1.00
C399   C     0.36946   0.82790   0.92802   0.00000  Uiso   1.00
F41    F     0.04762   0.28887   0.52627   0.00000  Uiso   1.00
F42    F     0.10568   0.23477   0.55097   0.00000  Uiso   1.00
O21    O     0.11456   0.46478   0.72567   0.00000  Uiso   1.00
H252   H     0.86909   0.58164   0.28813   0.00000  Uiso   1.00
C400   C     0.51740   0.17901   0.48183   0.00000  Uiso   1.00
C401   C     0.53510   0.13557   0.46366   0.00000  Uiso   1.00
C402   C     0.51747   0.09202   0.48181   0.00000  Uiso   1.00
C403   C     0.57064   0.13410   0.42829   0.00000  Uiso   1.00
C404   C     0.58964   0.08994   0.41392   0.00000  Uiso   1.00
C405   C     0.57203   0.04737   0.43421   0.00000  Uiso   1.00
N43    N     0.53488   0.04949   0.46537   0.00000  Uiso   1.00
C406   C     0.40085   0.00313   0.57142   0.00000  Uiso   1.00
C407   C     0.42719   0.96071   0.57316   0.00000  Uiso   1.00
C408   C     0.40365   0.91680   0.57094   0.00000  Uiso   1.00
C409   C     0.35337   0.91507   0.56750   0.00000  Uiso   1.00
C410   C     0.32713   0.95770   0.56956   0.00000  Uiso   1.00
C411   C     0.35072   0.00154   0.57160   0.00000  Uiso   1.00
H253   H     0.46870   0.21455   0.53295   0.00000  Uiso   1.00
H254   H     0.58399   0.16877   0.41130   0.00000  Uiso   1.00
H255   H     0.61930   0.08862   0.38586   0.00000  Uiso   1.00
H256   H     0.46789   0.96206   0.57639   0.00000  Uiso   1.00
H257   H     0.42510   0.88205   0.57190   0.00000  Uiso   1.00
H258   H     0.28630   0.95657   0.56957   0.00000  Uiso   1.00
H259   H     0.32920   0.03621   0.57343   0.00000  Uiso   1.00
N44    N     0.93817   0.67012   0.13647   0.00000  Uiso   1.00
C412   C     0.92140   0.71116   0.14369   0.00000  Uiso   1.00
C413   C     0.87246   0.71375   0.15454   0.00000  Uiso   1.00
C414   C     0.84919   0.75734   0.15514   0.00000  Uiso   1.00
C415   C     0.87453   0.79962   0.14594   0.00000  Uiso   1.00
C416   C     0.92377   0.79725   0.13503   0.00000  Uiso   1.00
C417   C     0.94691   0.75280   0.13303   0.00000  Uiso   1.00
H260   H     0.85157   0.67967   0.16294   0.00000  Uiso   1.00
H261   H     0.80917   0.75901   0.16316   0.00000  Uiso   1.00
H262   H     0.94478   0.83154   0.12784   0.00000  Uiso   1.00
H263   H     0.98638   0.75050   0.12276   0.00000  Uiso   1.00
C418   C     0.36946   0.17210   0.07198   0.00000  Uiso   1.00
F43    F     0.04762   0.71113   0.47373   0.00000  Uiso   1.00
F44    F     0.10568   0.76523   0.44903   0.00000  Uiso   1.00
O22    O     0.11456   0.53522   0.27433   0.00000  Uiso   1.00
H264   H     0.86909   0.41836   0.71187   0.00000  Uiso   1.00
C419   C     0.48260   0.82099   0.48183   0.00000  Uiso   1.00
C420   C     0.46490   0.86443   0.46366   0.00000  Uiso   1.00
C421   C     0.48253   0.90798   0.48181   0.00000  Uiso   1.00
C422   C     0.42936   0.86590   0.42829   0.00000  Uiso   1.00
C423   C     0.41036   0.91006   0.41392   0.00000  Uiso   1.00
C424   C     0.42797   0.95263   0.43421   0.00000  Uiso   1.00
N45    N     0.46512   0.95051   0.46537   0.00000  Uiso   1.00
C425   C     0.59915   0.99687   0.57142   0.00000  Uiso   1.00
C426   C     0.57281   0.03929   0.57316   0.00000  Uiso   1.00
C427   C     0.59635   0.08320   0.57094   0.00000  Uiso   1.00
C428   C     0.64663   0.08493   0.56750   0.00000  Uiso   1.00
C429   C     0.67287   0.04230   0.56956   0.00000  Uiso   1.00
C430   C     0.64928   0.99846   0.57160   0.00000  Uiso   1.00
H265   H     0.53130   0.78545   0.53295   0.00000  Uiso   1.00
H266   H     0.41601   0.83123   0.41130   0.00000  Uiso   1.00
H267   H     0.38070   0.91138   0.38586   0.00000  Uiso   1.00
H268   H     0.53211   0.03794   0.57639   0.00000  Uiso   1.00
H269   H     0.57490   0.11795   0.57190   0.00000  Uiso   1.00
H270   H     0.71370   0.04343   0.56957   0.00000  Uiso   1.00
H271   H     0.67080   0.96379   0.57343   0.00000  Uiso   1.00
N46    N     0.06183   0.32988   0.13647   0.00000  Uiso   1.00
C431   C     0.07860   0.28884   0.14369   0.00000  Uiso   1.00
C432   C     0.12754   0.28625   0.15454   0.00000  Uiso   1.00
C433   C     0.15081   0.24266   0.15514   0.00000  Uiso   1.00
C434   C     0.12547   0.20038   0.14594   0.00000  Uiso   1.00
C435   C     0.07623   0.20275   0.13503   0.00000  Uiso   1.00
C436   C     0.05309   0.24720   0.13303   0.00000  Uiso   1.00
H272   H     0.14843   0.32033   0.16294   0.00000  Uiso   1.00
H273   H     0.19083   0.24099   0.16316   0.00000  Uiso   1.00
H274   H     0.05522   0.16846   0.12784   0.00000  Uiso   1.00
H275   H     0.01362   0.24950   0.12276   0.00000  Uiso   1.00
C437   C     0.63054   0.82790   0.07198   0.00000  Uiso   1.00
F45    F     0.95238   0.28887   0.47373   0.00000  Uiso   1.00
F46    F     0.89432   0.23477   0.44903   0.00000  Uiso   1.00
O23    O     0.88544   0.46478   0.27433   0.00000  Uiso   1.00
H276   H     0.13091   0.58164   0.71187   0.00000  Uiso   1.00
C438   C     0.48260   0.17901   0.51817   0.00000  Uiso   1.00
C439   C     0.46490   0.13557   0.53634   0.00000  Uiso   1.00
C440   C     0.48253   0.09202   0.51819   0.00000  Uiso   1.00
C441   C     0.42936   0.13410   0.57171   0.00000  Uiso   1.00
C442   C     0.41036   0.08994   0.58608   0.00000  Uiso   1.00
C443   C     0.42797   0.04737   0.56579   0.00000  Uiso   1.00
N47    N     0.46512   0.04949   0.53463   0.00000  Uiso   1.00
C444   C     0.59915   0.00313   0.42858   0.00000  Uiso   1.00
C445   C     0.57281   0.96071   0.42684   0.00000  Uiso   1.00
C446   C     0.59635   0.91680   0.42906   0.00000  Uiso   1.00
C447   C     0.64663   0.91507   0.43250   0.00000  Uiso   1.00
C448   C     0.67287   0.95770   0.43044   0.00000  Uiso   1.00
C449   C     0.64928   0.00154   0.42840   0.00000  Uiso   1.00
H277   H     0.53130   0.21455   0.46705   0.00000  Uiso   1.00
H278   H     0.41601   0.16877   0.58870   0.00000  Uiso   1.00
H279   H     0.38070   0.08862   0.61414   0.00000  Uiso   1.00
H280   H     0.53211   0.96206   0.42361   0.00000  Uiso   1.00
H281   H     0.57490   0.88205   0.42810   0.00000  Uiso   1.00
H282   H     0.71370   0.95657   0.43043   0.00000  Uiso   1.00
H283   H     0.67080   0.03621   0.42657   0.00000  Uiso   1.00
N48    N     0.06183   0.67012   0.86353   0.00000  Uiso   1.00
C450   C     0.07860   0.71116   0.85631   0.00000  Uiso   1.00
C451   C     0.12754   0.71375   0.84546   0.00000  Uiso   1.00
C452   C     0.15081   0.75734   0.84486   0.00000  Uiso   1.00
C453   C     0.12547   0.79962   0.85406   0.00000  Uiso   1.00
C454   C     0.07623   0.79725   0.86497   0.00000  Uiso   1.00
C455   C     0.05309   0.75280   0.86697   0.00000  Uiso   1.00
H284   H     0.14843   0.67967   0.83706   0.00000  Uiso   1.00
H285   H     0.19083   0.75901   0.83684   0.00000  Uiso   1.00
H286   H     0.05522   0.83154   0.87216   0.00000  Uiso   1.00
H287   H     0.01362   0.75050   0.87724   0.00000  Uiso   1.00
C456   C     0.63054   0.17210   0.92802   0.00000  Uiso   1.00
F47    F     0.95238   0.71113   0.52627   0.00000  Uiso   1.00
F48    F     0.89432   0.76523   0.55097   0.00000  Uiso   1.00
O24    O     0.88544   0.53522   0.72567   0.00000  Uiso   1.00
H288   H     0.13091   0.41836   0.28813   0.00000  Uiso   1.00
C457   C     0.14815   0.14815   0.14815   0.00000  Uiso   1.00
C458   C     0.85185   0.85185   0.14815   0.00000  Uiso   1.00
C459   C     0.85185   0.14815   0.85185   0.00000  Uiso   1.00
C460   C     0.14815   0.85185   0.85185   0.00000  Uiso   1.00
C461   C     0.64815   0.64815   0.35185   0.00000  Uiso   1.00
C462   C     0.35185   0.35185   0.35185   0.00000  Uiso   1.00
C463   C     0.64815   0.35185   0.64815   0.00000  Uiso   1.00
C464   C     0.35185   0.64815   0.64815   0.00000  Uiso   1.00
Cu1    Cu    0.50000   0.00000   0.00000   0.00000  Uiso   1.00
Cu2    Cu    0.00000   0.50000   0.00000   0.00000  Uiso   1.00
Cu3    Cu    0.00000   0.00000   0.50000   0.00000  Uiso   1.00
Cu4    Cu    0.50000   0.00000   0.50000   0.00000  Uiso   1.00
Cu5    Cu    0.00000   0.50000   0.50000   0.00000  Uiso   1.00
Cu6    Cu    0.50000   0.50000   0.00000   0.00000  Uiso   1.00
B1     B     0.25000   0.44235   0.94235   0.00000  Uiso   1.00
B2     B     0.75000   0.55765   0.94235   0.00000  Uiso   1.00
B3     B     0.75000   0.44235   0.05765   0.00000  Uiso   1.00
B4     B     0.25000   0.55765   0.05765   0.00000  Uiso   1.00
B5     B     0.94235   0.25000   0.44235   0.00000  Uiso   1.00
B6     B     0.94235   0.75000   0.55765   0.00000  Uiso   1.00
B7     B     0.05765   0.75000   0.44235   0.00000  Uiso   1.00
B8     B     0.05765   0.25000   0.55765   0.00000  Uiso   1.00
B9     B     0.44235   0.94235   0.25000   0.00000  Uiso   1.00
B10    B     0.55765   0.94235   0.75000   0.00000  Uiso   1.00
B11    B     0.44235   0.05765   0.75000   0.00000  Uiso   1.00
B12    B     0.55765   0.05765   0.25000   0.00000  Uiso   1.00
O25    O     0.00000   0.50000   0.75000   0.00000  Uiso   1.00
O26    O     0.00000   0.50000   0.25000   0.00000  Uiso   1.00
O27    O     0.75000   0.00000   0.50000   0.00000  Uiso   1.00
O28    O     0.25000   0.00000   0.50000   0.00000  Uiso   1.00
O29    O     0.50000   0.75000   0.00000   0.00000  Uiso   1.00
O30    O     0.50000   0.25000   0.00000   0.00000  Uiso   1.00
H289   H     0.62452   0.37548   0.62452   0.00000  Uiso   1.00
H290   H     0.37548   0.62452   0.62452   0.00000  Uiso   1.00
H291   H     0.37548   0.37548   0.37548   0.00000  Uiso   1.00
H292   H     0.62452   0.62452   0.37548   0.00000  Uiso   1.00
H293   H     0.87548   0.12452   0.87548   0.00000  Uiso   1.00
H294   H     0.12452   0.87548   0.87548   0.00000  Uiso   1.00
H295   H     0.87548   0.87548   0.12452   0.00000  Uiso   1.00
H296   H     0.12452   0.12452   0.12452   0.00000  Uiso   1.00
O31    O     0.34325   0.15675   0.75000   0.00000  Uiso   1.00
O32    O     0.65675   0.84325   0.75000   0.00000  Uiso   1.00
O33    O     0.65675   0.15675   0.25000   0.00000  Uiso   1.00
O34    O     0.34325   0.84325   0.25000   0.00000  Uiso   1.00
O35    O     0.75000   0.34325   0.15675   0.00000  Uiso   1.00
O36    O     0.75000   0.65675   0.84325   0.00000  Uiso   1.00
O37    O     0.25000   0.65675   0.15675   0.00000  Uiso   1.00
O38    O     0.25000   0.34325   0.84325   0.00000  Uiso   1.00
O39    O     0.15675   0.75000   0.34325   0.00000  Uiso   1.00
O40    O     0.84325   0.75000   0.65675   0.00000  Uiso   1.00
O41    O     0.15675   0.25000   0.65675   0.00000  Uiso   1.00
O42    O     0.84325   0.25000   0.34325   0.00000  Uiso   1.00
loop_
_geom_bond_atom_site_label_1
_geom_bond_atom_site_label_2
_geom_bond_distance
_geom_bond_site_symmetry_2
_ccdc_geom_bond_type
C1     C2      1.401   .     S
C1     H25     1.140   .     S
C1     C39     1.402   1_654 D
C2     C4      1.397   .     S
C2     C3      1.403   .     D
C3     N1      1.360   .     S
C3     C41     1.405   1_654 S
C4     H2      1.138   .     S
C4     C5      1.398   .     D
C5     C6      1.402   .     S
C5     H3      1.138   .     S
C6     N1      1.352   .     D
C6     C45     1.454   .     S
N1     Cu2     1.943   1_655 S
C7     C44     1.454   .     S
C7     C8      1.392   .     D
C7     C12     1.397   .     S
C8     C9      1.389   .     S
C8     H4      1.138   .     S
C9     H5      1.138   .     S
C9     C10     1.405   .     D
C10    C11     1.396   .     S
C10    C380    1.460   .     S
C11    C12     1.388   .     D
C11    H6      1.138   .     S
C12    H7      1.138   .     S
H1     C39     1.140   .     S
N2     C190    1.510   .     D
N2     C13     1.251   .     S
C13    C18     1.392   .     D
C13    C14     1.398   .     S
C14    C15     1.376   .     D
C14    H8      1.138   .     S
C15    C16     1.397   .     S
C15    H9      1.138   .     S
C16    C461    1.587   .     S
C16    C17     1.406   .     D
C17    C18     1.397   .     S
C17    H10     1.138   .     S
C18    H11     1.138   .     S
C19    N14     1.510   .     D
C19    H180    1.140   .     S
C19    C314    1.460   .     S
F1     B6      1.419   .     S
F2     B6      1.416   .     S
H12    C304    1.140   .     S
C20    C21     1.401   .     S
C20    H37     1.140   .     S
C20    C58     1.402   1_454 D
C21    C23     1.397   .     D
C21    C22     1.403   .     S
C22    N3      1.360   .     D
C22    C60     1.405   1_454 S
C23    H14     1.138   .     S
C23    C24     1.398   .     S
C24    C25     1.402   .     D
C24    H15     1.138   .     S
C25    N3      1.352   .     S
C25    C64     1.454   .     S
N3     Cu2     1.943   .     S
C26    C63     1.454   .     S
C26    C27     1.392   .     D
C26    C31     1.397   .     S
C27    C28     1.389   .     S
C27    H16     1.138   .     S
C28    H17     1.138   .     S
C28    C29     1.405   .     D
C29    C30     1.396   .     S
C29    C342    1.460   .     S
C30    C31     1.388   .     D
C30    H18     1.138   .     S
C31    H19     1.138   .     S
H13    C58     1.140   .     S
N4     C209    1.510   .     D
N4     C32     1.251   .     S
C32    C37     1.392   .     D
C32    C33     1.398   .     S
C33    C34     1.376   .     D
C33    H20     1.138   .     S
C34    C35     1.397   .     S
C34    H21     1.138   .     S
C35    C462    1.587   .     S
C35    C36     1.406   .     D
C36    C37     1.397   .     S
C36    H22     1.138   .     S
C37    H23     1.138   .     S
C38    N10     1.510   .     D
C38    H192    1.140   .     S
C38    C352    1.460   .     S
F3     B8      1.419   .     S
F4     B8      1.416   .     S
H24    C285    1.140   .     S
C39    C40     1.401   .     S
C39    C1      1.402   1_456 D
C40    C42     1.397   .     D
C40    C41     1.403   .     S
C41    N5      1.360   .     D
C41    C3      1.405   1_456 S
C42    H26     1.138   .     S
C42    C43     1.398   .     S
C43    C44     1.402   .     D
C43    H27     1.138   .     S
C44    N5      1.352   .     S
N5     Cu2     1.943   1_556 S
C45    C46     1.392   .     D
C45    C50     1.397   .     S
C46    C47     1.389   .     S
C46    H28     1.138   .     S
C47    H29     1.138   .     S
C47    C48     1.405   .     D
C48    C49     1.396   .     S
C48    C361    1.460   .     S
C49    C50     1.388   .     D
C49    H30     1.138   .     S
C50    H31     1.138   .     S
N6     C171    1.510   .     D
N6     C51     1.251   .     S
C51    C56     1.392   .     D
C51    C52     1.398   .     S
C52    C53     1.376   .     D
C52    H32     1.138   .     S
C53    C54     1.397   .     S
C53    H33     1.138   .     S
C54    C464    1.587   .     S
C54    C55     1.406   .     D
C55    C56     1.397   .     S
C55    H34     1.138   .     S
C56    H35     1.138   .     S
C57    N12     1.510   .     D
C57    H168    1.140   .     S
C57    C333    1.460   .     S
F5     B7      1.419   .     S
F6     B7      1.416   .     S
H36    C247    1.140   .     S
C58    C59     1.401   .     S
C58    C20     1.402   1_656 D
C59    C61     1.397   .     S
C59    C60     1.403   .     D
C60    N7      1.360   .     S
C60    C22     1.405   1_656 S
C61    H38     1.138   .     S
C61    C62     1.398   .     D
C62    C63     1.402   .     S
C62    H39     1.138   .     S
C63    N7      1.352   .     D
N7     Cu2     1.943   1_656 S
C64    C65     1.392   .     D
C64    C69     1.397   .     S
C65    C66     1.389   .     S
C65    H40     1.138   .     S
C66    H41     1.138   .     S
C66    C67     1.405   .     D
C67    C68     1.396   .     S
C67    C323    1.460   .     S
C68    C69     1.388   .     D
C68    H42     1.138   .     S
C69    H43     1.138   .     S
N8     C228    1.510   .     D
N8     C70     1.251   .     S
C70    C75     1.392   .     D
C70    C71     1.398   .     S
C71    C72     1.376   .     D
C71    H44     1.138   .     S
C72    C73     1.397   .     S
C72    H45     1.138   .     S
C73    C463    1.587   .     S
C73    C74     1.406   .     D
C74    C75     1.397   .     S
C74    H46     1.138   .     S
C75    H47     1.138   .     S
C76    N16     1.510   .     D
C76    H156    1.140   .     S
C76    C371    1.460   .     S
F7     B5      1.419   .     S
F8     B5      1.416   .     S
H48    C266    1.140   .     S
C77    C78     1.401   .     S
C77    H73     1.140   .     S
C77    C115    1.402   1_465 D
C78    C80     1.397   .     S
C78    C79     1.403   .     D
C79    N9      1.360   .     S
C79    C117    1.405   1_465 S
C80    H50     1.138   .     S
C80    C81     1.398   .     D
C81    C82     1.402   .     S
C81    H51     1.138   .     S
C82    N9      1.352   .     D
C82    C121    1.454   .     S
N9     Cu3     1.943   1_565 S
C83    C120    1.454   .     S
C83    C88     1.397   .     S
C83    C84     1.392   .     D
C84    C85     1.389   .     S
C84    H52     1.138   .     S
C85    C86     1.405   .     D
C85    H53     1.138   .     S
C86    C87     1.396   .     S
C86    C247    1.460   .     S
C87    H54     1.138   .     S
C87    C88     1.388   .     D
C88    H55     1.138   .     S
H49    C115    1.140   .     S
N10    C89     1.251   .     S
C89    C94     1.392   .     D
C89    C90     1.398   .     S
C90    C91     1.376   .     D
C90    H56     1.138   .     S
C91    C92     1.397   .     S
C91    H57     1.138   .     S
C92    C93     1.406   .     D
C92    C464    1.587   .     S
C93    C94     1.397   .     S
C93    H58     1.138   .     S
C94    H59     1.138   .     S
C95    N22     1.510   .     D
C95    C295    1.460   .     S
C95    H252    1.140   .     S
F9     B10     1.419   .     S
F10    B10     1.416   .     S
H60    C418    1.140   .     S
C96    C97     1.401   .     S
C96    H85     1.140   .     S
C96    C134    1.402   1_445 D
C97    C99     1.397   .     D
C97    C98     1.403   .     S
C98    N11     1.360   .     D
C98    C136    1.405   1_445 S
C99    H62     1.138   .     S
C99    C100    1.398   .     S
C100   C101    1.402   .     D
C100   H63     1.138   .     S
C101   N11     1.352   .     S
C101   C140    1.454   .     S
N11    Cu3     1.943   .     S
C102   C139    1.454   .     S
C102   C107    1.397   .     D
C102   C103    1.392   .     S
C103   C104    1.389   .     D
C103   H64     1.138   .     S
C104   C105    1.405   .     S
C104   H65     1.138   .     S
C105   C106    1.396   .     D
C105   C285    1.460   .     S
C106   H66     1.138   .     S
C106   C107    1.388   .     S
C107   H67     1.138   .     S
H61    C134    1.140   .     S
N12    C108    1.251   .     S
C108   C113    1.392   .     D
C108   C109    1.398   .     S
C109   C110    1.376   .     D
C109   H68     1.138   .     S
C110   C111    1.397   .     S
C110   H69     1.138   .     S
C111   C112    1.406   .     D
C111   C462    1.587   .     S
C112   C113    1.397   .     S
C112   H70     1.138   .     S
C113   H71     1.138   .     S
C114   N18     1.510   .     D
C114   C257    1.460   .     S
C114   H264    1.140   .     S
F11    B12     1.419   .     S
F12    B12     1.416   .     S
H72    C399    1.140   .     S
C115   C116    1.401   .     S
C115   C77     1.402   1_645 D
C116   C118    1.397   .     D
C116   C117    1.403   .     S
C117   N13     1.360   .     D
C117   C79     1.405   1_645 S
C118   H74     1.138   .     S
C118   C119    1.398   .     S
C119   C120    1.402   .     D
C119   H75     1.138   .     S
C120   N13     1.352   .     S
N13    Cu3     1.943   1_655 S
C121   C126    1.397   .     D
C121   C122    1.392   .     S
C122   C123    1.389   .     D
C122   H76     1.138   .     S
C123   C124    1.405   .     S
C123   H77     1.138   .     S
C124   C125    1.396   .     D
C124   C266    1.460   .     S
C125   H78     1.138   .     S
C125   C126    1.388   .     S
C126   H79     1.138   .     S
N14    C127    1.251   .     S
C127   C132    1.392   .     D
C127   C128    1.398   .     S
C128   C129    1.376   .     D
C128   H80     1.138   .     S
C129   C130    1.397   .     S
C129   H81     1.138   .     S
C130   C131    1.406   .     D
C130   C463    1.587   .     S
C131   C132    1.397   .     S
C131   H82     1.138   .     S
C132   H83     1.138   .     S
C133   N20     1.510   .     D
C133   C276    1.460   .     S
C133   H288    1.140   .     S
F13    B11     1.419   .     S
F14    B11     1.416   .     S
H84    C437    1.140   .     S
C134   C135    1.401   .     S
C134   C96     1.402   1_665 D
C135   C137    1.397   .     S
C135   C136    1.403   .     D
C136   N15     1.360   .     S
C136   C98     1.405   1_665 S
C137   H86     1.138   .     S
C137   C138    1.398   .     D
C138   C139    1.402   .     S
C138   H87     1.138   .     S
C139   N15     1.352   .     D
N15    Cu3     1.943   1_665 S
C140   C145    1.397   .     S
C140   C141    1.392   .     D
C141   C142    1.389   .     S
C141   H88     1.138   .     S
C142   C143    1.405   .     D
C142   H89     1.138   .     S
C143   C144    1.396   .     S
C143   C304    1.460   .     S
C144   H90     1.138   .     S
C144   C145    1.388   .     D
C145   H91     1.138   .     S
N16    C146    1.251   .     S
C146   C151    1.392   .     D
C146   C147    1.398   .     S
C147   C148    1.376   .     D
C147   H92     1.138   .     S
C148   C149    1.397   .     S
C148   H93     1.138   .     S
C149   C150    1.406   .     D
C149   C461    1.587   .     S
C150   C151    1.397   .     S
C150   H94     1.138   .     S
C151   H95     1.138   .     S
C152   N24     1.510   .     D
C152   C238    1.460   .     S
C152   H276    1.140   .     S
F15    B9      1.419   .     S
F16    B9      1.416   .     S
H96    C456    1.140   .     S
C153   C154    1.401   .     S
C153   H121    1.140   .     S
C153   C191    1.402   1_546 D
C154   C156    1.397   .     D
C154   C155    1.403   .     S
C155   N17     1.360   .     D
C155   C193    1.405   1_546 S
C156   H98     1.138   .     S
C156   C157    1.398   .     S
C157   C158    1.402   .     D
C157   H99     1.138   .     S
C158   N17     1.352   .     S
C158   C197    1.454   .     S
N17    Cu1     1.943   1_556 S
C159   C196    1.454   .     S
C159   C160    1.392   .     D
C159   C164    1.397   .     S
C160   C161    1.389   .     S
C160   H100    1.138   .     S
C161   H101    1.138   .     S
C161   C162    1.405   .     D
C162   C163    1.396   .     S
C162   C437    1.460   .     S
C163   C164    1.388   .     D
C163   H102    1.138   .     S
C164   H103    1.138   .     S
H97    C191    1.140   .     S
N18    C165    1.251   .     S
C165   C170    1.392   .     D
C165   C166    1.398   .     S
C166   C167    1.376   .     D
C166   H104    1.138   .     S
C167   C168    1.397   .     S
C167   H105    1.138   .     S
C168   C463    1.587   .     S
C168   C169    1.406   .     D
C169   C170    1.397   .     S
C169   H106    1.138   .     S
C170   H107    1.138   .     S
C171   H216    1.140   .     S
C171   C409    1.460   .     S
F17    B2      1.419   .     S
F18    B2      1.416   .     S
H108   C323    1.140   .     S
C172   C173    1.401   .     S
C172   H133    1.140   .     S
C172   C210    1.402   1_544 D
C173   C175    1.397   .     S
C173   C174    1.403   .     D
C174   N19     1.360   .     S
C174   C212    1.405   1_544 S
C175   H110    1.138   .     S
C175   C176    1.398   .     D
C176   C177    1.402   .     S
C176   H111    1.138   .     S
C177   N19     1.352   .     D
C177   C216    1.454   .     S
N19    Cu1     1.943   .     S
C178   C215    1.454   .     S
C178   C179    1.392   .     D
C178   C183    1.397   .     S
C179   C180    1.389   .     S
C179   H112    1.138   .     S
C180   H113    1.138   .     S
C180   C181    1.405   .     D
C181   C182    1.396   .     S
C181   C399    1.460   .     S
C182   C183    1.388   .     D
C182   H114    1.138   .     S
C183   H115    1.138   .     S
H109   C210    1.140   .     S
N20    C184    1.251   .     S
C184   C189    1.392   .     D
C184   C185    1.398   .     S
C185   C186    1.376   .     D
C185   H116    1.138   .     S
C186   C187    1.397   .     S
C186   H117    1.138   .     S
C187   C462    1.587   .     S
C187   C188    1.406   .     D
C188   C189    1.397   .     S
C188   H118    1.138   .     S
C189   H119    1.138   .     S
C190   H204    1.140   .     S
C190   C447    1.460   .     S
F19    B4      1.419   .     S
F20    B4      1.416   .     S
H120   C342    1.140   .     S
C191   C192    1.401   .     S
C191   C153    1.402   1_564 D
C192   C194    1.397   .     S
C192   C193    1.403   .     D
C193   N21     1.360   .     S
C193   C155    1.405   1_564 S
C194   H122    1.138   .     S
C194   C195    1.398   .     D
C195   C196    1.402   .     S
C195   H123    1.138   .     S
C196   N21     1.352   .     D
N21    Cu1     1.943   1_565 S
C197   C198    1.392   .     D
C197   C202    1.397   .     S
C198   C199    1.389   .     S
C198   H124    1.138   .     S
C199   H125    1.138   .     S
C199   C200    1.405   .     D
C200   C201    1.396   .     S
C200   C456    1.460   .     S
C201   C202    1.388   .     D
C201   H126    1.138   .     S
C202   H127    1.138   .     S
N22    C203    1.251   .     S
C203   C208    1.392   .     D
C203   C204    1.398   .     S
C204   C205    1.376   .     D
C204   H128    1.138   .     S
C205   C206    1.397   .     S
C205   H129    1.138   .     S
C206   C461    1.587   .     S
C206   C207    1.406   .     D
C207   C208    1.397   .     S
C207   H130    1.138   .     S
C208   H131    1.138   .     S
C209   H228    1.140   .     S
C209   C390    1.460   .     S
F21    B3      1.419   .     S
F22    B3      1.416   .     S
H132   C380    1.140   .     S
C210   C211    1.401   .     S
C210   C172    1.402   1_566 D
C211   C213    1.397   .     D
C211   C212    1.403   .     S
C212   N23     1.360   .     D
C212   C174    1.405   1_566 S
C213   H134    1.138   .     S
C213   C214    1.398   .     S
C214   C215    1.402   .     D
C214   H135    1.138   .     S
C215   N23     1.352   .     S
N23    Cu1     1.943   1_566 S
C216   C217    1.392   .     D
C216   C221    1.397   .     S
C217   C218    1.389   .     S
C217   H136    1.138   .     S
C218   H137    1.138   .     S
C218   C219    1.405   .     D
C219   C220    1.396   .     S
C219   C418    1.460   .     S
C220   C221    1.388   .     D
C220   H138    1.138   .     S
C221   H139    1.138   .     S
N24    C222    1.251   .     S
C222   C227    1.392   .     D
C222   C223    1.398   .     S
C223   C224    1.376   .     D
C223   H140    1.138   .     S
C224   C225    1.397   .     S
C224   H141    1.138   .     S
C225   C464    1.587   .     S
C225   C226    1.406   .     D
C226   C227    1.397   .     S
C226   H142    1.138   .     S
C227   H143    1.138   .     S
C228   H240    1.140   .     S
C228   C428    1.460   .     S
F23    B1      1.419   .     S
F24    B1      1.416   .     S
H144   C361    1.140   .     S
C229   C230    1.401   .     S
C229   H169    1.140   .     S
C229   C267    1.402   .     D
C230   C232    1.397   .     D
C230   C231    1.403   .     S
C231   N25     1.360   .     D
C231   C269    1.405   .     S
C232   H146    1.138   .     S
C232   C233    1.398   .     S
C233   C234    1.402   .     D
C233   H147    1.138   .     S
C234   N25     1.352   .     S
C234   C273    1.454   .     S
N25    Cu5     1.943   1_655 S
C235   C272    1.454   .     S
C235   C240    1.397   .     D
C235   C236    1.392   1_655 S
C236   C237    1.389   .     D
C236   H148    1.138   .     S
C236   C235    1.392   1_455 S
C237   H149    1.138   .     S
C237   C238    1.405   .     S
C238   C239    1.396   .     D
C239   H150    1.138   .     S
C239   C240    1.388   1_455 S
C240   H151    1.138   .     S
C240   C239    1.388   1_655 S
H145   C267    1.140   .     S
N26    C418    1.510   .     D
N26    C241    1.251   .     S
C241   C246    1.392   .     D
C241   C242    1.398   .     S
C242   C243    1.376   .     D
C242   H152    1.138   .     S
C243   C244    1.397   .     S
C243   H153    1.138   .     S
C244   C457    1.587   .     S
C244   C245    1.406   .     D
C245   C246    1.397   .     S
C245   H154    1.138   .     S
C246   H155    1.138   .     S
C247   N38     1.510   .     D
F25    B1      1.419   .     S
F26    B1      1.416   .     S
C248   C249    1.401   .     S
C248   H181    1.140   .     S
C248   C286    1.402   .     D
C249   C251    1.397   .     D
C249   C250    1.403   .     S
C250   N27     1.360   .     D
C250   C288    1.405   .     S
C251   H158    1.138   .     S
C251   C252    1.398   .     S
C252   C253    1.402   .     D
C252   H159    1.138   .     S
C253   N27     1.352   .     S
C253   C292    1.454   .     S
N27    Cu5     1.943   .     S
C254   C291    1.454   .     S
C254   C259    1.397   .     D
C254   C255    1.392   1_455 S
C255   C256    1.389   .     D
C255   H160    1.138   .     S
C255   C254    1.392   1_655 S
C256   H161    1.138   .     S
C256   C257    1.405   .     S
C257   C258    1.396   .     D
C258   H162    1.138   .     S
C258   C259    1.388   1_655 S
C259   H163    1.138   .     S
C259   C258    1.388   1_455 S
H157   C286    1.140   .     S
N28    C437    1.510   .     D
N28    C260    1.251   .     S
C260   C265    1.392   .     D
C260   C261    1.398   .     S
C261   C262    1.376   .     D
C261   H164    1.138   .     S
C262   H165    1.138   .     S
C262   C263    1.397   .     S
C263   C458    1.587   .     S
C263   C264    1.406   .     D
C264   C265    1.397   .     S
C264   H166    1.138   .     S
C265   H167    1.138   .     S
C266   N34     1.510   .     D
F27    B2      1.419   .     S
F28    B2      1.416   .     S
C267   C268    1.401   .     S
C268   C270    1.397   .     S
C268   C269    1.403   .     D
C269   N29     1.360   .     S
C270   H170    1.138   .     S
C270   C271    1.398   .     D
C271   C272    1.402   .     S
C271   H171    1.138   .     S
C272   N29     1.352   .     D
N29    Cu5     1.943   1_655 S
C273   C278    1.397   .     D
C273   C274    1.392   1_655 S
C274   C275    1.389   .     D
C274   H172    1.138   .     S
C274   C273    1.392   1_455 S
C275   H173    1.138   .     S
C275   C276    1.405   .     S
C276   C277    1.396   .     D
C277   H174    1.138   .     S
C277   C278    1.388   1_455 S
C278   H175    1.138   .     S
C278   C277    1.388   1_655 S
N30    C399    1.510   .     D
N30    C279    1.251   .     S
C279   C284    1.392   .     D
C279   C280    1.398   .     S
C280   C281    1.376   .     D
C280   H176    1.138   .     S
C281   C282    1.397   .     S
C281   H177    1.138   .     S
C282   C460    1.587   .     S
C282   C283    1.406   .     D
C283   C284    1.397   .     S
C283   H178    1.138   .     S
C284   H179    1.138   .     S
C285   N36     1.510   .     D
F29    B4      1.419   .     S
F30    B4      1.416   .     S
C286   C287    1.401   .     S
C287   C289    1.397   .     S
C287   C288    1.403   .     D
C288   N31     1.360   .     S
C289   H182    1.138   .     S
C289   C290    1.398   .     D
C290   C291    1.402   .     S
C290   H183    1.138   .     S
C291   N31     1.352   .     D
N31    Cu5     1.943   .     S
C292   C297    1.397   .     D
C292   C293    1.392   1_455 S
C293   C294    1.389   .     D
C293   H184    1.138   .     S
C293   C292    1.392   1_655 S
C294   H185    1.138   .     S
C294   C295    1.405   .     S
C295   C296    1.396   .     D
C296   H186    1.138   .     S
C296   C297    1.388   1_655 S
C297   H187    1.138   .     S
C297   C296    1.388   1_455 S
N32    C456    1.510   .     D
N32    C298    1.251   .     S
C298   C303    1.392   .     D
C298   C299    1.398   .     S
C299   C300    1.376   .     D
C299   H188    1.138   .     S
C300   H189    1.138   .     S
C300   C301    1.397   .     S
C301   C459    1.587   .     S
C301   C302    1.406   .     D
C302   C303    1.397   .     S
C302   H190    1.138   .     S
C303   H191    1.138   .     S
C304   N40     1.510   .     D
F31    B3      1.419   .     S
F32    B3      1.416   .     S
C305   C306    1.401   .     S
C305   C343    1.402   .     D
C305   H217    1.140   .     S
C306   C308    1.397   .     D
C306   C307    1.403   .     S
C307   N33     1.360   .     D
C307   C345    1.405   .     S
C308   H194    1.138   .     S
C308   C309    1.398   .     S
C309   C310    1.402   .     D
C309   H195    1.138   .     S
C310   N33     1.352   .     S
C310   C349    1.454   .     S
N33    Cu6     1.943   .     S
C311   C348    1.454   .     S
C311   C316    1.397   .     D
C311   C312    1.392   1_554 S
C312   C313    1.389   .     D
C312   H196    1.138   .     S
C312   C311    1.392   1_556 S
C313   C314    1.405   .     S
C313   H197    1.138   .     S
C314   C315    1.396   .     D
C315   H198    1.138   .     S
C315   C316    1.388   1_556 S
C316   H199    1.138   .     S
C316   C315    1.388   1_554 S
H193   C343    1.140   .     S
N34    C317    1.251   .     S
C317   C322    1.392   .     D
C317   C318    1.398   .     S
C318   C319    1.376   .     D
C318   H200    1.138   .     S
C319   H201    1.138   .     S
C319   C320    1.397   .     S
C320   C460    1.587   .     S
C320   C321    1.406   .     D
C321   C322    1.397   .     S
C321   H202    1.138   .     S
C322   H203    1.138   .     S
C323   N46     1.510   .     D
F33    B11     1.419   .     S
F34    B11     1.416   .     S
C324   C325    1.401   .     S
C324   C362    1.402   .     D
C324   H229    1.140   .     S
C325   C327    1.397   .     D
C325   C326    1.403   .     S
C326   N35     1.360   .     D
C326   C364    1.405   .     S
C327   H206    1.138   .     S
C327   C328    1.398   .     S
C328   C329    1.402   .     D
C328   H207    1.138   .     S
C329   N35     1.352   .     S
C329   C368    1.454   .     S
N35    Cu6     1.943   1_556 S
C330   C367    1.454   .     S
C330   C335    1.397   .     D
C330   C331    1.392   1_556 S
C331   C332    1.389   .     D
C331   H208    1.138   .     S
C331   C330    1.392   1_554 S
C332   C333    1.405   .     S
C332   H209    1.138   .     S
C333   C334    1.396   .     D
C334   H210    1.138   .     S
C334   C335    1.388   1_554 S
C335   H211    1.138   .     S
C335   C334    1.388   1_556 S
H205   C362    1.140   .     S
N36    C336    1.251   .     S
C336   C341    1.392   .     D
C336   C337    1.398   .     S
C337   C338    1.376   .     D
C337   H212    1.138   .     S
C338   C339    1.397   .     S
C338   H213    1.138   .     S
C339   C340    1.406   .     D
C339   C458    1.587   .     S
C340   C341    1.397   .     S
C340   H214    1.138   .     S
C341   H215    1.138   .     S
C342   N42     1.510   .     D
F35    B12     1.419   .     S
F36    B12     1.416   .     S
C343   C344    1.401   .     S
C344   C346    1.397   .     S
C344   C345    1.403   .     D
C345   N37     1.360   .     S
C346   H218    1.138   .     S
C346   C347    1.398   .     D
C347   C348    1.402   .     S
C347   H219    1.138   .     S
C348   N37     1.352   .     D
N37    Cu6     1.943   .     S
C349   C354    1.397   .     D
C349   C350    1.392   1_554 S
C350   C351    1.389   .     D
C350   H220    1.138   .     S
C350   C349    1.392   1_556 S
C351   C352    1.405   .     S
C351   H221    1.138   .     S
C352   C353    1.396   .     D
C353   H222    1.138   .     S
C353   C354    1.388   1_556 S
C354   H223    1.138   .     S
C354   C353    1.388   1_554 S
N38    C355    1.251   .     S
C355   C360    1.392   .     D
C355   C356    1.398   .     S
C356   C357    1.376   .     D
C356   H224    1.138   .     S
C357   H225    1.138   .     S
C357   C358    1.397   .     S
C358   C459    1.587   .     S
C358   C359    1.406   .     D
C359   C360    1.397   .     S
C359   H226    1.138   .     S
C360   H227    1.138   .     S
C361   N44     1.510   .     D
F37    B10     1.419   .     S
F38    B10     1.416   .     S
C362   C363    1.401   .     S
C363   C365    1.397   .     S
C363   C364    1.403   .     D
C364   N39     1.360   .     S
C365   H230    1.138   .     S
C365   C366    1.398   .     D
C366   C367    1.402   .     S
C366   H231    1.138   .     S
C367   N39     1.352   .     D
N39    Cu6     1.943   1_556 S
C368   C373    1.397   .     D
C368   C369    1.392   1_556 S
C369   C370    1.389   .     D
C369   H232    1.138   .     S
C369   C368    1.392   1_554 S
C370   C371    1.405   .     S
C370   H233    1.138   .     S
C371   C372    1.396   .     D
C372   H234    1.138   .     S
C372   C373    1.388   1_554 S
C373   H235    1.138   .     S
C373   C372    1.388   1_556 S
N40    C374    1.251   .     S
C374   C379    1.392   .     D
C374   C375    1.398   .     S
C375   C376    1.376   .     D
C375   H236    1.138   .     S
C376   C377    1.397   .     S
C376   H237    1.138   .     S
C377   C378    1.406   .     D
C377   C457    1.587   .     S
C378   C379    1.397   .     S
C378   H238    1.138   .     S
C379   H239    1.138   .     S
C380   N48     1.510   .     D
F39    B9      1.419   .     S
F40    B9      1.416   .     S
C381   C382    1.401   .     S
C381   H265    1.140   .     S
C381   C419    1.402   .     D
C382   C384    1.397   .     D
C382   C383    1.403   .     S
C383   N41     1.360   .     D
C383   C421    1.405   .     S
C384   H242    1.138   .     S
C384   C385    1.398   .     S
C385   C386    1.402   .     D
C385   H243    1.138   .     S
C386   N41     1.352   .     S
C386   C425    1.454   .     S
N41    Cu4     1.943   1_565 S
C387   C424    1.454   .     S
C387   C392    1.397   .     D
C387   C388    1.392   1_565 S
C388   C389    1.389   .     D
C388   H244    1.138   .     S
C388   C387    1.392   1_545 S
C389   C390    1.405   .     S
C389   H245    1.138   .     S
C390   C391    1.396   .     D
C391   H246    1.138   .     S
C391   C392    1.388   1_545 S
C392   H247    1.138   .     S
C392   C391    1.388   1_565 S
H241   C419    1.140   .     S
N42    C393    1.251   .     S
C393   C398    1.392   .     D
C393   C394    1.398   .     S
C394   C395    1.376   .     D
C394   H248    1.138   .     S
C395   C396    1.397   .     S
C395   H249    1.138   .     S
C396   C397    1.406   .     D
C396   C459    1.587   .     S
C397   C398    1.397   .     S
C397   H250    1.138   .     S
C398   H251    1.138   .     S
F41    B8      1.419   .     S
F42    B8      1.416   .     S
C400   C401    1.401   .     S
C400   H277    1.140   .     S
C400   C438    1.402   .     D
C401   C403    1.397   .     D
C401   C402    1.403   .     S
C402   N43     1.360   .     D
C402   C440    1.405   .     S
C403   H254    1.138   .     S
C403   C404    1.398   .     S
C404   C405    1.402   .     D
C404   H255    1.138   .     S
C405   N43     1.352   .     S
C405   C444    1.454   .     S
N43    Cu4     1.943   .     S
C406   C443    1.454   .     S
C406   C411    1.397   .     D
C406   C407    1.392   1_545 S
C407   C408    1.389   .     D
C407   H256    1.138   .     S
C407   C406    1.392   1_565 S
C408   C409    1.405   .     S
C408   H257    1.138   .     S
C409   C410    1.396   .     D
C410   H258    1.138   .     S
C410   C411    1.388   1_565 S
C411   H259    1.138   .     S
C411   C410    1.388   1_545 S
H253   C438    1.140   .     S
N44    C412    1.251   .     S
C412   C417    1.392   .     D
C412   C413    1.398   .     S
C413   C414    1.376   .     D
C413   H260    1.138   .     S
C414   H261    1.138   .     S
C414   C415    1.397   .     S
C415   C458    1.587   .     S
C415   C416    1.406   .     D
C416   C417    1.397   .     S
C416   H262    1.138   .     S
C417   H263    1.138   .     S
F43    B7      1.419   .     S
F44    B7      1.416   .     S
C419   C420    1.401   .     S
C420   C422    1.397   .     S
C420   C421    1.403   .     D
C421   N45     1.360   .     S
C422   H266    1.138   .     S
C422   C423    1.398   .     D
C423   C424    1.402   .     S
C423   H267    1.138   .     S
C424   N45     1.352   .     D
N45    Cu4     1.943   1_565 S
C425   C430    1.397   .     D
C425   C426    1.392   1_565 S
C426   C427    1.389   .     D
C426   H268    1.138   .     S
C426   C425    1.392   1_545 S
C427   C428    1.405   .     S
C427   H269    1.138   .     S
C428   C429    1.396   .     D
C429   H270    1.138   .     S
C429   C430    1.388   1_545 S
C430   H271    1.138   .     S
C430   C429    1.388   1_565 S
N46    C431    1.251   .     S
C431   C436    1.392   .     D
C431   C432    1.398   .     S
C432   C433    1.376   .     D
C432   H272    1.138   .     S
C433   C434    1.397   .     S
C433   H273    1.138   .     S
C434   C435    1.406   .     D
C434   C457    1.587   .     S
C435   C436    1.397   .     S
C435   H274    1.138   .     S
C436   H275    1.138   .     S
F45    B5      1.419   .     S
F46    B5      1.416   .     S
C438   C439    1.401   .     S
C439   C441    1.397   .     S
C439   C440    1.403   .     D
C440   N47     1.360   .     S
C441   H278    1.138   .     S
C441   C442    1.398   .     D
C442   C443    1.402   .     S
C442   H279    1.138   .     S
C443   N47     1.352   .     D
N47    Cu4     1.943   .     S
C444   C449    1.397   .     D
C444   C445    1.392   1_545 S
C445   C446    1.389   .     D
C445   H280    1.138   .     S
C445   C444    1.392   1_565 S
C446   C447    1.405   .     S
C446   H281    1.138   .     S
C447   C448    1.396   .     D
C448   H282    1.138   .     S
C448   C449    1.388   1_565 S
C449   H283    1.138   .     S
C449   C448    1.388   1_545 S
N48    C450    1.251   .     S
C450   C455    1.392   .     D
C450   C451    1.398   .     S
C451   C452    1.376   .     D
C451   H284    1.138   .     S
C452   H285    1.138   .     S
C452   C453    1.397   .     S
C453   C460    1.587   .     S
C453   C454    1.406   .     D
C454   C455    1.397   .     S
C454   H286    1.138   .     S
C455   H287    1.138   .     S
F47    B6      1.419   .     S
F48    B6      1.416   .     S
C457   H296    1.140   .     S
C458   H295    1.140   .     S
C459   H293    1.140   .     S
C460   H294    1.140   .     S
C461   H292    1.140   .     S
C462   H291    1.140   .     S
C463   H289    1.140   .     S
C464   H290    1.140   .     S
Cu1    N17     1.943   1_554 S
Cu1    N21     1.943   1_545 S
Cu1    N23     1.943   1_544 S
Cu2    N1      1.943   1_455 S
Cu2    N5      1.943   1_554 S
Cu2    N7      1.943   1_454 S
Cu3    N9      1.943   1_545 S
Cu3    N13     1.943   1_455 S
Cu3    N15     1.943   1_445 S
Cu4    N41     1.943   1_545 S
Cu4    N45     1.943   1_545 S
Cu5    N25     1.943   1_455 S
Cu5    N29     1.943   1_455 S
Cu6    N35     1.943   1_554 S
Cu6    N39     1.943   1_554 S
