data_1208
_audit_creation_date              2023-09-08
_audit_creation_method            'Materials Studio'
_symmetry_space_group_name_H-M    'P1'
_symmetry_Int_Tables_number       1
_symmetry_cell_setting            triclinic
loop_
_symmetry_equiv_pos_as_xyz
  x,y,z
_cell_length_a                    54.8588
_cell_length_b                    54.8588
_cell_length_c                    54.8588
_cell_angle_alpha                 90.0000
_cell_angle_beta                  90.0000
_cell_angle_gamma                 90.0000
loop_
_atom_site_label
_atom_site_type_symbol
_atom_site_fract_x
_atom_site_fract_y
_atom_site_fract_z
_atom_site_U_iso_or_equiv
_atom_site_adp_type
_atom_site_occupancy
C1     C     0.73376   0.83155   0.93417   0.00000  Uiso   1.00
C2     C     0.51991   0.76573   0.05220   0.00000  Uiso   1.00
C3     C     0.51329   0.78892   0.06039   0.00000  Uiso   1.00
C4     C     0.49432   0.79157   0.07727   0.00000  Uiso   1.00
C5     C     0.48388   0.77070   0.08781   0.00000  Uiso   1.00
C6     C     0.49101   0.74754   0.08009   0.00000  Uiso   1.00
C7     C     0.50811   0.74496   0.06123   0.00000  Uiso   1.00
C8     C     0.98931   0.72131   0.45124   0.00000  Uiso   1.00
C9     C     0.98681   0.69953   0.43795   0.00000  Uiso   1.00
C10    C     0.98889   0.67703   0.44991   0.00000  Uiso   1.00
C11    C     0.99660   0.69835   0.48755   0.00000  Uiso   1.00
C12    C     0.99410   0.67623   0.47492   0.00000  Uiso   1.00
C13    C     0.99722   0.65413   0.48750   0.00000  Uiso   1.00
C14    C     0.58384   0.73821   0.74482   0.00000  Uiso   1.00
C15    C     0.56169   0.72623   0.73979   0.00000  Uiso   1.00
C16    C     0.53980   0.73815   0.74510   0.00000  Uiso   1.00
C17    C     0.56042   0.70265   0.72974   0.00000  Uiso   1.00
C18    C     0.53759   0.69138   0.72612   0.00000  Uiso   1.00
C19    C     0.51616   0.70404   0.73226   0.00000  Uiso   1.00
C20    C     0.49231   0.80463   0.76235   0.00000  Uiso   1.00
C21    C     0.48289   0.80452   0.73869   0.00000  Uiso   1.00
C22    C     0.67951   0.74933   0.41901   0.00000  Uiso   1.00
C23    C     0.43945   0.79133   0.51557   0.00000  Uiso   1.00
C24    C     0.43365   0.80689   0.49606   0.00000  Uiso   1.00
C25    C     0.43204   0.79713   0.47244   0.00000  Uiso   1.00
C26    C     0.43795   0.77260   0.46826   0.00000  Uiso   1.00
N1     N     0.99308   0.71991   0.47572   0.00000  Uiso   1.00
N2     N     0.51815   0.72692   0.74103   0.00000  Uiso   1.00
N3     N     0.16300   0.43239   0.78918   0.00000  Uiso   1.00
C27    C     0.15694   0.36788   0.83153   0.00000  Uiso   1.00
C28    C     0.15362   0.36665   0.80617   0.00000  Uiso   1.00
C29    C     0.15561   0.38766   0.79186   0.00000  Uiso   1.00
C30    C     0.16085   0.41024   0.80285   0.00000  Uiso   1.00
C31    C     0.16397   0.41145   0.82811   0.00000  Uiso   1.00
C32    C     0.16233   0.39045   0.84230   0.00000  Uiso   1.00
C33    C     0.41013   0.44556   0.06314   0.00000  Uiso   1.00
C34    C     0.38844   0.43229   0.06020   0.00000  Uiso   1.00
C35    C     0.36603   0.44413   0.06023   0.00000  Uiso   1.00
C36    C     0.36467   0.46940   0.06297   0.00000  Uiso   1.00
C37    C     0.38629   0.48302   0.06514   0.00000  Uiso   1.00
C38    C     0.40890   0.47108   0.06533   0.00000  Uiso   1.00
N4     N     0.34080   0.52015   0.93571   0.00000  Uiso   1.00
H1     H     0.74571   0.83007   0.91723   0.00000  Uiso   1.00
H2     H     0.53501   0.76362   0.03808   0.00000  Uiso   1.00
H3     H     0.52333   0.80569   0.05334   0.00000  Uiso   1.00
H4     H     0.46954   0.77265   0.10271   0.00000  Uiso   1.00
H5     H     0.48295   0.73064   0.08910   0.00000  Uiso   1.00
H6     H     0.98312   0.70020   0.41751   0.00000  Uiso   1.00
H7     H     0.98633   0.65935   0.43929   0.00000  Uiso   1.00
H8     H     0.99526   0.63607   0.47741   0.00000  Uiso   1.00
H9     H     0.60191   0.72889   0.74052   0.00000  Uiso   1.00
H10    H     0.57786   0.69263   0.72452   0.00000  Uiso   1.00
H11    H     0.53662   0.67216   0.71828   0.00000  Uiso   1.00
H12    H     0.49510   0.79944   0.72266   0.00000  Uiso   1.00
H13    H     0.43922   0.79856   0.53505   0.00000  Uiso   1.00
H14    H     0.42593   0.80915   0.45663   0.00000  Uiso   1.00
H15    H     0.43674   0.76474   0.44906   0.00000  Uiso   1.00
H16    H     0.14928   0.34845   0.79712   0.00000  Uiso   1.00
H17    H     0.15299   0.38648   0.77128   0.00000  Uiso   1.00
H18    H     0.16788   0.42970   0.83723   0.00000  Uiso   1.00
H19    H     0.16537   0.39153   0.86283   0.00000  Uiso   1.00
H20    H     0.38912   0.41166   0.05777   0.00000  Uiso   1.00
H21    H     0.34865   0.43296   0.05799   0.00000  Uiso   1.00
H22    H     0.38541   0.50372   0.06673   0.00000  Uiso   1.00
H23    H     0.42643   0.48206   0.06726   0.00000  Uiso   1.00
F1     F     0.38826   0.74357   0.51676   0.00000  Uiso   1.00
F2     F     0.35894   0.72443   0.49367   0.00000  Uiso   1.00
H24    H     0.42086   0.84270   0.48450   0.00000  Uiso   1.00
O1     O     0.02046   0.16708   0.64909   0.00000  Uiso   1.00
C39    C     0.73376   0.33155   0.43417   0.00000  Uiso   1.00
C40    C     0.51991   0.26573   0.55220   0.00000  Uiso   1.00
C41    C     0.51329   0.28892   0.56039   0.00000  Uiso   1.00
C42    C     0.49432   0.29157   0.57727   0.00000  Uiso   1.00
C43    C     0.48388   0.27070   0.58781   0.00000  Uiso   1.00
C44    C     0.49101   0.24754   0.58009   0.00000  Uiso   1.00
C45    C     0.50811   0.24496   0.56123   0.00000  Uiso   1.00
C46    C     0.98931   0.22131   0.95124   0.00000  Uiso   1.00
C47    C     0.98681   0.19953   0.93795   0.00000  Uiso   1.00
C48    C     0.98889   0.17703   0.94991   0.00000  Uiso   1.00
C49    C     0.99660   0.19835   0.98755   0.00000  Uiso   1.00
C50    C     0.99410   0.17623   0.97492   0.00000  Uiso   1.00
C51    C     0.99722   0.15413   0.98750   0.00000  Uiso   1.00
C52    C     0.58384   0.23821   0.24482   0.00000  Uiso   1.00
C53    C     0.56169   0.22623   0.23979   0.00000  Uiso   1.00
C54    C     0.53980   0.23815   0.24510   0.00000  Uiso   1.00
C55    C     0.56042   0.20265   0.22974   0.00000  Uiso   1.00
C56    C     0.53759   0.19138   0.22612   0.00000  Uiso   1.00
C57    C     0.51616   0.20404   0.23226   0.00000  Uiso   1.00
C58    C     0.49231   0.30463   0.26235   0.00000  Uiso   1.00
C59    C     0.48289   0.30452   0.23869   0.00000  Uiso   1.00
C60    C     0.67951   0.24933   0.91901   0.00000  Uiso   1.00
C61    C     0.43945   0.29133   0.01557   0.00000  Uiso   1.00
C62    C     0.43365   0.30689   0.99606   0.00000  Uiso   1.00
C63    C     0.43204   0.29713   0.97244   0.00000  Uiso   1.00
C64    C     0.43795   0.27260   0.96826   0.00000  Uiso   1.00
N5     N     0.99308   0.21991   0.97572   0.00000  Uiso   1.00
N6     N     0.51815   0.22692   0.24103   0.00000  Uiso   1.00
N7     N     0.16300   0.93239   0.28918   0.00000  Uiso   1.00
C65    C     0.15694   0.86788   0.33153   0.00000  Uiso   1.00
C66    C     0.15362   0.86665   0.30617   0.00000  Uiso   1.00
C67    C     0.15561   0.88766   0.29186   0.00000  Uiso   1.00
C68    C     0.16085   0.91024   0.30285   0.00000  Uiso   1.00
C69    C     0.16397   0.91145   0.32811   0.00000  Uiso   1.00
C70    C     0.16233   0.89045   0.34230   0.00000  Uiso   1.00
C71    C     0.41013   0.94556   0.56314   0.00000  Uiso   1.00
C72    C     0.38844   0.93229   0.56020   0.00000  Uiso   1.00
C73    C     0.36603   0.94413   0.56023   0.00000  Uiso   1.00
C74    C     0.36467   0.96940   0.56297   0.00000  Uiso   1.00
C75    C     0.38629   0.98302   0.56514   0.00000  Uiso   1.00
C76    C     0.40890   0.97108   0.56533   0.00000  Uiso   1.00
N8     N     0.34080   0.02015   0.43571   0.00000  Uiso   1.00
H25    H     0.74571   0.33007   0.41723   0.00000  Uiso   1.00
H26    H     0.53501   0.26362   0.53808   0.00000  Uiso   1.00
H27    H     0.52333   0.30569   0.55334   0.00000  Uiso   1.00
H28    H     0.46954   0.27265   0.60271   0.00000  Uiso   1.00
H29    H     0.48295   0.23064   0.58910   0.00000  Uiso   1.00
H30    H     0.98312   0.20020   0.91751   0.00000  Uiso   1.00
H31    H     0.98633   0.15935   0.93929   0.00000  Uiso   1.00
H32    H     0.99526   0.13607   0.97741   0.00000  Uiso   1.00
H33    H     0.60191   0.22889   0.24052   0.00000  Uiso   1.00
H34    H     0.57786   0.19263   0.22452   0.00000  Uiso   1.00
H35    H     0.53662   0.17216   0.21828   0.00000  Uiso   1.00
H36    H     0.49510   0.29944   0.22266   0.00000  Uiso   1.00
H37    H     0.43922   0.29856   0.03505   0.00000  Uiso   1.00
H38    H     0.42593   0.30915   0.95663   0.00000  Uiso   1.00
H39    H     0.43674   0.26474   0.94906   0.00000  Uiso   1.00
H40    H     0.14928   0.84845   0.29712   0.00000  Uiso   1.00
H41    H     0.15299   0.88648   0.27128   0.00000  Uiso   1.00
H42    H     0.16788   0.92970   0.33723   0.00000  Uiso   1.00
H43    H     0.16537   0.89153   0.36283   0.00000  Uiso   1.00
H44    H     0.38912   0.91166   0.55777   0.00000  Uiso   1.00
H45    H     0.34865   0.93296   0.55799   0.00000  Uiso   1.00
H46    H     0.38541   0.00372   0.56673   0.00000  Uiso   1.00
H47    H     0.42643   0.98206   0.56726   0.00000  Uiso   1.00
F3     F     0.38826   0.24357   1.01676   0.00000  Uiso   1.00
F4     F     0.35894   0.22443   0.99367   0.00000  Uiso   1.00
H48    H     0.42086   0.34270   0.98450   0.00000  Uiso   1.00
O2     O     0.02046   0.66708   0.14909   0.00000  Uiso   1.00
C77    C     0.23376   0.83155   0.43417   0.00000  Uiso   1.00
C78    C     0.01991   0.76573   0.55220   0.00000  Uiso   1.00
C79    C     0.01329   0.78892   0.56039   0.00000  Uiso   1.00
C80    C     0.99432   0.79157   0.57727   0.00000  Uiso   1.00
C81    C     0.98388   0.77070   0.58781   0.00000  Uiso   1.00
C82    C     0.99101   0.74754   0.58009   0.00000  Uiso   1.00
C83    C     0.00811   0.74496   0.56123   0.00000  Uiso   1.00
C84    C     0.48931   0.72131   0.95124   0.00000  Uiso   1.00
C85    C     0.48681   0.69953   0.93795   0.00000  Uiso   1.00
C86    C     0.48889   0.67703   0.94991   0.00000  Uiso   1.00
C87    C     0.49660   0.69835   0.98755   0.00000  Uiso   1.00
C88    C     0.49410   0.67623   0.97492   0.00000  Uiso   1.00
C89    C     0.49722   0.65413   0.98750   0.00000  Uiso   1.00
C90    C     0.08384   0.73821   0.24482   0.00000  Uiso   1.00
C91    C     0.06169   0.72623   0.23979   0.00000  Uiso   1.00
C92    C     0.03980   0.73815   0.24510   0.00000  Uiso   1.00
C93    C     0.06042   0.70265   0.22974   0.00000  Uiso   1.00
C94    C     0.03759   0.69138   0.22612   0.00000  Uiso   1.00
C95    C     0.01616   0.70404   0.23226   0.00000  Uiso   1.00
C96    C     0.99231   0.80463   0.26235   0.00000  Uiso   1.00
C97    C     0.98289   0.80452   0.23869   0.00000  Uiso   1.00
C98    C     0.17951   0.74933   0.91901   0.00000  Uiso   1.00
C99    C     0.93945   0.79133   0.01557   0.00000  Uiso   1.00
C100   C     0.93365   0.80689   0.99606   0.00000  Uiso   1.00
C101   C     0.93204   0.79713   0.97244   0.00000  Uiso   1.00
C102   C     0.93795   0.77260   0.96826   0.00000  Uiso   1.00
N9     N     0.49308   0.71991   0.97572   0.00000  Uiso   1.00
N10    N     0.01815   0.72692   0.24103   0.00000  Uiso   1.00
N11    N     0.66300   0.43239   0.28918   0.00000  Uiso   1.00
C103   C     0.65694   0.36788   0.33153   0.00000  Uiso   1.00
C104   C     0.65362   0.36665   0.30617   0.00000  Uiso   1.00
C105   C     0.65561   0.38766   0.29186   0.00000  Uiso   1.00
C106   C     0.66085   0.41024   0.30285   0.00000  Uiso   1.00
C107   C     0.66397   0.41145   0.32811   0.00000  Uiso   1.00
C108   C     0.66233   0.39045   0.34230   0.00000  Uiso   1.00
C109   C     0.91013   0.44556   0.56314   0.00000  Uiso   1.00
C110   C     0.88844   0.43229   0.56020   0.00000  Uiso   1.00
C111   C     0.86603   0.44413   0.56023   0.00000  Uiso   1.00
C112   C     0.86467   0.46940   0.56297   0.00000  Uiso   1.00
C113   C     0.88629   0.48302   0.56514   0.00000  Uiso   1.00
C114   C     0.90890   0.47108   0.56533   0.00000  Uiso   1.00
N12    N     0.84080   0.52015   0.43571   0.00000  Uiso   1.00
H49    H     0.24571   0.83007   0.41723   0.00000  Uiso   1.00
H50    H     0.03501   0.76362   0.53808   0.00000  Uiso   1.00
H51    H     0.02333   0.80569   0.55334   0.00000  Uiso   1.00
H52    H     0.96954   0.77265   0.60271   0.00000  Uiso   1.00
H53    H     0.98295   0.73064   0.58910   0.00000  Uiso   1.00
H54    H     0.48312   0.70020   0.91751   0.00000  Uiso   1.00
H55    H     0.48633   0.65935   0.93929   0.00000  Uiso   1.00
H56    H     0.49526   0.63607   0.97741   0.00000  Uiso   1.00
H57    H     0.10191   0.72889   0.24052   0.00000  Uiso   1.00
H58    H     0.07786   0.69263   0.22452   0.00000  Uiso   1.00
H59    H     0.03662   0.67216   0.21828   0.00000  Uiso   1.00
H60    H     0.99510   0.79944   0.22266   0.00000  Uiso   1.00
H61    H     0.93922   0.79856   0.03505   0.00000  Uiso   1.00
H62    H     0.92593   0.80915   0.95663   0.00000  Uiso   1.00
H63    H     0.93674   0.76474   0.94906   0.00000  Uiso   1.00
H64    H     0.64928   0.34845   0.29712   0.00000  Uiso   1.00
H65    H     0.65299   0.38648   0.27128   0.00000  Uiso   1.00
H66    H     0.66788   0.42970   0.33723   0.00000  Uiso   1.00
H67    H     0.66537   0.39153   0.36283   0.00000  Uiso   1.00
H68    H     0.88912   0.41166   0.55777   0.00000  Uiso   1.00
H69    H     0.84865   0.43296   0.55799   0.00000  Uiso   1.00
H70    H     0.88541   0.50372   0.56673   0.00000  Uiso   1.00
H71    H     0.92643   0.48206   0.56726   0.00000  Uiso   1.00
F5     F     0.88826   0.74357   1.01676   0.00000  Uiso   1.00
F6     F     0.85894   0.72443   0.99367   0.00000  Uiso   1.00
H72    H     0.92086   0.84270   0.98450   0.00000  Uiso   1.00
O3     O     0.52046   0.16708   0.14909   0.00000  Uiso   1.00
C115   C     0.23376   0.33155   0.93417   0.00000  Uiso   1.00
C116   C     0.01991   0.26573   0.05220   0.00000  Uiso   1.00
C117   C     0.01329   0.28892   0.06039   0.00000  Uiso   1.00
C118   C     0.99432   0.29157   0.07727   0.00000  Uiso   1.00
C119   C     0.98388   0.27070   0.08781   0.00000  Uiso   1.00
C120   C     0.99101   0.24754   0.08009   0.00000  Uiso   1.00
C121   C     0.00811   0.24496   0.06123   0.00000  Uiso   1.00
C122   C     0.48931   0.22131   0.45124   0.00000  Uiso   1.00
C123   C     0.48681   0.19953   0.43795   0.00000  Uiso   1.00
C124   C     0.48889   0.17703   0.44991   0.00000  Uiso   1.00
C125   C     0.49660   0.19835   0.48755   0.00000  Uiso   1.00
C126   C     0.49410   0.17623   0.47492   0.00000  Uiso   1.00
C127   C     0.49722   0.15413   0.48750   0.00000  Uiso   1.00
C128   C     0.08384   0.23821   0.74482   0.00000  Uiso   1.00
C129   C     0.06169   0.22623   0.73979   0.00000  Uiso   1.00
C130   C     0.03980   0.23815   0.74510   0.00000  Uiso   1.00
C131   C     0.06042   0.20265   0.72974   0.00000  Uiso   1.00
C132   C     0.03759   0.19138   0.72612   0.00000  Uiso   1.00
C133   C     0.01616   0.20404   0.73226   0.00000  Uiso   1.00
C134   C     0.99231   0.30463   0.76235   0.00000  Uiso   1.00
C135   C     0.98289   0.30452   0.73869   0.00000  Uiso   1.00
C136   C     0.17951   0.24933   0.41901   0.00000  Uiso   1.00
C137   C     0.93945   0.29133   0.51557   0.00000  Uiso   1.00
C138   C     0.93365   0.30689   0.49606   0.00000  Uiso   1.00
C139   C     0.93204   0.29713   0.47244   0.00000  Uiso   1.00
C140   C     0.93795   0.27260   0.46826   0.00000  Uiso   1.00
N13    N     0.49308   0.21991   0.47572   0.00000  Uiso   1.00
N14    N     0.01815   0.22692   0.74103   0.00000  Uiso   1.00
N15    N     0.66300   0.93239   0.78918   0.00000  Uiso   1.00
C141   C     0.65694   0.86788   0.83153   0.00000  Uiso   1.00
C142   C     0.65362   0.86665   0.80617   0.00000  Uiso   1.00
C143   C     0.65561   0.88766   0.79186   0.00000  Uiso   1.00
C144   C     0.66085   0.91024   0.80285   0.00000  Uiso   1.00
C145   C     0.66397   0.91145   0.82811   0.00000  Uiso   1.00
C146   C     0.66233   0.89045   0.84230   0.00000  Uiso   1.00
C147   C     0.91013   0.94556   0.06314   0.00000  Uiso   1.00
C148   C     0.88844   0.93229   0.06020   0.00000  Uiso   1.00
C149   C     0.86603   0.94413   0.06023   0.00000  Uiso   1.00
C150   C     0.86467   0.96940   0.06297   0.00000  Uiso   1.00
C151   C     0.88629   0.98302   0.06514   0.00000  Uiso   1.00
C152   C     0.90890   0.97108   0.06533   0.00000  Uiso   1.00
N16    N     0.84080   0.02015   0.93571   0.00000  Uiso   1.00
H73    H     0.24571   0.33007   0.91723   0.00000  Uiso   1.00
H74    H     0.03501   0.26362   0.03808   0.00000  Uiso   1.00
H75    H     0.02333   0.30569   0.05334   0.00000  Uiso   1.00
H76    H     0.96954   0.27265   0.10271   0.00000  Uiso   1.00
H77    H     0.98295   0.23064   0.08910   0.00000  Uiso   1.00
H78    H     0.48312   0.20020   0.41751   0.00000  Uiso   1.00
H79    H     0.48633   0.15935   0.43929   0.00000  Uiso   1.00
H80    H     0.49526   0.13607   0.47741   0.00000  Uiso   1.00
H81    H     0.10191   0.22889   0.74052   0.00000  Uiso   1.00
H82    H     0.07786   0.19263   0.72452   0.00000  Uiso   1.00
H83    H     0.03662   0.17216   0.71828   0.00000  Uiso   1.00
H84    H     0.99510   0.29944   0.72266   0.00000  Uiso   1.00
H85    H     0.93922   0.29856   0.53505   0.00000  Uiso   1.00
H86    H     0.92593   0.30915   0.45663   0.00000  Uiso   1.00
H87    H     0.93674   0.26474   0.44906   0.00000  Uiso   1.00
H88    H     0.64928   0.84845   0.79712   0.00000  Uiso   1.00
H89    H     0.65299   0.88648   0.77128   0.00000  Uiso   1.00
H90    H     0.66788   0.92970   0.83723   0.00000  Uiso   1.00
H91    H     0.66537   0.89153   0.86283   0.00000  Uiso   1.00
H92    H     0.88912   0.91166   0.05777   0.00000  Uiso   1.00
H93    H     0.84865   0.93296   0.05799   0.00000  Uiso   1.00
H94    H     0.88541   0.00372   0.06673   0.00000  Uiso   1.00
H95    H     0.92643   0.98206   0.06726   0.00000  Uiso   1.00
F7     F     0.88826   0.24357   0.51676   0.00000  Uiso   1.00
F8     F     0.85894   0.22443   0.49367   0.00000  Uiso   1.00
H96    H     0.92086   0.34270   0.48450   0.00000  Uiso   1.00
O4     O     0.52046   0.66708   0.64909   0.00000  Uiso   1.00
C153   C     0.26624   0.66845   0.43417   0.00000  Uiso   1.00
C154   C     0.48009   0.73427   0.55220   0.00000  Uiso   1.00
C155   C     0.48671   0.71108   0.56039   0.00000  Uiso   1.00
C156   C     0.50568   0.70843   0.57727   0.00000  Uiso   1.00
C157   C     0.51612   0.72930   0.58781   0.00000  Uiso   1.00
C158   C     0.50899   0.75246   0.58009   0.00000  Uiso   1.00
C159   C     0.49189   0.75504   0.56123   0.00000  Uiso   1.00
C160   C     0.01069   0.77869   0.95124   0.00000  Uiso   1.00
C161   C     0.01319   0.80047   0.93795   0.00000  Uiso   1.00
C162   C     0.01111   0.82297   0.94991   0.00000  Uiso   1.00
C163   C     0.00340   0.80165   0.98755   0.00000  Uiso   1.00
C164   C     0.00590   0.82377   0.97492   0.00000  Uiso   1.00
C165   C     0.00278   0.84587   0.98750   0.00000  Uiso   1.00
C166   C     0.41616   0.76179   0.24482   0.00000  Uiso   1.00
C167   C     0.43831   0.77377   0.23979   0.00000  Uiso   1.00
C168   C     0.46020   0.76185   0.24510   0.00000  Uiso   1.00
C169   C     0.43958   0.79735   0.22974   0.00000  Uiso   1.00
C170   C     0.46241   0.80862   0.22612   0.00000  Uiso   1.00
C171   C     0.48384   0.79596   0.23226   0.00000  Uiso   1.00
C172   C     0.50769   0.69537   0.26235   0.00000  Uiso   1.00
C173   C     0.51711   0.69548   0.23869   0.00000  Uiso   1.00
C174   C     0.32049   0.75067   0.91901   0.00000  Uiso   1.00
C175   C     0.56055   0.70867   0.01557   0.00000  Uiso   1.00
C176   C     0.56635   0.69311   0.99606   0.00000  Uiso   1.00
C177   C     0.56796   0.70287   0.97244   0.00000  Uiso   1.00
C178   C     0.56205   0.72740   0.96826   0.00000  Uiso   1.00
N17    N     0.00692   0.78009   0.97572   0.00000  Uiso   1.00
N18    N     0.48185   0.77308   0.24103   0.00000  Uiso   1.00
N19    N     0.83700   0.06761   0.28918   0.00000  Uiso   1.00
C179   C     0.84306   0.13212   0.33153   0.00000  Uiso   1.00
C180   C     0.84638   0.13335   0.30617   0.00000  Uiso   1.00
C181   C     0.84439   0.11234   0.29186   0.00000  Uiso   1.00
C182   C     0.83915   0.08976   0.30285   0.00000  Uiso   1.00
C183   C     0.83603   0.08855   0.32811   0.00000  Uiso   1.00
C184   C     0.83767   0.10955   0.34230   0.00000  Uiso   1.00
C185   C     0.58987   0.05444   0.56314   0.00000  Uiso   1.00
C186   C     0.61156   0.06771   0.56020   0.00000  Uiso   1.00
C187   C     0.63397   0.05587   0.56023   0.00000  Uiso   1.00
C188   C     0.63533   0.03060   0.56297   0.00000  Uiso   1.00
C189   C     0.61371   0.01698   0.56514   0.00000  Uiso   1.00
C190   C     0.59110   0.02892   0.56533   0.00000  Uiso   1.00
N20    N     0.65920   0.97985   0.43571   0.00000  Uiso   1.00
H97    H     0.25429   0.66993   0.41723   0.00000  Uiso   1.00
H98    H     0.46499   0.73638   0.53808   0.00000  Uiso   1.00
H99    H     0.47667   0.69431   0.55334   0.00000  Uiso   1.00
H100   H     0.53046   0.72735   0.60271   0.00000  Uiso   1.00
H101   H     0.51705   0.76936   0.58910   0.00000  Uiso   1.00
H102   H     0.01688   0.79980   0.91751   0.00000  Uiso   1.00
H103   H     0.01367   0.84065   0.93929   0.00000  Uiso   1.00
H104   H     0.00474   0.86393   0.97741   0.00000  Uiso   1.00
H105   H     0.39809   0.77111   0.24052   0.00000  Uiso   1.00
H106   H     0.42214   0.80737   0.22452   0.00000  Uiso   1.00
H107   H     0.46338   0.82784   0.21828   0.00000  Uiso   1.00
H108   H     0.50490   0.70056   0.22266   0.00000  Uiso   1.00
H109   H     0.56078   0.70144   0.03505   0.00000  Uiso   1.00
H110   H     0.57407   0.69085   0.95663   0.00000  Uiso   1.00
H111   H     0.56326   0.73526   0.94906   0.00000  Uiso   1.00
H112   H     0.85072   0.15155   0.29712   0.00000  Uiso   1.00
H113   H     0.84701   0.11352   0.27128   0.00000  Uiso   1.00
H114   H     0.83212   0.07030   0.33723   0.00000  Uiso   1.00
H115   H     0.83463   0.10847   0.36283   0.00000  Uiso   1.00
H116   H     0.61088   0.08834   0.55777   0.00000  Uiso   1.00
H117   H     0.65135   0.06704   0.55799   0.00000  Uiso   1.00
H118   H     0.61459   0.99628   0.56673   0.00000  Uiso   1.00
H119   H     0.57357   0.01794   0.56726   0.00000  Uiso   1.00
F9     F     0.61174   0.75643   1.01676   0.00000  Uiso   1.00
F10    F     0.64106   0.77557   0.99367   0.00000  Uiso   1.00
H120   H     0.57914   0.65730   0.98450   0.00000  Uiso   1.00
O5     O     0.97954   0.33292   0.14909   0.00000  Uiso   1.00
C191   C     0.26624   0.16845   0.93417   0.00000  Uiso   1.00
C192   C     0.48009   0.23427   0.05220   0.00000  Uiso   1.00
C193   C     0.48671   0.21108   0.06039   0.00000  Uiso   1.00
C194   C     0.50568   0.20843   0.07727   0.00000  Uiso   1.00
C195   C     0.51612   0.22930   0.08781   0.00000  Uiso   1.00
C196   C     0.50899   0.25246   0.08009   0.00000  Uiso   1.00
C197   C     0.49189   0.25504   0.06123   0.00000  Uiso   1.00
C198   C     0.01069   0.27869   0.45124   0.00000  Uiso   1.00
C199   C     0.01319   0.30047   0.43795   0.00000  Uiso   1.00
C200   C     0.01111   0.32297   0.44991   0.00000  Uiso   1.00
C201   C     0.00340   0.30165   0.48755   0.00000  Uiso   1.00
C202   C     0.00590   0.32377   0.47492   0.00000  Uiso   1.00
C203   C     0.00278   0.34587   0.48750   0.00000  Uiso   1.00
C204   C     0.41616   0.26179   0.74482   0.00000  Uiso   1.00
C205   C     0.43831   0.27377   0.73979   0.00000  Uiso   1.00
C206   C     0.46020   0.26185   0.74510   0.00000  Uiso   1.00
C207   C     0.43958   0.29735   0.72974   0.00000  Uiso   1.00
C208   C     0.46241   0.30862   0.72612   0.00000  Uiso   1.00
C209   C     0.48384   0.29596   0.73226   0.00000  Uiso   1.00
C210   C     0.50769   0.19537   0.76235   0.00000  Uiso   1.00
C211   C     0.51711   0.19548   0.73869   0.00000  Uiso   1.00
C212   C     0.32049   0.25067   0.41901   0.00000  Uiso   1.00
C213   C     0.56055   0.20867   0.51557   0.00000  Uiso   1.00
C214   C     0.56635   0.19311   0.49606   0.00000  Uiso   1.00
C215   C     0.56796   0.20287   0.47244   0.00000  Uiso   1.00
C216   C     0.56205   0.22740   0.46826   0.00000  Uiso   1.00
N21    N     0.00692   0.28009   0.47572   0.00000  Uiso   1.00
N22    N     0.48185   0.27308   0.74103   0.00000  Uiso   1.00
N23    N     0.83700   0.56761   0.78918   0.00000  Uiso   1.00
C217   C     0.84306   0.63212   0.83153   0.00000  Uiso   1.00
C218   C     0.84638   0.63335   0.80617   0.00000  Uiso   1.00
C219   C     0.84439   0.61234   0.79186   0.00000  Uiso   1.00
C220   C     0.83915   0.58976   0.80285   0.00000  Uiso   1.00
C221   C     0.83603   0.58855   0.82811   0.00000  Uiso   1.00
C222   C     0.83767   0.60955   0.84230   0.00000  Uiso   1.00
C223   C     0.58987   0.55444   0.06314   0.00000  Uiso   1.00
C224   C     0.61156   0.56771   0.06020   0.00000  Uiso   1.00
C225   C     0.63397   0.55587   0.06023   0.00000  Uiso   1.00
C226   C     0.63533   0.53060   0.06297   0.00000  Uiso   1.00
C227   C     0.61371   0.51698   0.06514   0.00000  Uiso   1.00
C228   C     0.59110   0.52892   0.06533   0.00000  Uiso   1.00
N24    N     0.65920   0.47985   0.93571   0.00000  Uiso   1.00
H121   H     0.25429   0.16993   0.91723   0.00000  Uiso   1.00
H122   H     0.46499   0.23638   0.03808   0.00000  Uiso   1.00
H123   H     0.47667   0.19431   0.05334   0.00000  Uiso   1.00
H124   H     0.53046   0.22735   0.10271   0.00000  Uiso   1.00
H125   H     0.51705   0.26936   0.08910   0.00000  Uiso   1.00
H126   H     0.01688   0.29980   0.41751   0.00000  Uiso   1.00
H127   H     0.01367   0.34065   0.43929   0.00000  Uiso   1.00
H128   H     0.00474   0.36393   0.47741   0.00000  Uiso   1.00
H129   H     0.39809   0.27111   0.74052   0.00000  Uiso   1.00
H130   H     0.42214   0.30737   0.72452   0.00000  Uiso   1.00
H131   H     0.46338   0.32784   0.71828   0.00000  Uiso   1.00
H132   H     0.50490   0.20056   0.72266   0.00000  Uiso   1.00
H133   H     0.56078   0.20144   0.53505   0.00000  Uiso   1.00
H134   H     0.57407   0.19085   0.45663   0.00000  Uiso   1.00
H135   H     0.56326   0.23526   0.44906   0.00000  Uiso   1.00
H136   H     0.85072   0.65155   0.79712   0.00000  Uiso   1.00
H137   H     0.84701   0.61352   0.77128   0.00000  Uiso   1.00
H138   H     0.83212   0.57030   0.83723   0.00000  Uiso   1.00
H139   H     0.83463   0.60847   0.86283   0.00000  Uiso   1.00
H140   H     0.61088   0.58834   0.05777   0.00000  Uiso   1.00
H141   H     0.65135   0.56704   0.05799   0.00000  Uiso   1.00
H142   H     0.61459   0.49628   0.06673   0.00000  Uiso   1.00
H143   H     0.57357   0.51794   0.06726   0.00000  Uiso   1.00
F11    F     0.61174   0.25643   0.51676   0.00000  Uiso   1.00
F12    F     0.64106   0.27557   0.49367   0.00000  Uiso   1.00
H144   H     0.57914   0.15730   0.48450   0.00000  Uiso   1.00
O6     O     0.97954   0.83292   0.64909   0.00000  Uiso   1.00
C229   C     0.76624   0.66845   0.93417   0.00000  Uiso   1.00
C230   C     0.98009   0.73427   0.05220   0.00000  Uiso   1.00
C231   C     0.98671   0.71108   0.06039   0.00000  Uiso   1.00
C232   C     0.00568   0.70843   0.07727   0.00000  Uiso   1.00
C233   C     0.01612   0.72930   0.08781   0.00000  Uiso   1.00
C234   C     0.00899   0.75246   0.08009   0.00000  Uiso   1.00
C235   C     0.99189   0.75504   0.06123   0.00000  Uiso   1.00
C236   C     0.51069   0.77869   0.45124   0.00000  Uiso   1.00
C237   C     0.51319   0.80047   0.43795   0.00000  Uiso   1.00
C238   C     0.51111   0.82297   0.44991   0.00000  Uiso   1.00
C239   C     0.50340   0.80165   0.48755   0.00000  Uiso   1.00
C240   C     0.50590   0.82377   0.47492   0.00000  Uiso   1.00
C241   C     0.50278   0.84587   0.48750   0.00000  Uiso   1.00
C242   C     0.91616   0.76179   0.74482   0.00000  Uiso   1.00
C243   C     0.93831   0.77377   0.73979   0.00000  Uiso   1.00
C244   C     0.96020   0.76185   0.74510   0.00000  Uiso   1.00
C245   C     0.93958   0.79735   0.72974   0.00000  Uiso   1.00
C246   C     0.96241   0.80862   0.72612   0.00000  Uiso   1.00
C247   C     0.98384   0.79596   0.73226   0.00000  Uiso   1.00
C248   C     0.00769   0.69537   0.76235   0.00000  Uiso   1.00
C249   C     0.01711   0.69548   0.73869   0.00000  Uiso   1.00
C250   C     0.82049   0.75067   0.41901   0.00000  Uiso   1.00
C251   C     0.06055   0.70867   0.51557   0.00000  Uiso   1.00
C252   C     0.06635   0.69311   0.49606   0.00000  Uiso   1.00
C253   C     0.06796   0.70287   0.47244   0.00000  Uiso   1.00
C254   C     0.06205   0.72740   0.46826   0.00000  Uiso   1.00
N25    N     0.50692   0.78009   0.47572   0.00000  Uiso   1.00
N26    N     0.98185   0.77308   0.74103   0.00000  Uiso   1.00
N27    N     0.33700   0.06761   0.78918   0.00000  Uiso   1.00
C255   C     0.34306   0.13212   0.83153   0.00000  Uiso   1.00
C256   C     0.34638   0.13335   0.80617   0.00000  Uiso   1.00
C257   C     0.34439   0.11234   0.79186   0.00000  Uiso   1.00
C258   C     0.33915   0.08976   0.80285   0.00000  Uiso   1.00
C259   C     0.33603   0.08855   0.82811   0.00000  Uiso   1.00
C260   C     0.33767   0.10955   0.84230   0.00000  Uiso   1.00
C261   C     0.08987   0.05444   0.06314   0.00000  Uiso   1.00
C262   C     0.11156   0.06771   0.06020   0.00000  Uiso   1.00
C263   C     0.13397   0.05587   0.06023   0.00000  Uiso   1.00
C264   C     0.13533   0.03060   0.06297   0.00000  Uiso   1.00
C265   C     0.11371   0.01698   0.06514   0.00000  Uiso   1.00
C266   C     0.09110   0.02892   0.06533   0.00000  Uiso   1.00
N28    N     0.15920   0.97985   0.93571   0.00000  Uiso   1.00
H145   H     0.75429   0.66993   0.91723   0.00000  Uiso   1.00
H146   H     0.96499   0.73638   0.03808   0.00000  Uiso   1.00
H147   H     0.97667   0.69431   0.05334   0.00000  Uiso   1.00
H148   H     0.03046   0.72735   0.10271   0.00000  Uiso   1.00
H149   H     0.01705   0.76936   0.08910   0.00000  Uiso   1.00
H150   H     0.51688   0.79980   0.41751   0.00000  Uiso   1.00
H151   H     0.51367   0.84065   0.43929   0.00000  Uiso   1.00
H152   H     0.50474   0.86393   0.47741   0.00000  Uiso   1.00
H153   H     0.89809   0.77111   0.74052   0.00000  Uiso   1.00
H154   H     0.92214   0.80737   0.72452   0.00000  Uiso   1.00
H155   H     0.96338   0.82784   0.71828   0.00000  Uiso   1.00
H156   H     0.00490   0.70056   0.72266   0.00000  Uiso   1.00
H157   H     0.06078   0.70144   0.53505   0.00000  Uiso   1.00
H158   H     0.07407   0.69085   0.45663   0.00000  Uiso   1.00
H159   H     0.06326   0.73526   0.44906   0.00000  Uiso   1.00
H160   H     0.35072   0.15155   0.79712   0.00000  Uiso   1.00
H161   H     0.34701   0.11352   0.77128   0.00000  Uiso   1.00
H162   H     0.33212   0.07030   0.83723   0.00000  Uiso   1.00
H163   H     0.33463   0.10847   0.86283   0.00000  Uiso   1.00
H164   H     0.11088   0.08834   0.05777   0.00000  Uiso   1.00
H165   H     0.15135   0.06704   0.05799   0.00000  Uiso   1.00
H166   H     0.11459   0.99628   0.06673   0.00000  Uiso   1.00
H167   H     0.07357   0.01794   0.06726   0.00000  Uiso   1.00
F13    F     0.11174   0.75643   0.51676   0.00000  Uiso   1.00
F14    F     0.14106   0.77557   0.49367   0.00000  Uiso   1.00
H168   H     0.07914   0.65730   0.48450   0.00000  Uiso   1.00
O7     O     0.47954   0.33292   0.64909   0.00000  Uiso   1.00
C267   C     0.76624   0.16845   0.43417   0.00000  Uiso   1.00
C268   C     0.98009   0.23427   0.55220   0.00000  Uiso   1.00
C269   C     0.98671   0.21108   0.56039   0.00000  Uiso   1.00
C270   C     0.00568   0.20843   0.57727   0.00000  Uiso   1.00
C271   C     0.01612   0.22930   0.58781   0.00000  Uiso   1.00
C272   C     0.00899   0.25246   0.58009   0.00000  Uiso   1.00
C273   C     0.99189   0.25504   0.56123   0.00000  Uiso   1.00
C274   C     0.51069   0.27869   0.95124   0.00000  Uiso   1.00
C275   C     0.51319   0.30047   0.93795   0.00000  Uiso   1.00
C276   C     0.51111   0.32297   0.94991   0.00000  Uiso   1.00
C277   C     0.50340   0.30165   0.98755   0.00000  Uiso   1.00
C278   C     0.50590   0.32377   0.97492   0.00000  Uiso   1.00
C279   C     0.50278   0.34587   0.98750   0.00000  Uiso   1.00
C280   C     0.91616   0.26179   0.24482   0.00000  Uiso   1.00
C281   C     0.93831   0.27377   0.23979   0.00000  Uiso   1.00
C282   C     0.96020   0.26185   0.24510   0.00000  Uiso   1.00
C283   C     0.93958   0.29735   0.22974   0.00000  Uiso   1.00
C284   C     0.96241   0.30862   0.22612   0.00000  Uiso   1.00
C285   C     0.98384   0.29596   0.23226   0.00000  Uiso   1.00
C286   C     0.00769   0.19537   0.26235   0.00000  Uiso   1.00
C287   C     0.01711   0.19548   0.23869   0.00000  Uiso   1.00
C288   C     0.82049   0.25067   0.91901   0.00000  Uiso   1.00
C289   C     0.06055   0.20867   0.01557   0.00000  Uiso   1.00
C290   C     0.06635   0.19311   0.99606   0.00000  Uiso   1.00
C291   C     0.06796   0.20287   0.97244   0.00000  Uiso   1.00
C292   C     0.06205   0.22740   0.96826   0.00000  Uiso   1.00
N29    N     0.50692   0.28009   0.97572   0.00000  Uiso   1.00
N30    N     0.98185   0.27308   0.24103   0.00000  Uiso   1.00
N31    N     0.33700   0.56761   0.28918   0.00000  Uiso   1.00
C293   C     0.34306   0.63212   0.33153   0.00000  Uiso   1.00
C294   C     0.34638   0.63335   0.30617   0.00000  Uiso   1.00
C295   C     0.34439   0.61234   0.29186   0.00000  Uiso   1.00
C296   C     0.33915   0.58976   0.30285   0.00000  Uiso   1.00
C297   C     0.33603   0.58855   0.32811   0.00000  Uiso   1.00
C298   C     0.33767   0.60955   0.34230   0.00000  Uiso   1.00
C299   C     0.08987   0.55444   0.56314   0.00000  Uiso   1.00
C300   C     0.11156   0.56771   0.56020   0.00000  Uiso   1.00
C301   C     0.13397   0.55587   0.56023   0.00000  Uiso   1.00
C302   C     0.13533   0.53060   0.56297   0.00000  Uiso   1.00
C303   C     0.11371   0.51698   0.56514   0.00000  Uiso   1.00
C304   C     0.09110   0.52892   0.56533   0.00000  Uiso   1.00
N32    N     0.15920   0.47985   0.43571   0.00000  Uiso   1.00
H169   H     0.75429   0.16993   0.41723   0.00000  Uiso   1.00
H170   H     0.96499   0.23638   0.53808   0.00000  Uiso   1.00
H171   H     0.97667   0.19431   0.55334   0.00000  Uiso   1.00
H172   H     0.03046   0.22735   0.60271   0.00000  Uiso   1.00
H173   H     0.01705   0.26936   0.58910   0.00000  Uiso   1.00
H174   H     0.51688   0.29980   0.91751   0.00000  Uiso   1.00
H175   H     0.51367   0.34065   0.93929   0.00000  Uiso   1.00
H176   H     0.50474   0.36393   0.97741   0.00000  Uiso   1.00
H177   H     0.89809   0.27111   0.24052   0.00000  Uiso   1.00
H178   H     0.92214   0.30737   0.22452   0.00000  Uiso   1.00
H179   H     0.96338   0.32784   0.21828   0.00000  Uiso   1.00
H180   H     0.00490   0.20056   0.22266   0.00000  Uiso   1.00
H181   H     0.06078   0.20144   0.03505   0.00000  Uiso   1.00
H182   H     0.07407   0.19085   0.95663   0.00000  Uiso   1.00
H183   H     0.06326   0.23526   0.94906   0.00000  Uiso   1.00
H184   H     0.35072   0.65155   0.29712   0.00000  Uiso   1.00
H185   H     0.34701   0.61352   0.27128   0.00000  Uiso   1.00
H186   H     0.33212   0.57030   0.33723   0.00000  Uiso   1.00
H187   H     0.33463   0.60847   0.36283   0.00000  Uiso   1.00
H188   H     0.11088   0.58834   0.55777   0.00000  Uiso   1.00
H189   H     0.15135   0.56704   0.55799   0.00000  Uiso   1.00
H190   H     0.11459   0.49628   0.56673   0.00000  Uiso   1.00
H191   H     0.07357   0.51794   0.56726   0.00000  Uiso   1.00
F15    F     0.11174   0.25643   1.01676   0.00000  Uiso   1.00
F16    F     0.14106   0.27557   0.99367   0.00000  Uiso   1.00
H192   H     0.07914   0.15730   0.98450   0.00000  Uiso   1.00
O8     O     0.47954   0.83292   0.14909   0.00000  Uiso   1.00
C305   C     0.76624   0.33155   0.06583   0.00000  Uiso   1.00
C306   C     0.98009   0.26573   0.94780   0.00000  Uiso   1.00
C307   C     0.98671   0.28892   0.93961   0.00000  Uiso   1.00
C308   C     0.00568   0.29157   0.92273   0.00000  Uiso   1.00
C309   C     0.01612   0.27070   0.91219   0.00000  Uiso   1.00
C310   C     0.00899   0.24754   0.91991   0.00000  Uiso   1.00
C311   C     0.99189   0.24496   0.93877   0.00000  Uiso   1.00
C312   C     0.51069   0.22131   0.54876   0.00000  Uiso   1.00
C313   C     0.51319   0.19953   0.56205   0.00000  Uiso   1.00
C314   C     0.51111   0.17703   0.55009   0.00000  Uiso   1.00
C315   C     0.50340   0.19835   0.51245   0.00000  Uiso   1.00
C316   C     0.50590   0.17623   0.52508   0.00000  Uiso   1.00
C317   C     0.50278   0.15413   0.51250   0.00000  Uiso   1.00
C318   C     0.91616   0.23821   0.25518   0.00000  Uiso   1.00
C319   C     0.93831   0.22623   0.26021   0.00000  Uiso   1.00
C320   C     0.96020   0.23815   0.25490   0.00000  Uiso   1.00
C321   C     0.93958   0.20265   0.27026   0.00000  Uiso   1.00
C322   C     0.96241   0.19138   0.27388   0.00000  Uiso   1.00
C323   C     0.98384   0.20404   0.26774   0.00000  Uiso   1.00
C324   C     0.00769   0.30463   0.23765   0.00000  Uiso   1.00
C325   C     0.01711   0.30452   0.26131   0.00000  Uiso   1.00
C326   C     0.82049   0.24933   0.58099   0.00000  Uiso   1.00
C327   C     0.06055   0.29133   0.48443   0.00000  Uiso   1.00
C328   C     0.06635   0.30689   0.50394   0.00000  Uiso   1.00
C329   C     0.06796   0.29713   0.52756   0.00000  Uiso   1.00
C330   C     0.06205   0.27260   0.53174   0.00000  Uiso   1.00
N33    N     0.50692   0.21991   0.52428   0.00000  Uiso   1.00
N34    N     0.98185   0.22692   0.25897   0.00000  Uiso   1.00
N35    N     0.33700   0.93239   0.21082   0.00000  Uiso   1.00
C331   C     0.34306   0.86788   0.16847   0.00000  Uiso   1.00
C332   C     0.34638   0.86665   0.19383   0.00000  Uiso   1.00
C333   C     0.34439   0.88766   0.20814   0.00000  Uiso   1.00
C334   C     0.33915   0.91024   0.19715   0.00000  Uiso   1.00
C335   C     0.33603   0.91145   0.17189   0.00000  Uiso   1.00
C336   C     0.33767   0.89045   0.15770   0.00000  Uiso   1.00
C337   C     0.08987   0.94556   0.93686   0.00000  Uiso   1.00
C338   C     0.11156   0.93229   0.93980   0.00000  Uiso   1.00
C339   C     0.13397   0.94413   0.93977   0.00000  Uiso   1.00
C340   C     0.13533   0.96940   0.93703   0.00000  Uiso   1.00
C341   C     0.11371   0.98302   0.93486   0.00000  Uiso   1.00
C342   C     0.09110   0.97108   0.93467   0.00000  Uiso   1.00
N36    N     0.15920   0.02015   0.06429   0.00000  Uiso   1.00
H193   H     0.75429   0.33007   0.08277   0.00000  Uiso   1.00
H194   H     0.96499   0.26362   0.96192   0.00000  Uiso   1.00
H195   H     0.97667   0.30569   0.94666   0.00000  Uiso   1.00
H196   H     0.03046   0.27265   0.89729   0.00000  Uiso   1.00
H197   H     0.01705   0.23064   0.91090   0.00000  Uiso   1.00
H198   H     0.51688   0.20020   0.58249   0.00000  Uiso   1.00
H199   H     0.51367   0.15935   0.56071   0.00000  Uiso   1.00
H200   H     0.50474   0.13607   0.52259   0.00000  Uiso   1.00
H201   H     0.89809   0.22889   0.25948   0.00000  Uiso   1.00
H202   H     0.92214   0.19263   0.27548   0.00000  Uiso   1.00
H203   H     0.96338   0.17216   0.28172   0.00000  Uiso   1.00
H204   H     0.00490   0.29944   0.27734   0.00000  Uiso   1.00
H205   H     0.06078   0.29856   0.46495   0.00000  Uiso   1.00
H206   H     0.07407   0.30915   0.54337   0.00000  Uiso   1.00
H207   H     0.06326   0.26474   0.55094   0.00000  Uiso   1.00
H208   H     0.35072   0.84845   0.20288   0.00000  Uiso   1.00
H209   H     0.34701   0.88648   0.22872   0.00000  Uiso   1.00
H210   H     0.33212   0.92970   0.16277   0.00000  Uiso   1.00
H211   H     0.33463   0.89153   0.13717   0.00000  Uiso   1.00
H212   H     0.11088   0.91166   0.94223   0.00000  Uiso   1.00
H213   H     0.15135   0.93296   0.94201   0.00000  Uiso   1.00
H214   H     0.11459   0.00372   0.93327   0.00000  Uiso   1.00
H215   H     0.07357   0.98206   0.93274   0.00000  Uiso   1.00
F17    F     0.11174   0.24357   0.48324   0.00000  Uiso   1.00
F18    F     0.14106   0.22443   0.50633   0.00000  Uiso   1.00
H216   H     0.07914   0.34270   0.51550   0.00000  Uiso   1.00
O9     O     0.47954   0.66708   0.35091   0.00000  Uiso   1.00
C343   C     0.76624   0.83155   0.56583   0.00000  Uiso   1.00
C344   C     0.98009   0.76573   0.44780   0.00000  Uiso   1.00
C345   C     0.98671   0.78892   0.43961   0.00000  Uiso   1.00
C346   C     0.00568   0.79157   0.42273   0.00000  Uiso   1.00
C347   C     0.01612   0.77070   0.41219   0.00000  Uiso   1.00
C348   C     0.00899   0.74754   0.41991   0.00000  Uiso   1.00
C349   C     0.99189   0.74496   0.43877   0.00000  Uiso   1.00
C350   C     0.51069   0.72131   0.04876   0.00000  Uiso   1.00
C351   C     0.51319   0.69953   0.06205   0.00000  Uiso   1.00
C352   C     0.51111   0.67703   0.05009   0.00000  Uiso   1.00
C353   C     0.50340   0.69835   0.01245   0.00000  Uiso   1.00
C354   C     0.50590   0.67623   0.02508   0.00000  Uiso   1.00
C355   C     0.50278   0.65413   0.01250   0.00000  Uiso   1.00
C356   C     0.91616   0.73821   0.75518   0.00000  Uiso   1.00
C357   C     0.93831   0.72623   0.76021   0.00000  Uiso   1.00
C358   C     0.96020   0.73815   0.75490   0.00000  Uiso   1.00
C359   C     0.93958   0.70265   0.77026   0.00000  Uiso   1.00
C360   C     0.96241   0.69138   0.77388   0.00000  Uiso   1.00
C361   C     0.98384   0.70404   0.76774   0.00000  Uiso   1.00
C362   C     0.00769   0.80463   0.73765   0.00000  Uiso   1.00
C363   C     0.01711   0.80452   0.76131   0.00000  Uiso   1.00
C364   C     0.82049   0.74933   0.08099   0.00000  Uiso   1.00
C365   C     0.06055   0.79133   0.98443   0.00000  Uiso   1.00
C366   C     0.06635   0.80689   0.00394   0.00000  Uiso   1.00
C367   C     0.06796   0.79713   0.02756   0.00000  Uiso   1.00
C368   C     0.06205   0.77260   0.03174   0.00000  Uiso   1.00
N37    N     0.50692   0.71991   0.02428   0.00000  Uiso   1.00
N38    N     0.98185   0.72692   0.75897   0.00000  Uiso   1.00
N39    N     0.33700   0.43239   0.71082   0.00000  Uiso   1.00
C369   C     0.34306   0.36788   0.66847   0.00000  Uiso   1.00
C370   C     0.34638   0.36665   0.69383   0.00000  Uiso   1.00
C371   C     0.34439   0.38766   0.70814   0.00000  Uiso   1.00
C372   C     0.33915   0.41024   0.69715   0.00000  Uiso   1.00
C373   C     0.33603   0.41145   0.67189   0.00000  Uiso   1.00
C374   C     0.33767   0.39045   0.65770   0.00000  Uiso   1.00
C375   C     0.08987   0.44556   0.43686   0.00000  Uiso   1.00
C376   C     0.11156   0.43229   0.43980   0.00000  Uiso   1.00
C377   C     0.13397   0.44413   0.43977   0.00000  Uiso   1.00
C378   C     0.13533   0.46940   0.43703   0.00000  Uiso   1.00
C379   C     0.11371   0.48302   0.43486   0.00000  Uiso   1.00
C380   C     0.09110   0.47108   0.43467   0.00000  Uiso   1.00
N40    N     0.15920   0.52015   0.56429   0.00000  Uiso   1.00
H217   H     0.75429   0.83007   0.58277   0.00000  Uiso   1.00
H218   H     0.96499   0.76362   0.46192   0.00000  Uiso   1.00
H219   H     0.97667   0.80569   0.44666   0.00000  Uiso   1.00
H220   H     0.03046   0.77265   0.39729   0.00000  Uiso   1.00
H221   H     0.01705   0.73064   0.41090   0.00000  Uiso   1.00
H222   H     0.51688   0.70020   0.08249   0.00000  Uiso   1.00
H223   H     0.51367   0.65935   0.06071   0.00000  Uiso   1.00
H224   H     0.50474   0.63607   0.02259   0.00000  Uiso   1.00
H225   H     0.89809   0.72889   0.75948   0.00000  Uiso   1.00
H226   H     0.92214   0.69263   0.77548   0.00000  Uiso   1.00
H227   H     0.96338   0.67216   0.78172   0.00000  Uiso   1.00
H228   H     0.00490   0.79944   0.77734   0.00000  Uiso   1.00
H229   H     0.06078   0.79856   0.96495   0.00000  Uiso   1.00
H230   H     0.07407   0.80915   0.04337   0.00000  Uiso   1.00
H231   H     0.06326   0.76474   0.05094   0.00000  Uiso   1.00
H232   H     0.35072   0.34845   0.70288   0.00000  Uiso   1.00
H233   H     0.34701   0.38648   0.72872   0.00000  Uiso   1.00
H234   H     0.33212   0.42970   0.66277   0.00000  Uiso   1.00
H235   H     0.33463   0.39153   0.63717   0.00000  Uiso   1.00
H236   H     0.11088   0.41166   0.44223   0.00000  Uiso   1.00
H237   H     0.15135   0.43296   0.44201   0.00000  Uiso   1.00
H238   H     0.11459   0.50372   0.43327   0.00000  Uiso   1.00
H239   H     0.07357   0.48206   0.43274   0.00000  Uiso   1.00
F19    F     0.11174   0.74357  -0.01676   0.00000  Uiso   1.00
F20    F     0.14106   0.72443   0.00633   0.00000  Uiso   1.00
H240   H     0.07914   0.84270   0.01550   0.00000  Uiso   1.00
O10    O     0.47954   0.16708   0.85091   0.00000  Uiso   1.00
C381   C     0.26624   0.33155   0.56583   0.00000  Uiso   1.00
C382   C     0.48009   0.26573   0.44780   0.00000  Uiso   1.00
C383   C     0.48671   0.28892   0.43961   0.00000  Uiso   1.00
C384   C     0.50568   0.29157   0.42273   0.00000  Uiso   1.00
C385   C     0.51612   0.27070   0.41219   0.00000  Uiso   1.00
C386   C     0.50899   0.24754   0.41991   0.00000  Uiso   1.00
C387   C     0.49189   0.24496   0.43877   0.00000  Uiso   1.00
C388   C     0.01069   0.22131   0.04876   0.00000  Uiso   1.00
C389   C     0.01319   0.19953   0.06205   0.00000  Uiso   1.00
C390   C     0.01111   0.17703   0.05009   0.00000  Uiso   1.00
C391   C     0.00340   0.19835   0.01245   0.00000  Uiso   1.00
C392   C     0.00590   0.17623   0.02508   0.00000  Uiso   1.00
C393   C     0.00278   0.15413   0.01250   0.00000  Uiso   1.00
C394   C     0.41616   0.23821   0.75518   0.00000  Uiso   1.00
C395   C     0.43831   0.22623   0.76021   0.00000  Uiso   1.00
C396   C     0.46020   0.23815   0.75490   0.00000  Uiso   1.00
C397   C     0.43958   0.20265   0.77026   0.00000  Uiso   1.00
C398   C     0.46241   0.19138   0.77388   0.00000  Uiso   1.00
C399   C     0.48384   0.20404   0.76774   0.00000  Uiso   1.00
C400   C     0.50769   0.30463   0.73765   0.00000  Uiso   1.00
C401   C     0.51711   0.30452   0.76131   0.00000  Uiso   1.00
C402   C     0.32049   0.24933   0.08099   0.00000  Uiso   1.00
C403   C     0.56055   0.29133   0.98443   0.00000  Uiso   1.00
C404   C     0.56635   0.30689   0.00394   0.00000  Uiso   1.00
C405   C     0.56796   0.29713   0.02756   0.00000  Uiso   1.00
C406   C     0.56205   0.27260   0.03174   0.00000  Uiso   1.00
N41    N     0.00692   0.21991   0.02428   0.00000  Uiso   1.00
N42    N     0.48185   0.22692   0.75897   0.00000  Uiso   1.00
N43    N     0.83700   0.93239   0.71082   0.00000  Uiso   1.00
C407   C     0.84306   0.86788   0.66847   0.00000  Uiso   1.00
C408   C     0.84638   0.86665   0.69383   0.00000  Uiso   1.00
C409   C     0.84439   0.88766   0.70814   0.00000  Uiso   1.00
C410   C     0.83915   0.91024   0.69715   0.00000  Uiso   1.00
C411   C     0.83603   0.91145   0.67189   0.00000  Uiso   1.00
C412   C     0.83767   0.89045   0.65770   0.00000  Uiso   1.00
C413   C     0.58987   0.94556   0.43686   0.00000  Uiso   1.00
C414   C     0.61156   0.93229   0.43980   0.00000  Uiso   1.00
C415   C     0.63397   0.94413   0.43977   0.00000  Uiso   1.00
C416   C     0.63533   0.96940   0.43703   0.00000  Uiso   1.00
C417   C     0.61371   0.98302   0.43486   0.00000  Uiso   1.00
C418   C     0.59110   0.97108   0.43467   0.00000  Uiso   1.00
N44    N     0.65920   0.02015   0.56429   0.00000  Uiso   1.00
H241   H     0.25429   0.33007   0.58277   0.00000  Uiso   1.00
H242   H     0.46499   0.26362   0.46192   0.00000  Uiso   1.00
H243   H     0.47667   0.30569   0.44666   0.00000  Uiso   1.00
H244   H     0.53046   0.27265   0.39729   0.00000  Uiso   1.00
H245   H     0.51705   0.23064   0.41090   0.00000  Uiso   1.00
H246   H     0.01688   0.20020   0.08249   0.00000  Uiso   1.00
H247   H     0.01367   0.15935   0.06071   0.00000  Uiso   1.00
H248   H     0.00474   0.13607   0.02259   0.00000  Uiso   1.00
H249   H     0.39809   0.22889   0.75948   0.00000  Uiso   1.00
H250   H     0.42214   0.19263   0.77548   0.00000  Uiso   1.00
H251   H     0.46338   0.17216   0.78172   0.00000  Uiso   1.00
H252   H     0.50490   0.29944   0.77734   0.00000  Uiso   1.00
H253   H     0.56078   0.29856   0.96495   0.00000  Uiso   1.00
H254   H     0.57407   0.30915   0.04337   0.00000  Uiso   1.00
H255   H     0.56326   0.26474   0.05094   0.00000  Uiso   1.00
H256   H     0.85072   0.84845   0.70288   0.00000  Uiso   1.00
H257   H     0.84701   0.88648   0.72872   0.00000  Uiso   1.00
H258   H     0.83212   0.92970   0.66277   0.00000  Uiso   1.00
H259   H     0.83463   0.89153   0.63717   0.00000  Uiso   1.00
H260   H     0.61088   0.91166   0.44223   0.00000  Uiso   1.00
H261   H     0.65135   0.93296   0.44201   0.00000  Uiso   1.00
H262   H     0.61459   0.00372   0.43327   0.00000  Uiso   1.00
H263   H     0.57357   0.98206   0.43274   0.00000  Uiso   1.00
F21    F     0.61174   0.24357  -0.01676   0.00000  Uiso   1.00
F22    F     0.64106   0.22443   0.00633   0.00000  Uiso   1.00
H264   H     0.57914   0.34270   0.01550   0.00000  Uiso   1.00
O11    O     0.97954   0.66708   0.85091   0.00000  Uiso   1.00
C419   C     0.26624   0.83155   0.06583   0.00000  Uiso   1.00
C420   C     0.48009   0.76573   0.94780   0.00000  Uiso   1.00
C421   C     0.48671   0.78892   0.93961   0.00000  Uiso   1.00
C422   C     0.50568   0.79157   0.92273   0.00000  Uiso   1.00
C423   C     0.51612   0.77070   0.91219   0.00000  Uiso   1.00
C424   C     0.50899   0.74754   0.91991   0.00000  Uiso   1.00
C425   C     0.49189   0.74496   0.93877   0.00000  Uiso   1.00
C426   C     0.01069   0.72131   0.54876   0.00000  Uiso   1.00
C427   C     0.01319   0.69953   0.56205   0.00000  Uiso   1.00
C428   C     0.01111   0.67703   0.55009   0.00000  Uiso   1.00
C429   C     0.00340   0.69835   0.51245   0.00000  Uiso   1.00
C430   C     0.00590   0.67623   0.52508   0.00000  Uiso   1.00
C431   C     0.00278   0.65413   0.51250   0.00000  Uiso   1.00
C432   C     0.41616   0.73821   0.25518   0.00000  Uiso   1.00
C433   C     0.43831   0.72623   0.26021   0.00000  Uiso   1.00
C434   C     0.46020   0.73815   0.25490   0.00000  Uiso   1.00
C435   C     0.43958   0.70265   0.27026   0.00000  Uiso   1.00
C436   C     0.46241   0.69138   0.27388   0.00000  Uiso   1.00
C437   C     0.48384   0.70404   0.26774   0.00000  Uiso   1.00
C438   C     0.50769   0.80463   0.23765   0.00000  Uiso   1.00
C439   C     0.51711   0.80452   0.26131   0.00000  Uiso   1.00
C440   C     0.32049   0.74933   0.58099   0.00000  Uiso   1.00
C441   C     0.56055   0.79133   0.48443   0.00000  Uiso   1.00
C442   C     0.56635   0.80689   0.50394   0.00000  Uiso   1.00
C443   C     0.56796   0.79713   0.52756   0.00000  Uiso   1.00
C444   C     0.56205   0.77260   0.53174   0.00000  Uiso   1.00
N45    N     0.00692   0.71991   0.52428   0.00000  Uiso   1.00
N46    N     0.48185   0.72692   0.25897   0.00000  Uiso   1.00
N47    N     0.83700   0.43239   0.21082   0.00000  Uiso   1.00
C445   C     0.84306   0.36788   0.16847   0.00000  Uiso   1.00
C446   C     0.84638   0.36665   0.19383   0.00000  Uiso   1.00
C447   C     0.84439   0.38766   0.20814   0.00000  Uiso   1.00
C448   C     0.83915   0.41024   0.19715   0.00000  Uiso   1.00
C449   C     0.83603   0.41145   0.17189   0.00000  Uiso   1.00
C450   C     0.83767   0.39045   0.15770   0.00000  Uiso   1.00
C451   C     0.58987   0.44556   0.93686   0.00000  Uiso   1.00
C452   C     0.61156   0.43229   0.93980   0.00000  Uiso   1.00
C453   C     0.63397   0.44413   0.93977   0.00000  Uiso   1.00
C454   C     0.63533   0.46940   0.93703   0.00000  Uiso   1.00
C455   C     0.61371   0.48302   0.93486   0.00000  Uiso   1.00
C456   C     0.59110   0.47108   0.93467   0.00000  Uiso   1.00
N48    N     0.65920   0.52015   0.06429   0.00000  Uiso   1.00
H265   H     0.25429   0.83007   0.08277   0.00000  Uiso   1.00
H266   H     0.46499   0.76362   0.96192   0.00000  Uiso   1.00
H267   H     0.47667   0.80569   0.94666   0.00000  Uiso   1.00
H268   H     0.53046   0.77265   0.89729   0.00000  Uiso   1.00
H269   H     0.51705   0.73064   0.91090   0.00000  Uiso   1.00
H270   H     0.01688   0.70020   0.58249   0.00000  Uiso   1.00
H271   H     0.01367   0.65935   0.56071   0.00000  Uiso   1.00
H272   H     0.00474   0.63607   0.52259   0.00000  Uiso   1.00
H273   H     0.39809   0.72889   0.25948   0.00000  Uiso   1.00
H274   H     0.42214   0.69263   0.27548   0.00000  Uiso   1.00
H275   H     0.46338   0.67216   0.28172   0.00000  Uiso   1.00
H276   H     0.50490   0.79944   0.27734   0.00000  Uiso   1.00
H277   H     0.56078   0.79856   0.46495   0.00000  Uiso   1.00
H278   H     0.57407   0.80915   0.54337   0.00000  Uiso   1.00
H279   H     0.56326   0.76474   0.55094   0.00000  Uiso   1.00
H280   H     0.85072   0.34845   0.20288   0.00000  Uiso   1.00
H281   H     0.84701   0.38648   0.22872   0.00000  Uiso   1.00
H282   H     0.83212   0.42970   0.16277   0.00000  Uiso   1.00
H283   H     0.83463   0.39153   0.13717   0.00000  Uiso   1.00
H284   H     0.61088   0.41166   0.94223   0.00000  Uiso   1.00
H285   H     0.65135   0.43296   0.94201   0.00000  Uiso   1.00
H286   H     0.61459   0.50372   0.93327   0.00000  Uiso   1.00
H287   H     0.57357   0.48206   0.93274   0.00000  Uiso   1.00
F23    F     0.61174   0.74357   0.48324   0.00000  Uiso   1.00
F24    F     0.64106   0.72443   0.50633   0.00000  Uiso   1.00
H288   H     0.57914   0.84270   0.51550   0.00000  Uiso   1.00
O12    O     0.97954   0.16708   0.35091   0.00000  Uiso   1.00
C457   C     0.23376   0.16845   0.56583   0.00000  Uiso   1.00
C458   C     0.01991   0.23427   0.44780   0.00000  Uiso   1.00
C459   C     0.01329   0.21108   0.43961   0.00000  Uiso   1.00
C460   C     0.99432   0.20843   0.42273   0.00000  Uiso   1.00
C461   C     0.98388   0.22930   0.41219   0.00000  Uiso   1.00
C462   C     0.99101   0.25246   0.41991   0.00000  Uiso   1.00
C463   C     0.00811   0.25504   0.43877   0.00000  Uiso   1.00
C464   C     0.48931   0.27869   0.04876   0.00000  Uiso   1.00
C465   C     0.48681   0.30047   0.06205   0.00000  Uiso   1.00
C466   C     0.48889   0.32297   0.05009   0.00000  Uiso   1.00
C467   C     0.49660   0.30165   0.01245   0.00000  Uiso   1.00
C468   C     0.49410   0.32377   0.02508   0.00000  Uiso   1.00
C469   C     0.49722   0.34587   0.01250   0.00000  Uiso   1.00
C470   C     0.08384   0.26179   0.75518   0.00000  Uiso   1.00
C471   C     0.06169   0.27377   0.76021   0.00000  Uiso   1.00
C472   C     0.03980   0.26185   0.75490   0.00000  Uiso   1.00
C473   C     0.06042   0.29735   0.77026   0.00000  Uiso   1.00
C474   C     0.03759   0.30862   0.77388   0.00000  Uiso   1.00
C475   C     0.01616   0.29596   0.76774   0.00000  Uiso   1.00
C476   C     0.99231   0.19537   0.73765   0.00000  Uiso   1.00
C477   C     0.98289   0.19548   0.76131   0.00000  Uiso   1.00
C478   C     0.17951   0.25067   0.08099   0.00000  Uiso   1.00
C479   C     0.93945   0.20867   0.98443   0.00000  Uiso   1.00
C480   C     0.93365   0.19311   0.00394   0.00000  Uiso   1.00
C481   C     0.93204   0.20287   0.02756   0.00000  Uiso   1.00
C482   C     0.93795   0.22740   0.03174   0.00000  Uiso   1.00
N49    N     0.49308   0.28009   0.02428   0.00000  Uiso   1.00
N50    N     0.01815   0.27308   0.75897   0.00000  Uiso   1.00
N51    N     0.66300   0.56761   0.71082   0.00000  Uiso   1.00
C483   C     0.65694   0.63212   0.66847   0.00000  Uiso   1.00
C484   C     0.65362   0.63335   0.69383   0.00000  Uiso   1.00
C485   C     0.65561   0.61234   0.70814   0.00000  Uiso   1.00
C486   C     0.66085   0.58976   0.69715   0.00000  Uiso   1.00
C487   C     0.66397   0.58855   0.67189   0.00000  Uiso   1.00
C488   C     0.66233   0.60955   0.65770   0.00000  Uiso   1.00
C489   C     0.91013   0.55444   0.43686   0.00000  Uiso   1.00
C490   C     0.88844   0.56771   0.43980   0.00000  Uiso   1.00
C491   C     0.86603   0.55587   0.43977   0.00000  Uiso   1.00
C492   C     0.86467   0.53060   0.43703   0.00000  Uiso   1.00
C493   C     0.88629   0.51698   0.43486   0.00000  Uiso   1.00
C494   C     0.90890   0.52892   0.43467   0.00000  Uiso   1.00
N52    N     0.84080   0.47985   0.56429   0.00000  Uiso   1.00
H289   H     0.24571   0.16993   0.58277   0.00000  Uiso   1.00
H290   H     0.03501   0.23638   0.46192   0.00000  Uiso   1.00
H291   H     0.02333   0.19431   0.44666   0.00000  Uiso   1.00
H292   H     0.96954   0.22735   0.39729   0.00000  Uiso   1.00
H293   H     0.98295   0.26936   0.41090   0.00000  Uiso   1.00
H294   H     0.48312   0.29980   0.08249   0.00000  Uiso   1.00
H295   H     0.48633   0.34065   0.06071   0.00000  Uiso   1.00
H296   H     0.49526   0.36393   0.02259   0.00000  Uiso   1.00
H297   H     0.10191   0.27111   0.75948   0.00000  Uiso   1.00
H298   H     0.07786   0.30737   0.77548   0.00000  Uiso   1.00
H299   H     0.03662   0.32784   0.78172   0.00000  Uiso   1.00
H300   H     0.99510   0.20056   0.77734   0.00000  Uiso   1.00
H301   H     0.93922   0.20144   0.96495   0.00000  Uiso   1.00
H302   H     0.92593   0.19085   0.04337   0.00000  Uiso   1.00
H303   H     0.93674   0.23526   0.05094   0.00000  Uiso   1.00
H304   H     0.64928   0.65155   0.70288   0.00000  Uiso   1.00
H305   H     0.65299   0.61352   0.72872   0.00000  Uiso   1.00
H306   H     0.66788   0.57030   0.66277   0.00000  Uiso   1.00
H307   H     0.66537   0.60847   0.63717   0.00000  Uiso   1.00
H308   H     0.88912   0.58834   0.44223   0.00000  Uiso   1.00
H309   H     0.84865   0.56704   0.44201   0.00000  Uiso   1.00
H310   H     0.88541   0.49628   0.43327   0.00000  Uiso   1.00
H311   H     0.92643   0.51794   0.43274   0.00000  Uiso   1.00
F25    F     0.88826   0.25643  -0.01676   0.00000  Uiso   1.00
F26    F     0.85894   0.27557   0.00633   0.00000  Uiso   1.00
H312   H     0.92086   0.15730   0.01550   0.00000  Uiso   1.00
O13    O     0.52046   0.83292   0.85091   0.00000  Uiso   1.00
C495   C     0.23376   0.66845   0.06583   0.00000  Uiso   1.00
C496   C     0.01991   0.73427   0.94780   0.00000  Uiso   1.00
C497   C     0.01329   0.71108   0.93961   0.00000  Uiso   1.00
C498   C     0.99432   0.70843   0.92273   0.00000  Uiso   1.00
C499   C     0.98388   0.72930   0.91219   0.00000  Uiso   1.00
C500   C     0.99101   0.75246   0.91991   0.00000  Uiso   1.00
C501   C     0.00811   0.75504   0.93877   0.00000  Uiso   1.00
C502   C     0.48931   0.77869   0.54876   0.00000  Uiso   1.00
C503   C     0.48681   0.80047   0.56205   0.00000  Uiso   1.00
C504   C     0.48889   0.82297   0.55009   0.00000  Uiso   1.00
C505   C     0.49660   0.80165   0.51245   0.00000  Uiso   1.00
C506   C     0.49410   0.82377   0.52508   0.00000  Uiso   1.00
C507   C     0.49722   0.84587   0.51250   0.00000  Uiso   1.00
C508   C     0.08384   0.76179   0.25518   0.00000  Uiso   1.00
C509   C     0.06169   0.77377   0.26021   0.00000  Uiso   1.00
C510   C     0.03980   0.76185   0.25490   0.00000  Uiso   1.00
C511   C     0.06042   0.79735   0.27026   0.00000  Uiso   1.00
C512   C     0.03759   0.80862   0.27388   0.00000  Uiso   1.00
C513   C     0.01616   0.79596   0.26774   0.00000  Uiso   1.00
C514   C     0.99231   0.69537   0.23765   0.00000  Uiso   1.00
C515   C     0.98289   0.69548   0.26131   0.00000  Uiso   1.00
C516   C     0.17951   0.75067   0.58099   0.00000  Uiso   1.00
C517   C     0.93945   0.70867   0.48443   0.00000  Uiso   1.00
C518   C     0.93365   0.69311   0.50394   0.00000  Uiso   1.00
C519   C     0.93204   0.70287   0.52756   0.00000  Uiso   1.00
C520   C     0.93795   0.72740   0.53174   0.00000  Uiso   1.00
N53    N     0.49308   0.78009   0.52428   0.00000  Uiso   1.00
N54    N     0.01815   0.77308   0.25897   0.00000  Uiso   1.00
N55    N     0.66300   0.06761   0.21082   0.00000  Uiso   1.00
C521   C     0.65694   0.13212   0.16847   0.00000  Uiso   1.00
C522   C     0.65362   0.13335   0.19383   0.00000  Uiso   1.00
C523   C     0.65561   0.11234   0.20814   0.00000  Uiso   1.00
C524   C     0.66085   0.08976   0.19715   0.00000  Uiso   1.00
C525   C     0.66397   0.08855   0.17189   0.00000  Uiso   1.00
C526   C     0.66233   0.10955   0.15770   0.00000  Uiso   1.00
C527   C     0.91013   0.05444   0.93686   0.00000  Uiso   1.00
C528   C     0.88844   0.06771   0.93980   0.00000  Uiso   1.00
C529   C     0.86603   0.05587   0.93977   0.00000  Uiso   1.00
C530   C     0.86467   0.03060   0.93703   0.00000  Uiso   1.00
C531   C     0.88629   0.01698   0.93486   0.00000  Uiso   1.00
C532   C     0.90890   0.02892   0.93467   0.00000  Uiso   1.00
N56    N     0.84080   0.97985   0.06429   0.00000  Uiso   1.00
H313   H     0.24571   0.66993   0.08277   0.00000  Uiso   1.00
H314   H     0.03501   0.73638   0.96192   0.00000  Uiso   1.00
H315   H     0.02333   0.69431   0.94666   0.00000  Uiso   1.00
H316   H     0.96954   0.72735   0.89729   0.00000  Uiso   1.00
H317   H     0.98295   0.76936   0.91090   0.00000  Uiso   1.00
H318   H     0.48312   0.79980   0.58249   0.00000  Uiso   1.00
H319   H     0.48633   0.84065   0.56071   0.00000  Uiso   1.00
H320   H     0.49526   0.86393   0.52259   0.00000  Uiso   1.00
H321   H     0.10191   0.77111   0.25948   0.00000  Uiso   1.00
H322   H     0.07786   0.80737   0.27548   0.00000  Uiso   1.00
H323   H     0.03662   0.82784   0.28172   0.00000  Uiso   1.00
H324   H     0.99510   0.70056   0.27734   0.00000  Uiso   1.00
H325   H     0.93922   0.70144   0.46495   0.00000  Uiso   1.00
H326   H     0.92593   0.69085   0.54337   0.00000  Uiso   1.00
H327   H     0.93674   0.73526   0.55094   0.00000  Uiso   1.00
H328   H     0.64928   0.15155   0.20288   0.00000  Uiso   1.00
H329   H     0.65299   0.11352   0.22872   0.00000  Uiso   1.00
H330   H     0.66788   0.07030   0.16277   0.00000  Uiso   1.00
H331   H     0.66537   0.10847   0.13717   0.00000  Uiso   1.00
H332   H     0.88912   0.08834   0.94223   0.00000  Uiso   1.00
H333   H     0.84865   0.06704   0.94201   0.00000  Uiso   1.00
H334   H     0.88541   0.99628   0.93327   0.00000  Uiso   1.00
H335   H     0.92643   0.01794   0.93274   0.00000  Uiso   1.00
F27    F     0.88826   0.75643   0.48324   0.00000  Uiso   1.00
F28    F     0.85894   0.77557   0.50633   0.00000  Uiso   1.00
H336   H     0.92086   0.65730   0.51550   0.00000  Uiso   1.00
O14    O     0.52046   0.33292   0.35091   0.00000  Uiso   1.00
C533   C     0.73376   0.16845   0.06583   0.00000  Uiso   1.00
C534   C     0.51991   0.23427   0.94780   0.00000  Uiso   1.00
C535   C     0.51329   0.21108   0.93961   0.00000  Uiso   1.00
C536   C     0.49432   0.20843   0.92273   0.00000  Uiso   1.00
C537   C     0.48388   0.22930   0.91219   0.00000  Uiso   1.00
C538   C     0.49101   0.25246   0.91991   0.00000  Uiso   1.00
C539   C     0.50811   0.25504   0.93877   0.00000  Uiso   1.00
C540   C     0.98931   0.27869   0.54876   0.00000  Uiso   1.00
C541   C     0.98681   0.30047   0.56205   0.00000  Uiso   1.00
C542   C     0.98889   0.32297   0.55009   0.00000  Uiso   1.00
C543   C     0.99660   0.30165   0.51245   0.00000  Uiso   1.00
C544   C     0.99410   0.32377   0.52508   0.00000  Uiso   1.00
C545   C     0.99722   0.34587   0.51250   0.00000  Uiso   1.00
C546   C     0.58384   0.26179   0.25518   0.00000  Uiso   1.00
C547   C     0.56169   0.27377   0.26021   0.00000  Uiso   1.00
C548   C     0.53980   0.26185   0.25490   0.00000  Uiso   1.00
C549   C     0.56042   0.29735   0.27026   0.00000  Uiso   1.00
C550   C     0.53759   0.30862   0.27388   0.00000  Uiso   1.00
C551   C     0.51616   0.29596   0.26774   0.00000  Uiso   1.00
C552   C     0.49231   0.19537   0.23765   0.00000  Uiso   1.00
C553   C     0.48289   0.19548   0.26131   0.00000  Uiso   1.00
C554   C     0.67951   0.25067   0.58099   0.00000  Uiso   1.00
C555   C     0.43945   0.20867   0.48443   0.00000  Uiso   1.00
C556   C     0.43365   0.19311   0.50394   0.00000  Uiso   1.00
C557   C     0.43204   0.20287   0.52756   0.00000  Uiso   1.00
C558   C     0.43795   0.22740   0.53174   0.00000  Uiso   1.00
N57    N     0.99308   0.28009   0.52428   0.00000  Uiso   1.00
N58    N     0.51815   0.27308   0.25897   0.00000  Uiso   1.00
N59    N     0.16300   0.56761   0.21082   0.00000  Uiso   1.00
C559   C     0.15694   0.63212   0.16847   0.00000  Uiso   1.00
C560   C     0.15362   0.63335   0.19383   0.00000  Uiso   1.00
C561   C     0.15561   0.61234   0.20814   0.00000  Uiso   1.00
C562   C     0.16085   0.58976   0.19715   0.00000  Uiso   1.00
C563   C     0.16397   0.58855   0.17189   0.00000  Uiso   1.00
C564   C     0.16233   0.60955   0.15770   0.00000  Uiso   1.00
C565   C     0.41013   0.55444   0.93686   0.00000  Uiso   1.00
C566   C     0.38844   0.56771   0.93980   0.00000  Uiso   1.00
C567   C     0.36603   0.55587   0.93977   0.00000  Uiso   1.00
C568   C     0.36467   0.53060   0.93703   0.00000  Uiso   1.00
C569   C     0.38629   0.51698   0.93486   0.00000  Uiso   1.00
C570   C     0.40890   0.52892   0.93467   0.00000  Uiso   1.00
N60    N     0.34080   0.47985   0.06429   0.00000  Uiso   1.00
H337   H     0.74571   0.16993   0.08277   0.00000  Uiso   1.00
H338   H     0.53501   0.23638   0.96192   0.00000  Uiso   1.00
H339   H     0.52333   0.19431   0.94666   0.00000  Uiso   1.00
H340   H     0.46954   0.22735   0.89729   0.00000  Uiso   1.00
H341   H     0.48295   0.26936   0.91090   0.00000  Uiso   1.00
H342   H     0.98312   0.29980   0.58249   0.00000  Uiso   1.00
H343   H     0.98633   0.34065   0.56071   0.00000  Uiso   1.00
H344   H     0.99526   0.36393   0.52259   0.00000  Uiso   1.00
H345   H     0.60191   0.27111   0.25948   0.00000  Uiso   1.00
H346   H     0.57786   0.30737   0.27548   0.00000  Uiso   1.00
H347   H     0.53662   0.32784   0.28172   0.00000  Uiso   1.00
H348   H     0.49510   0.20056   0.27734   0.00000  Uiso   1.00
H349   H     0.43922   0.20144   0.46495   0.00000  Uiso   1.00
H350   H     0.42593   0.19085   0.54337   0.00000  Uiso   1.00
H351   H     0.43674   0.23526   0.55094   0.00000  Uiso   1.00
H352   H     0.14928   0.65155   0.20288   0.00000  Uiso   1.00
H353   H     0.15299   0.61352   0.22872   0.00000  Uiso   1.00
H354   H     0.16788   0.57030   0.16277   0.00000  Uiso   1.00
H355   H     0.16537   0.60847   0.13717   0.00000  Uiso   1.00
H356   H     0.38912   0.58834   0.94223   0.00000  Uiso   1.00
H357   H     0.34865   0.56704   0.94201   0.00000  Uiso   1.00
H358   H     0.38541   0.49628   0.93327   0.00000  Uiso   1.00
H359   H     0.42643   0.51794   0.93274   0.00000  Uiso   1.00
F29    F     0.38826   0.25643   0.48324   0.00000  Uiso   1.00
F30    F     0.35894   0.27557   0.50633   0.00000  Uiso   1.00
H360   H     0.42086   0.15730   0.51550   0.00000  Uiso   1.00
O15    O     0.02046   0.83292   0.35091   0.00000  Uiso   1.00
C571   C     0.73376   0.66845   0.56583   0.00000  Uiso   1.00
C572   C     0.51991   0.73427   0.44780   0.00000  Uiso   1.00
C573   C     0.51329   0.71108   0.43961   0.00000  Uiso   1.00
C574   C     0.49432   0.70843   0.42273   0.00000  Uiso   1.00
C575   C     0.48388   0.72930   0.41219   0.00000  Uiso   1.00
C576   C     0.49101   0.75246   0.41991   0.00000  Uiso   1.00
C577   C     0.50811   0.75504   0.43877   0.00000  Uiso   1.00
C578   C     0.98931   0.77869   0.04876   0.00000  Uiso   1.00
C579   C     0.98681   0.80047   0.06205   0.00000  Uiso   1.00
C580   C     0.98889   0.82297   0.05009   0.00000  Uiso   1.00
C581   C     0.99660   0.80165   0.01245   0.00000  Uiso   1.00
C582   C     0.99410   0.82377   0.02508   0.00000  Uiso   1.00
C583   C     0.99722   0.84587   0.01250   0.00000  Uiso   1.00
C584   C     0.58384   0.76179   0.75518   0.00000  Uiso   1.00
C585   C     0.56169   0.77377   0.76021   0.00000  Uiso   1.00
C586   C     0.53980   0.76185   0.75490   0.00000  Uiso   1.00
C587   C     0.56042   0.79735   0.77026   0.00000  Uiso   1.00
C588   C     0.53759   0.80862   0.77388   0.00000  Uiso   1.00
C589   C     0.51616   0.79596   0.76774   0.00000  Uiso   1.00
C590   C     0.49231   0.69537   0.73765   0.00000  Uiso   1.00
C591   C     0.48289   0.69548   0.76131   0.00000  Uiso   1.00
C592   C     0.67951   0.75067   0.08099   0.00000  Uiso   1.00
C593   C     0.43945   0.70867   0.98443   0.00000  Uiso   1.00
C594   C     0.43365   0.69311   0.00394   0.00000  Uiso   1.00
C595   C     0.43204   0.70287   0.02756   0.00000  Uiso   1.00
C596   C     0.43795   0.72740   0.03174   0.00000  Uiso   1.00
N61    N     0.99308   0.78009   0.02428   0.00000  Uiso   1.00
N62    N     0.51815   0.77308   0.75897   0.00000  Uiso   1.00
N63    N     0.16300   0.06761   0.71082   0.00000  Uiso   1.00
C597   C     0.15694   0.13212   0.66847   0.00000  Uiso   1.00
C598   C     0.15362   0.13335   0.69383   0.00000  Uiso   1.00
C599   C     0.15561   0.11234   0.70814   0.00000  Uiso   1.00
C600   C     0.16085   0.08976   0.69715   0.00000  Uiso   1.00
C601   C     0.16397   0.08855   0.67189   0.00000  Uiso   1.00
C602   C     0.16233   0.10955   0.65770   0.00000  Uiso   1.00
C603   C     0.41013   0.05444   0.43686   0.00000  Uiso   1.00
C604   C     0.38844   0.06771   0.43980   0.00000  Uiso   1.00
C605   C     0.36603   0.05587   0.43977   0.00000  Uiso   1.00
C606   C     0.36467   0.03060   0.43703   0.00000  Uiso   1.00
C607   C     0.38629   0.01698   0.43486   0.00000  Uiso   1.00
C608   C     0.40890   0.02892   0.43467   0.00000  Uiso   1.00
N64    N     0.34080   0.97985   0.56429   0.00000  Uiso   1.00
H361   H     0.74571   0.66993   0.58277   0.00000  Uiso   1.00
H362   H     0.53501   0.73638   0.46192   0.00000  Uiso   1.00
H363   H     0.52333   0.69431   0.44666   0.00000  Uiso   1.00
H364   H     0.46954   0.72735   0.39729   0.00000  Uiso   1.00
H365   H     0.48295   0.76936   0.41090   0.00000  Uiso   1.00
H366   H     0.98312   0.79980   0.08249   0.00000  Uiso   1.00
H367   H     0.98633   0.84065   0.06071   0.00000  Uiso   1.00
H368   H     0.99526   0.86393   0.02259   0.00000  Uiso   1.00
H369   H     0.60191   0.77111   0.75948   0.00000  Uiso   1.00
H370   H     0.57786   0.80737   0.77548   0.00000  Uiso   1.00
H371   H     0.53662   0.82784   0.78172   0.00000  Uiso   1.00
H372   H     0.49510   0.70056   0.77734   0.00000  Uiso   1.00
H373   H     0.43922   0.70144   0.96495   0.00000  Uiso   1.00
H374   H     0.42593   0.69085   0.04337   0.00000  Uiso   1.00
H375   H     0.43674   0.73526   0.05094   0.00000  Uiso   1.00
H376   H     0.14928   0.15155   0.70288   0.00000  Uiso   1.00
H377   H     0.15299   0.11352   0.72872   0.00000  Uiso   1.00
H378   H     0.16788   0.07030   0.66277   0.00000  Uiso   1.00
H379   H     0.16537   0.10847   0.63717   0.00000  Uiso   1.00
H380   H     0.38912   0.08834   0.44223   0.00000  Uiso   1.00
H381   H     0.34865   0.06704   0.44201   0.00000  Uiso   1.00
H382   H     0.38541   0.99628   0.43327   0.00000  Uiso   1.00
H383   H     0.42643   0.01794   0.43274   0.00000  Uiso   1.00
F31    F     0.38826   0.75643  -0.01676   0.00000  Uiso   1.00
F32    F     0.35894   0.77557   0.00633   0.00000  Uiso   1.00
H384   H     0.42086   0.65730   0.01550   0.00000  Uiso   1.00
O16    O     0.02046   0.33292   0.85091   0.00000  Uiso   1.00
C609   C     0.93417   0.73376   0.83155   0.00000  Uiso   1.00
C610   C     0.05220   0.51991   0.76573   0.00000  Uiso   1.00
C611   C     0.06039   0.51329   0.78892   0.00000  Uiso   1.00
C612   C     0.07727   0.49432   0.79157   0.00000  Uiso   1.00
C613   C     0.08781   0.48388   0.77070   0.00000  Uiso   1.00
C614   C     0.08009   0.49101   0.74754   0.00000  Uiso   1.00
C615   C     0.06123   0.50811   0.74496   0.00000  Uiso   1.00
C616   C     0.45124   0.98931   0.72131   0.00000  Uiso   1.00
C617   C     0.43795   0.98681   0.69953   0.00000  Uiso   1.00
C618   C     0.44991   0.98889   0.67703   0.00000  Uiso   1.00
C619   C     0.48755   0.99660   0.69835   0.00000  Uiso   1.00
C620   C     0.47492   0.99410   0.67623   0.00000  Uiso   1.00
C621   C     0.48750   0.99722   0.65413   0.00000  Uiso   1.00
C622   C     0.74482   0.58384   0.73821   0.00000  Uiso   1.00
C623   C     0.73979   0.56169   0.72623   0.00000  Uiso   1.00
C624   C     0.74510   0.53980   0.73815   0.00000  Uiso   1.00
C625   C     0.72974   0.56042   0.70265   0.00000  Uiso   1.00
C626   C     0.72612   0.53759   0.69138   0.00000  Uiso   1.00
C627   C     0.73226   0.51616   0.70404   0.00000  Uiso   1.00
C628   C     0.76235   0.49231   0.80463   0.00000  Uiso   1.00
C629   C     0.73869   0.48289   0.80452   0.00000  Uiso   1.00
C630   C     0.41901   0.67951   0.74933   0.00000  Uiso   1.00
C631   C     0.51557   0.43945   0.79133   0.00000  Uiso   1.00
C632   C     0.49606   0.43365   0.80689   0.00000  Uiso   1.00
C633   C     0.47244   0.43204   0.79713   0.00000  Uiso   1.00
C634   C     0.46826   0.43795   0.77260   0.00000  Uiso   1.00
N65    N     0.47572   0.99308   0.71991   0.00000  Uiso   1.00
N66    N     0.74103   0.51815   0.72692   0.00000  Uiso   1.00
N67    N     0.78918   0.16300   0.43239   0.00000  Uiso   1.00
C635   C     0.83153   0.15694   0.36788   0.00000  Uiso   1.00
C636   C     0.80617   0.15362   0.36665   0.00000  Uiso   1.00
C637   C     0.79186   0.15561   0.38766   0.00000  Uiso   1.00
C638   C     0.80285   0.16085   0.41024   0.00000  Uiso   1.00
C639   C     0.82811   0.16397   0.41145   0.00000  Uiso   1.00
C640   C     0.84230   0.16233   0.39045   0.00000  Uiso   1.00
C641   C     0.06314   0.41013   0.44556   0.00000  Uiso   1.00
C642   C     0.06020   0.38844   0.43229   0.00000  Uiso   1.00
C643   C     0.06023   0.36603   0.44413   0.00000  Uiso   1.00
C644   C     0.06297   0.36467   0.46940   0.00000  Uiso   1.00
C645   C     0.06514   0.38629   0.48302   0.00000  Uiso   1.00
C646   C     0.06533   0.40890   0.47108   0.00000  Uiso   1.00
N68    N     0.93571   0.34080   0.52015   0.00000  Uiso   1.00
H385   H     0.91723   0.74571   0.83007   0.00000  Uiso   1.00
H386   H     0.03808   0.53501   0.76362   0.00000  Uiso   1.00
H387   H     0.05334   0.52333   0.80569   0.00000  Uiso   1.00
H388   H     0.10271   0.46954   0.77265   0.00000  Uiso   1.00
H389   H     0.08910   0.48295   0.73064   0.00000  Uiso   1.00
H390   H     0.41751   0.98312   0.70020   0.00000  Uiso   1.00
H391   H     0.43929   0.98633   0.65935   0.00000  Uiso   1.00
H392   H     0.47741   0.99526   0.63607   0.00000  Uiso   1.00
H393   H     0.74052   0.60191   0.72889   0.00000  Uiso   1.00
H394   H     0.72452   0.57786   0.69263   0.00000  Uiso   1.00
H395   H     0.71828   0.53662   0.67216   0.00000  Uiso   1.00
H396   H     0.72266   0.49510   0.79944   0.00000  Uiso   1.00
H397   H     0.53505   0.43922   0.79856   0.00000  Uiso   1.00
H398   H     0.45663   0.42593   0.80915   0.00000  Uiso   1.00
H399   H     0.44906   0.43674   0.76474   0.00000  Uiso   1.00
H400   H     0.79712   0.14928   0.34845   0.00000  Uiso   1.00
H401   H     0.77128   0.15299   0.38648   0.00000  Uiso   1.00
H402   H     0.83723   0.16788   0.42970   0.00000  Uiso   1.00
H403   H     0.86283   0.16537   0.39153   0.00000  Uiso   1.00
H404   H     0.05777   0.38912   0.41166   0.00000  Uiso   1.00
H405   H     0.05799   0.34865   0.43296   0.00000  Uiso   1.00
H406   H     0.06673   0.38541   0.50372   0.00000  Uiso   1.00
H407   H     0.06726   0.42643   0.48206   0.00000  Uiso   1.00
F33    F     0.51676   0.38826   0.74357   0.00000  Uiso   1.00
F34    F     0.49367   0.35894   0.72443   0.00000  Uiso   1.00
H408   H     0.48450   0.42086   0.84270   0.00000  Uiso   1.00
O17    O     0.64909   0.02046   0.16708   0.00000  Uiso   1.00
C647   C     0.93417   0.23376   0.33155   0.00000  Uiso   1.00
C648   C     0.05220   0.01991   0.26573   0.00000  Uiso   1.00
C649   C     0.06039   0.01329   0.28892   0.00000  Uiso   1.00
C650   C     0.07727   0.99432   0.29157   0.00000  Uiso   1.00
C651   C     0.08781   0.98388   0.27070   0.00000  Uiso   1.00
C652   C     0.08009   0.99101   0.24754   0.00000  Uiso   1.00
C653   C     0.06123   0.00811   0.24496   0.00000  Uiso   1.00
C654   C     0.45124   0.48931   0.22131   0.00000  Uiso   1.00
C655   C     0.43795   0.48681   0.19953   0.00000  Uiso   1.00
C656   C     0.44991   0.48889   0.17703   0.00000  Uiso   1.00
C657   C     0.48755   0.49660   0.19835   0.00000  Uiso   1.00
C658   C     0.47492   0.49410   0.17623   0.00000  Uiso   1.00
C659   C     0.48750   0.49722   0.15413   0.00000  Uiso   1.00
C660   C     0.74482   0.08384   0.23821   0.00000  Uiso   1.00
C661   C     0.73979   0.06169   0.22623   0.00000  Uiso   1.00
C662   C     0.74510   0.03980   0.23815   0.00000  Uiso   1.00
C663   C     0.72974   0.06042   0.20265   0.00000  Uiso   1.00
C664   C     0.72612   0.03759   0.19138   0.00000  Uiso   1.00
C665   C     0.73226   0.01616   0.20404   0.00000  Uiso   1.00
C666   C     0.76235   0.99231   0.30463   0.00000  Uiso   1.00
C667   C     0.73869   0.98289   0.30452   0.00000  Uiso   1.00
C668   C     0.41901   0.17951   0.24933   0.00000  Uiso   1.00
C669   C     0.51557   0.93945   0.29133   0.00000  Uiso   1.00
C670   C     0.49606   0.93365   0.30689   0.00000  Uiso   1.00
C671   C     0.47244   0.93204   0.29713   0.00000  Uiso   1.00
C672   C     0.46826   0.93795   0.27260   0.00000  Uiso   1.00
N69    N     0.47572   0.49308   0.21991   0.00000  Uiso   1.00
N70    N     0.74103   0.01815   0.22692   0.00000  Uiso   1.00
N71    N     0.78918   0.66300   0.93239   0.00000  Uiso   1.00
C673   C     0.83153   0.65694   0.86788   0.00000  Uiso   1.00
C674   C     0.80617   0.65362   0.86665   0.00000  Uiso   1.00
C675   C     0.79186   0.65561   0.88766   0.00000  Uiso   1.00
C676   C     0.80285   0.66085   0.91024   0.00000  Uiso   1.00
C677   C     0.82811   0.66397   0.91145   0.00000  Uiso   1.00
C678   C     0.84230   0.66233   0.89045   0.00000  Uiso   1.00
C679   C     0.06314   0.91013   0.94556   0.00000  Uiso   1.00
C680   C     0.06020   0.88844   0.93229   0.00000  Uiso   1.00
C681   C     0.06023   0.86603   0.94413   0.00000  Uiso   1.00
C682   C     0.06297   0.86467   0.96940   0.00000  Uiso   1.00
C683   C     0.06514   0.88629   0.98302   0.00000  Uiso   1.00
C684   C     0.06533   0.90890   0.97108   0.00000  Uiso   1.00
N72    N     0.93571   0.84080   0.02015   0.00000  Uiso   1.00
H409   H     0.91723   0.24571   0.33007   0.00000  Uiso   1.00
H410   H     0.03808   0.03501   0.26362   0.00000  Uiso   1.00
H411   H     0.05334   0.02333   0.30569   0.00000  Uiso   1.00
H412   H     0.10271   0.96954   0.27265   0.00000  Uiso   1.00
H413   H     0.08910   0.98295   0.23064   0.00000  Uiso   1.00
H414   H     0.41751   0.48312   0.20020   0.00000  Uiso   1.00
H415   H     0.43929   0.48633   0.15935   0.00000  Uiso   1.00
H416   H     0.47741   0.49526   0.13607   0.00000  Uiso   1.00
H417   H     0.74052   0.10191   0.22889   0.00000  Uiso   1.00
H418   H     0.72452   0.07786   0.19263   0.00000  Uiso   1.00
H419   H     0.71828   0.03662   0.17216   0.00000  Uiso   1.00
H420   H     0.72266   0.99510   0.29944   0.00000  Uiso   1.00
H421   H     0.53505   0.93922   0.29856   0.00000  Uiso   1.00
H422   H     0.45663   0.92593   0.30915   0.00000  Uiso   1.00
H423   H     0.44906   0.93674   0.26474   0.00000  Uiso   1.00
H424   H     0.79712   0.64928   0.84845   0.00000  Uiso   1.00
H425   H     0.77128   0.65299   0.88648   0.00000  Uiso   1.00
H426   H     0.83723   0.66788   0.92970   0.00000  Uiso   1.00
H427   H     0.86283   0.66537   0.89153   0.00000  Uiso   1.00
H428   H     0.05777   0.88912   0.91166   0.00000  Uiso   1.00
H429   H     0.05799   0.84865   0.93296   0.00000  Uiso   1.00
H430   H     0.06673   0.88541   0.00372   0.00000  Uiso   1.00
H431   H     0.06726   0.92643   0.98206   0.00000  Uiso   1.00
F35    F     0.51676   0.88826   0.24357   0.00000  Uiso   1.00
F36    F     0.49367   0.85894   0.22443   0.00000  Uiso   1.00
H432   H     0.48450   0.92086   0.34270   0.00000  Uiso   1.00
O18    O     0.64909   0.52046   0.66708   0.00000  Uiso   1.00
C685   C     0.43417   0.73376   0.33155   0.00000  Uiso   1.00
C686   C     0.55220   0.51991   0.26573   0.00000  Uiso   1.00
C687   C     0.56039   0.51329   0.28892   0.00000  Uiso   1.00
C688   C     0.57727   0.49432   0.29157   0.00000  Uiso   1.00
C689   C     0.58781   0.48388   0.27070   0.00000  Uiso   1.00
C690   C     0.58009   0.49101   0.24754   0.00000  Uiso   1.00
C691   C     0.56123   0.50811   0.24496   0.00000  Uiso   1.00
C692   C     0.95124   0.98931   0.22131   0.00000  Uiso   1.00
C693   C     0.93795   0.98681   0.19953   0.00000  Uiso   1.00
C694   C     0.94991   0.98889   0.17703   0.00000  Uiso   1.00
C695   C     0.98755   0.99660   0.19835   0.00000  Uiso   1.00
C696   C     0.97492   0.99410   0.17623   0.00000  Uiso   1.00
C697   C     0.98750   0.99722   0.15413   0.00000  Uiso   1.00
C698   C     0.24482   0.58384   0.23821   0.00000  Uiso   1.00
C699   C     0.23979   0.56169   0.22623   0.00000  Uiso   1.00
C700   C     0.24510   0.53980   0.23815   0.00000  Uiso   1.00
C701   C     0.22974   0.56042   0.20265   0.00000  Uiso   1.00
C702   C     0.22612   0.53759   0.19138   0.00000  Uiso   1.00
C703   C     0.23226   0.51616   0.20404   0.00000  Uiso   1.00
C704   C     0.26235   0.49231   0.30463   0.00000  Uiso   1.00
C705   C     0.23869   0.48289   0.30452   0.00000  Uiso   1.00
C706   C     0.91901   0.67951   0.24933   0.00000  Uiso   1.00
C707   C     0.01557   0.43945   0.29133   0.00000  Uiso   1.00
C708   C     0.99606   0.43365   0.30689   0.00000  Uiso   1.00
C709   C     0.97244   0.43204   0.29713   0.00000  Uiso   1.00
C710   C     0.96826   0.43795   0.27260   0.00000  Uiso   1.00
N73    N     0.97572   0.99308   0.21991   0.00000  Uiso   1.00
N74    N     0.24103   0.51815   0.22692   0.00000  Uiso   1.00
N75    N     0.28918   0.16300   0.93239   0.00000  Uiso   1.00
C711   C     0.33153   0.15694   0.86788   0.00000  Uiso   1.00
C712   C     0.30617   0.15362   0.86665   0.00000  Uiso   1.00
C713   C     0.29186   0.15561   0.88766   0.00000  Uiso   1.00
C714   C     0.30285   0.16085   0.91024   0.00000  Uiso   1.00
C715   C     0.32811   0.16397   0.91145   0.00000  Uiso   1.00
C716   C     0.34230   0.16233   0.89045   0.00000  Uiso   1.00
C717   C     0.56314   0.41013   0.94556   0.00000  Uiso   1.00
C718   C     0.56020   0.38844   0.93229   0.00000  Uiso   1.00
C719   C     0.56023   0.36603   0.94413   0.00000  Uiso   1.00
C720   C     0.56297   0.36467   0.96940   0.00000  Uiso   1.00
C721   C     0.56514   0.38629   0.98302   0.00000  Uiso   1.00
C722   C     0.56533   0.40890   0.97108   0.00000  Uiso   1.00
N76    N     0.43571   0.34080   0.02015   0.00000  Uiso   1.00
H433   H     0.41723   0.74571   0.33007   0.00000  Uiso   1.00
H434   H     0.53808   0.53501   0.26362   0.00000  Uiso   1.00
H435   H     0.55334   0.52333   0.30569   0.00000  Uiso   1.00
H436   H     0.60271   0.46954   0.27265   0.00000  Uiso   1.00
H437   H     0.58910   0.48295   0.23064   0.00000  Uiso   1.00
H438   H     0.91751   0.98312   0.20020   0.00000  Uiso   1.00
H439   H     0.93929   0.98633   0.15935   0.00000  Uiso   1.00
H440   H     0.97741   0.99526   0.13607   0.00000  Uiso   1.00
H441   H     0.24052   0.60191   0.22889   0.00000  Uiso   1.00
H442   H     0.22452   0.57786   0.19263   0.00000  Uiso   1.00
H443   H     0.21828   0.53662   0.17216   0.00000  Uiso   1.00
H444   H     0.22266   0.49510   0.29944   0.00000  Uiso   1.00
H445   H     0.03505   0.43922   0.29856   0.00000  Uiso   1.00
H446   H     0.95663   0.42593   0.30915   0.00000  Uiso   1.00
H447   H     0.94906   0.43674   0.26474   0.00000  Uiso   1.00
H448   H     0.29712   0.14928   0.84845   0.00000  Uiso   1.00
H449   H     0.27128   0.15299   0.88648   0.00000  Uiso   1.00
H450   H     0.33723   0.16788   0.92970   0.00000  Uiso   1.00
H451   H     0.36283   0.16537   0.89153   0.00000  Uiso   1.00
H452   H     0.55777   0.38912   0.91166   0.00000  Uiso   1.00
H453   H     0.55799   0.34865   0.93296   0.00000  Uiso   1.00
H454   H     0.56673   0.38541   0.00372   0.00000  Uiso   1.00
H455   H     0.56726   0.42643   0.98206   0.00000  Uiso   1.00
F37    F     1.01676   0.38826   0.24357   0.00000  Uiso   1.00
F38    F     0.99367   0.35894   0.22443   0.00000  Uiso   1.00
H456   H     0.98450   0.42086   0.34270   0.00000  Uiso   1.00
O19    O     0.14909   0.02046   0.66708   0.00000  Uiso   1.00
C723   C     0.43417   0.23376   0.83155   0.00000  Uiso   1.00
C724   C     0.55220   0.01991   0.76573   0.00000  Uiso   1.00
C725   C     0.56039   0.01329   0.78892   0.00000  Uiso   1.00
C726   C     0.57727   0.99432   0.79157   0.00000  Uiso   1.00
C727   C     0.58781   0.98388   0.77070   0.00000  Uiso   1.00
C728   C     0.58009   0.99101   0.74754   0.00000  Uiso   1.00
C729   C     0.56123   0.00811   0.74496   0.00000  Uiso   1.00
C730   C     0.95124   0.48931   0.72131   0.00000  Uiso   1.00
C731   C     0.93795   0.48681   0.69953   0.00000  Uiso   1.00
C732   C     0.94991   0.48889   0.67703   0.00000  Uiso   1.00
C733   C     0.98755   0.49660   0.69835   0.00000  Uiso   1.00
C734   C     0.97492   0.49410   0.67623   0.00000  Uiso   1.00
C735   C     0.98750   0.49722   0.65413   0.00000  Uiso   1.00
C736   C     0.24482   0.08384   0.73821   0.00000  Uiso   1.00
C737   C     0.23979   0.06169   0.72623   0.00000  Uiso   1.00
C738   C     0.24510   0.03980   0.73815   0.00000  Uiso   1.00
C739   C     0.22974   0.06042   0.70265   0.00000  Uiso   1.00
C740   C     0.22612   0.03759   0.69138   0.00000  Uiso   1.00
C741   C     0.23226   0.01616   0.70404   0.00000  Uiso   1.00
C742   C     0.26235   0.99231   0.80463   0.00000  Uiso   1.00
C743   C     0.23869   0.98289   0.80452   0.00000  Uiso   1.00
C744   C     0.91901   0.17951   0.74933   0.00000  Uiso   1.00
C745   C     0.01557   0.93945   0.79133   0.00000  Uiso   1.00
C746   C     0.99606   0.93365   0.80689   0.00000  Uiso   1.00
C747   C     0.97244   0.93204   0.79713   0.00000  Uiso   1.00
C748   C     0.96826   0.93795   0.77260   0.00000  Uiso   1.00
N77    N     0.97572   0.49308   0.71991   0.00000  Uiso   1.00
N78    N     0.24103   0.01815   0.72692   0.00000  Uiso   1.00
N79    N     0.28918   0.66300   0.43239   0.00000  Uiso   1.00
C749   C     0.33153   0.65694   0.36788   0.00000  Uiso   1.00
C750   C     0.30617   0.65362   0.36665   0.00000  Uiso   1.00
C751   C     0.29186   0.65561   0.38766   0.00000  Uiso   1.00
C752   C     0.30285   0.66085   0.41024   0.00000  Uiso   1.00
C753   C     0.32811   0.66397   0.41145   0.00000  Uiso   1.00
C754   C     0.34230   0.66233   0.39045   0.00000  Uiso   1.00
C755   C     0.56314   0.91013   0.44556   0.00000  Uiso   1.00
C756   C     0.56020   0.88844   0.43229   0.00000  Uiso   1.00
C757   C     0.56023   0.86603   0.44413   0.00000  Uiso   1.00
C758   C     0.56297   0.86467   0.46940   0.00000  Uiso   1.00
C759   C     0.56514   0.88629   0.48302   0.00000  Uiso   1.00
C760   C     0.56533   0.90890   0.47108   0.00000  Uiso   1.00
N80    N     0.43571   0.84080   0.52015   0.00000  Uiso   1.00
H457   H     0.41723   0.24571   0.83007   0.00000  Uiso   1.00
H458   H     0.53808   0.03501   0.76362   0.00000  Uiso   1.00
H459   H     0.55334   0.02333   0.80569   0.00000  Uiso   1.00
H460   H     0.60271   0.96954   0.77265   0.00000  Uiso   1.00
H461   H     0.58910   0.98295   0.73064   0.00000  Uiso   1.00
H462   H     0.91751   0.48312   0.70020   0.00000  Uiso   1.00
H463   H     0.93929   0.48633   0.65935   0.00000  Uiso   1.00
H464   H     0.97741   0.49526   0.63607   0.00000  Uiso   1.00
H465   H     0.24052   0.10191   0.72889   0.00000  Uiso   1.00
H466   H     0.22452   0.07786   0.69263   0.00000  Uiso   1.00
H467   H     0.21828   0.03662   0.67216   0.00000  Uiso   1.00
H468   H     0.22266   0.99510   0.79944   0.00000  Uiso   1.00
H469   H     0.03505   0.93922   0.79856   0.00000  Uiso   1.00
H470   H     0.95663   0.92593   0.80915   0.00000  Uiso   1.00
H471   H     0.94906   0.93674   0.76474   0.00000  Uiso   1.00
H472   H     0.29712   0.64928   0.34845   0.00000  Uiso   1.00
H473   H     0.27128   0.65299   0.38648   0.00000  Uiso   1.00
H474   H     0.33723   0.66788   0.42970   0.00000  Uiso   1.00
H475   H     0.36283   0.66537   0.39153   0.00000  Uiso   1.00
H476   H     0.55777   0.88912   0.41166   0.00000  Uiso   1.00
H477   H     0.55799   0.84865   0.43296   0.00000  Uiso   1.00
H478   H     0.56673   0.88541   0.50372   0.00000  Uiso   1.00
H479   H     0.56726   0.92643   0.48206   0.00000  Uiso   1.00
F39    F     1.01676   0.88826   0.74357   0.00000  Uiso   1.00
F40    F     0.99367   0.85894   0.72443   0.00000  Uiso   1.00
H480   H     0.98450   0.92086   0.84270   0.00000  Uiso   1.00
O20    O     0.14909   0.52046   0.16708   0.00000  Uiso   1.00
C761   C     0.43417   0.26624   0.66845   0.00000  Uiso   1.00
C762   C     0.55220   0.48009   0.73427   0.00000  Uiso   1.00
C763   C     0.56039   0.48671   0.71108   0.00000  Uiso   1.00
C764   C     0.57727   0.50568   0.70843   0.00000  Uiso   1.00
C765   C     0.58781   0.51612   0.72930   0.00000  Uiso   1.00
C766   C     0.58009   0.50899   0.75246   0.00000  Uiso   1.00
C767   C     0.56123   0.49189   0.75504   0.00000  Uiso   1.00
C768   C     0.95124   0.01069   0.77869   0.00000  Uiso   1.00
C769   C     0.93795   0.01319   0.80047   0.00000  Uiso   1.00
C770   C     0.94991   0.01111   0.82297   0.00000  Uiso   1.00
C771   C     0.98755   0.00340   0.80165   0.00000  Uiso   1.00
C772   C     0.97492   0.00590   0.82377   0.00000  Uiso   1.00
C773   C     0.98750   0.00278   0.84587   0.00000  Uiso   1.00
C774   C     0.24482   0.41616   0.76179   0.00000  Uiso   1.00
C775   C     0.23979   0.43831   0.77377   0.00000  Uiso   1.00
C776   C     0.24510   0.46020   0.76185   0.00000  Uiso   1.00
C777   C     0.22974   0.43958   0.79735   0.00000  Uiso   1.00
C778   C     0.22612   0.46241   0.80862   0.00000  Uiso   1.00
C779   C     0.23226   0.48384   0.79596   0.00000  Uiso   1.00
C780   C     0.26235   0.50769   0.69537   0.00000  Uiso   1.00
C781   C     0.23869   0.51711   0.69548   0.00000  Uiso   1.00
C782   C     0.91901   0.32049   0.75067   0.00000  Uiso   1.00
C783   C     0.01557   0.56055   0.70867   0.00000  Uiso   1.00
C784   C     0.99606   0.56635   0.69311   0.00000  Uiso   1.00
C785   C     0.97244   0.56796   0.70287   0.00000  Uiso   1.00
C786   C     0.96826   0.56205   0.72740   0.00000  Uiso   1.00
N81    N     0.97572   0.00692   0.78009   0.00000  Uiso   1.00
N82    N     0.24103   0.48185   0.77308   0.00000  Uiso   1.00
N83    N     0.28918   0.83700   0.06761   0.00000  Uiso   1.00
C787   C     0.33153   0.84306   0.13212   0.00000  Uiso   1.00
C788   C     0.30617   0.84638   0.13335   0.00000  Uiso   1.00
C789   C     0.29186   0.84439   0.11234   0.00000  Uiso   1.00
C790   C     0.30285   0.83915   0.08976   0.00000  Uiso   1.00
C791   C     0.32811   0.83603   0.08855   0.00000  Uiso   1.00
C792   C     0.34230   0.83767   0.10955   0.00000  Uiso   1.00
C793   C     0.56314   0.58987   0.05444   0.00000  Uiso   1.00
C794   C     0.56020   0.61156   0.06771   0.00000  Uiso   1.00
C795   C     0.56023   0.63397   0.05587   0.00000  Uiso   1.00
C796   C     0.56297   0.63533   0.03060   0.00000  Uiso   1.00
C797   C     0.56514   0.61371   0.01698   0.00000  Uiso   1.00
C798   C     0.56533   0.59110   0.02892   0.00000  Uiso   1.00
N84    N     0.43571   0.65920   0.97985   0.00000  Uiso   1.00
H481   H     0.41723   0.25429   0.66993   0.00000  Uiso   1.00
H482   H     0.53808   0.46499   0.73638   0.00000  Uiso   1.00
H483   H     0.55334   0.47667   0.69431   0.00000  Uiso   1.00
H484   H     0.60271   0.53046   0.72735   0.00000  Uiso   1.00
H485   H     0.58910   0.51705   0.76936   0.00000  Uiso   1.00
H486   H     0.91751   0.01688   0.79980   0.00000  Uiso   1.00
H487   H     0.93929   0.01367   0.84065   0.00000  Uiso   1.00
H488   H     0.97741   0.00474   0.86393   0.00000  Uiso   1.00
H489   H     0.24052   0.39809   0.77111   0.00000  Uiso   1.00
H490   H     0.22452   0.42214   0.80737   0.00000  Uiso   1.00
H491   H     0.21828   0.46338   0.82784   0.00000  Uiso   1.00
H492   H     0.22266   0.50490   0.70056   0.00000  Uiso   1.00
H493   H     0.03505   0.56078   0.70144   0.00000  Uiso   1.00
H494   H     0.95663   0.57407   0.69085   0.00000  Uiso   1.00
H495   H     0.94906   0.56326   0.73526   0.00000  Uiso   1.00
H496   H     0.29712   0.85072   0.15155   0.00000  Uiso   1.00
H497   H     0.27128   0.84701   0.11352   0.00000  Uiso   1.00
H498   H     0.33723   0.83212   0.07030   0.00000  Uiso   1.00
H499   H     0.36283   0.83463   0.10847   0.00000  Uiso   1.00
H500   H     0.55777   0.61088   0.08834   0.00000  Uiso   1.00
H501   H     0.55799   0.65135   0.06704   0.00000  Uiso   1.00
H502   H     0.56673   0.61459   0.99628   0.00000  Uiso   1.00
H503   H     0.56726   0.57357   0.01794   0.00000  Uiso   1.00
F41    F     1.01676   0.61174   0.75643   0.00000  Uiso   1.00
F42    F     0.99367   0.64106   0.77557   0.00000  Uiso   1.00
H504   H     0.98450   0.57914   0.65730   0.00000  Uiso   1.00
O21    O     0.14909   0.97954   0.33292   0.00000  Uiso   1.00
C799   C     0.43417   0.76624   0.16845   0.00000  Uiso   1.00
C800   C     0.55220   0.98009   0.23427   0.00000  Uiso   1.00
C801   C     0.56039   0.98671   0.21108   0.00000  Uiso   1.00
C802   C     0.57727   0.00568   0.20843   0.00000  Uiso   1.00
C803   C     0.58781   0.01612   0.22930   0.00000  Uiso   1.00
C804   C     0.58009   0.00899   0.25246   0.00000  Uiso   1.00
C805   C     0.56123   0.99189   0.25504   0.00000  Uiso   1.00
C806   C     0.95124   0.51069   0.27869   0.00000  Uiso   1.00
C807   C     0.93795   0.51319   0.30047   0.00000  Uiso   1.00
C808   C     0.94991   0.51111   0.32297   0.00000  Uiso   1.00
C809   C     0.98755   0.50340   0.30165   0.00000  Uiso   1.00
C810   C     0.97492   0.50590   0.32377   0.00000  Uiso   1.00
C811   C     0.98750   0.50278   0.34587   0.00000  Uiso   1.00
C812   C     0.24482   0.91616   0.26179   0.00000  Uiso   1.00
C813   C     0.23979   0.93831   0.27377   0.00000  Uiso   1.00
C814   C     0.24510   0.96020   0.26185   0.00000  Uiso   1.00
C815   C     0.22974   0.93958   0.29735   0.00000  Uiso   1.00
C816   C     0.22612   0.96241   0.30862   0.00000  Uiso   1.00
C817   C     0.23226   0.98384   0.29596   0.00000  Uiso   1.00
C818   C     0.26235   0.00769   0.19537   0.00000  Uiso   1.00
C819   C     0.23869   0.01711   0.19548   0.00000  Uiso   1.00
C820   C     0.91901   0.82049   0.25067   0.00000  Uiso   1.00
C821   C     0.01557   0.06055   0.20867   0.00000  Uiso   1.00
C822   C     0.99606   0.06635   0.19311   0.00000  Uiso   1.00
C823   C     0.97244   0.06796   0.20287   0.00000  Uiso   1.00
C824   C     0.96826   0.06205   0.22740   0.00000  Uiso   1.00
N85    N     0.97572   0.50692   0.28009   0.00000  Uiso   1.00
N86    N     0.24103   0.98185   0.27308   0.00000  Uiso   1.00
N87    N     0.28918   0.33700   0.56761   0.00000  Uiso   1.00
C825   C     0.33153   0.34306   0.63212   0.00000  Uiso   1.00
C826   C     0.30617   0.34638   0.63335   0.00000  Uiso   1.00
C827   C     0.29186   0.34439   0.61234   0.00000  Uiso   1.00
C828   C     0.30285   0.33915   0.58976   0.00000  Uiso   1.00
C829   C     0.32811   0.33603   0.58855   0.00000  Uiso   1.00
C830   C     0.34230   0.33767   0.60955   0.00000  Uiso   1.00
C831   C     0.56314   0.08987   0.55444   0.00000  Uiso   1.00
C832   C     0.56020   0.11156   0.56771   0.00000  Uiso   1.00
C833   C     0.56023   0.13397   0.55587   0.00000  Uiso   1.00
C834   C     0.56297   0.13533   0.53060   0.00000  Uiso   1.00
C835   C     0.56514   0.11371   0.51698   0.00000  Uiso   1.00
C836   C     0.56533   0.09110   0.52892   0.00000  Uiso   1.00
N88    N     0.43571   0.15920   0.47985   0.00000  Uiso   1.00
H505   H     0.41723   0.75429   0.16993   0.00000  Uiso   1.00
H506   H     0.53808   0.96499   0.23638   0.00000  Uiso   1.00
H507   H     0.55334   0.97667   0.19431   0.00000  Uiso   1.00
H508   H     0.60271   0.03046   0.22735   0.00000  Uiso   1.00
H509   H     0.58910   0.01705   0.26936   0.00000  Uiso   1.00
H510   H     0.91751   0.51688   0.29980   0.00000  Uiso   1.00
H511   H     0.93929   0.51367   0.34065   0.00000  Uiso   1.00
H512   H     0.97741   0.50474   0.36393   0.00000  Uiso   1.00
H513   H     0.24052   0.89809   0.27111   0.00000  Uiso   1.00
H514   H     0.22452   0.92214   0.30737   0.00000  Uiso   1.00
H515   H     0.21828   0.96338   0.32784   0.00000  Uiso   1.00
H516   H     0.22266   0.00490   0.20056   0.00000  Uiso   1.00
H517   H     0.03505   0.06078   0.20144   0.00000  Uiso   1.00
H518   H     0.95663   0.07407   0.19085   0.00000  Uiso   1.00
H519   H     0.94906   0.06326   0.23526   0.00000  Uiso   1.00
H520   H     0.29712   0.35072   0.65155   0.00000  Uiso   1.00
H521   H     0.27128   0.34701   0.61352   0.00000  Uiso   1.00
H522   H     0.33723   0.33212   0.57030   0.00000  Uiso   1.00
H523   H     0.36283   0.33463   0.60847   0.00000  Uiso   1.00
H524   H     0.55777   0.11088   0.58834   0.00000  Uiso   1.00
H525   H     0.55799   0.15135   0.56704   0.00000  Uiso   1.00
H526   H     0.56673   0.11459   0.49628   0.00000  Uiso   1.00
H527   H     0.56726   0.07357   0.51794   0.00000  Uiso   1.00
F43    F     1.01676   0.11174   0.25643   0.00000  Uiso   1.00
F44    F     0.99367   0.14106   0.27557   0.00000  Uiso   1.00
H528   H     0.98450   0.07914   0.15730   0.00000  Uiso   1.00
O22    O     0.14909   0.47954   0.83292   0.00000  Uiso   1.00
C837   C     0.93417   0.26624   0.16845   0.00000  Uiso   1.00
C838   C     0.05220   0.48009   0.23427   0.00000  Uiso   1.00
C839   C     0.06039   0.48671   0.21108   0.00000  Uiso   1.00
C840   C     0.07727   0.50568   0.20843   0.00000  Uiso   1.00
C841   C     0.08781   0.51612   0.22930   0.00000  Uiso   1.00
C842   C     0.08009   0.50899   0.25246   0.00000  Uiso   1.00
C843   C     0.06123   0.49189   0.25504   0.00000  Uiso   1.00
C844   C     0.45124   0.01069   0.27869   0.00000  Uiso   1.00
C845   C     0.43795   0.01319   0.30047   0.00000  Uiso   1.00
C846   C     0.44991   0.01111   0.32297   0.00000  Uiso   1.00
C847   C     0.48755   0.00340   0.30165   0.00000  Uiso   1.00
C848   C     0.47492   0.00590   0.32377   0.00000  Uiso   1.00
C849   C     0.48750   0.00278   0.34587   0.00000  Uiso   1.00
C850   C     0.74482   0.41616   0.26179   0.00000  Uiso   1.00
C851   C     0.73979   0.43831   0.27377   0.00000  Uiso   1.00
C852   C     0.74510   0.46020   0.26185   0.00000  Uiso   1.00
C853   C     0.72974   0.43958   0.29735   0.00000  Uiso   1.00
C854   C     0.72612   0.46241   0.30862   0.00000  Uiso   1.00
C855   C     0.73226   0.48384   0.29596   0.00000  Uiso   1.00
C856   C     0.76235   0.50769   0.19537   0.00000  Uiso   1.00
C857   C     0.73869   0.51711   0.19548   0.00000  Uiso   1.00
C858   C     0.41901   0.32049   0.25067   0.00000  Uiso   1.00
C859   C     0.51557   0.56055   0.20867   0.00000  Uiso   1.00
C860   C     0.49606   0.56635   0.19311   0.00000  Uiso   1.00
C861   C     0.47244   0.56796   0.20287   0.00000  Uiso   1.00
C862   C     0.46826   0.56205   0.22740   0.00000  Uiso   1.00
N89    N     0.47572   0.00692   0.28009   0.00000  Uiso   1.00
N90    N     0.74103   0.48185   0.27308   0.00000  Uiso   1.00
N91    N     0.78918   0.83700   0.56761   0.00000  Uiso   1.00
C863   C     0.83153   0.84306   0.63212   0.00000  Uiso   1.00
C864   C     0.80617   0.84638   0.63335   0.00000  Uiso   1.00
C865   C     0.79186   0.84439   0.61234   0.00000  Uiso   1.00
C866   C     0.80285   0.83915   0.58976   0.00000  Uiso   1.00
C867   C     0.82811   0.83603   0.58855   0.00000  Uiso   1.00
C868   C     0.84230   0.83767   0.60955   0.00000  Uiso   1.00
C869   C     0.06314   0.58987   0.55444   0.00000  Uiso   1.00
C870   C     0.06020   0.61156   0.56771   0.00000  Uiso   1.00
C871   C     0.06023   0.63397   0.55587   0.00000  Uiso   1.00
C872   C     0.06297   0.63533   0.53060   0.00000  Uiso   1.00
C873   C     0.06514   0.61371   0.51698   0.00000  Uiso   1.00
C874   C     0.06533   0.59110   0.52892   0.00000  Uiso   1.00
N92    N     0.93571   0.65920   0.47985   0.00000  Uiso   1.00
H529   H     0.91723   0.25429   0.16993   0.00000  Uiso   1.00
H530   H     0.03808   0.46499   0.23638   0.00000  Uiso   1.00
H531   H     0.05334   0.47667   0.19431   0.00000  Uiso   1.00
H532   H     0.10271   0.53046   0.22735   0.00000  Uiso   1.00
H533   H     0.08910   0.51705   0.26936   0.00000  Uiso   1.00
H534   H     0.41751   0.01688   0.29980   0.00000  Uiso   1.00
H535   H     0.43929   0.01367   0.34065   0.00000  Uiso   1.00
H536   H     0.47741   0.00474   0.36393   0.00000  Uiso   1.00
H537   H     0.74052   0.39809   0.27111   0.00000  Uiso   1.00
H538   H     0.72452   0.42214   0.30737   0.00000  Uiso   1.00
H539   H     0.71828   0.46338   0.32784   0.00000  Uiso   1.00
H540   H     0.72266   0.50490   0.20056   0.00000  Uiso   1.00
H541   H     0.53505   0.56078   0.20144   0.00000  Uiso   1.00
H542   H     0.45663   0.57407   0.19085   0.00000  Uiso   1.00
H543   H     0.44906   0.56326   0.23526   0.00000  Uiso   1.00
H544   H     0.79712   0.85072   0.65155   0.00000  Uiso   1.00
H545   H     0.77128   0.84701   0.61352   0.00000  Uiso   1.00
H546   H     0.83723   0.83212   0.57030   0.00000  Uiso   1.00
H547   H     0.86283   0.83463   0.60847   0.00000  Uiso   1.00
H548   H     0.05777   0.61088   0.58834   0.00000  Uiso   1.00
H549   H     0.05799   0.65135   0.56704   0.00000  Uiso   1.00
H550   H     0.06673   0.61459   0.49628   0.00000  Uiso   1.00
H551   H     0.06726   0.57357   0.51794   0.00000  Uiso   1.00
F45    F     0.51676   0.61174   0.25643   0.00000  Uiso   1.00
F46    F     0.49367   0.64106   0.27557   0.00000  Uiso   1.00
H552   H     0.48450   0.57914   0.15730   0.00000  Uiso   1.00
O23    O     0.64909   0.97954   0.83292   0.00000  Uiso   1.00
C875   C     0.93417   0.76624   0.66845   0.00000  Uiso   1.00
C876   C     0.05220   0.98009   0.73427   0.00000  Uiso   1.00
C877   C     0.06039   0.98671   0.71108   0.00000  Uiso   1.00
C878   C     0.07727   0.00568   0.70843   0.00000  Uiso   1.00
C879   C     0.08781   0.01612   0.72930   0.00000  Uiso   1.00
C880   C     0.08009   0.00899   0.75246   0.00000  Uiso   1.00
C881   C     0.06123   0.99189   0.75504   0.00000  Uiso   1.00
C882   C     0.45124   0.51069   0.77869   0.00000  Uiso   1.00
C883   C     0.43795   0.51319   0.80047   0.00000  Uiso   1.00
C884   C     0.44991   0.51111   0.82297   0.00000  Uiso   1.00
C885   C     0.48755   0.50340   0.80165   0.00000  Uiso   1.00
C886   C     0.47492   0.50590   0.82377   0.00000  Uiso   1.00
C887   C     0.48750   0.50278   0.84587   0.00000  Uiso   1.00
C888   C     0.74482   0.91616   0.76179   0.00000  Uiso   1.00
C889   C     0.73979   0.93831   0.77377   0.00000  Uiso   1.00
C890   C     0.74510   0.96020   0.76185   0.00000  Uiso   1.00
C891   C     0.72974   0.93958   0.79735   0.00000  Uiso   1.00
C892   C     0.72612   0.96241   0.80862   0.00000  Uiso   1.00
C893   C     0.73226   0.98384   0.79596   0.00000  Uiso   1.00
C894   C     0.76235   0.00769   0.69537   0.00000  Uiso   1.00
C895   C     0.73869   0.01711   0.69548   0.00000  Uiso   1.00
C896   C     0.41901   0.82049   0.75067   0.00000  Uiso   1.00
C897   C     0.51557   0.06055   0.70867   0.00000  Uiso   1.00
C898   C     0.49606   0.06635   0.69311   0.00000  Uiso   1.00
C899   C     0.47244   0.06796   0.70287   0.00000  Uiso   1.00
C900   C     0.46826   0.06205   0.72740   0.00000  Uiso   1.00
N93    N     0.47572   0.50692   0.78009   0.00000  Uiso   1.00
N94    N     0.74103   0.98185   0.77308   0.00000  Uiso   1.00
N95    N     0.78918   0.33700   0.06761   0.00000  Uiso   1.00
C901   C     0.83153   0.34306   0.13212   0.00000  Uiso   1.00
C902   C     0.80617   0.34638   0.13335   0.00000  Uiso   1.00
C903   C     0.79186   0.34439   0.11234   0.00000  Uiso   1.00
C904   C     0.80285   0.33915   0.08976   0.00000  Uiso   1.00
C905   C     0.82811   0.33603   0.08855   0.00000  Uiso   1.00
C906   C     0.84230   0.33767   0.10955   0.00000  Uiso   1.00
C907   C     0.06314   0.08987   0.05444   0.00000  Uiso   1.00
C908   C     0.06020   0.11156   0.06771   0.00000  Uiso   1.00
C909   C     0.06023   0.13397   0.05587   0.00000  Uiso   1.00
C910   C     0.06297   0.13533   0.03060   0.00000  Uiso   1.00
C911   C     0.06514   0.11371   0.01698   0.00000  Uiso   1.00
C912   C     0.06533   0.09110   0.02892   0.00000  Uiso   1.00
N96    N     0.93571   0.15920   0.97985   0.00000  Uiso   1.00
H553   H     0.91723   0.75429   0.66993   0.00000  Uiso   1.00
H554   H     0.03808   0.96499   0.73638   0.00000  Uiso   1.00
H555   H     0.05334   0.97667   0.69431   0.00000  Uiso   1.00
H556   H     0.10271   0.03046   0.72735   0.00000  Uiso   1.00
H557   H     0.08910   0.01705   0.76936   0.00000  Uiso   1.00
H558   H     0.41751   0.51688   0.79980   0.00000  Uiso   1.00
H559   H     0.43929   0.51367   0.84065   0.00000  Uiso   1.00
H560   H     0.47741   0.50474   0.86393   0.00000  Uiso   1.00
H561   H     0.74052   0.89809   0.77111   0.00000  Uiso   1.00
H562   H     0.72452   0.92214   0.80737   0.00000  Uiso   1.00
H563   H     0.71828   0.96338   0.82784   0.00000  Uiso   1.00
H564   H     0.72266   0.00490   0.70056   0.00000  Uiso   1.00
H565   H     0.53505   0.06078   0.70144   0.00000  Uiso   1.00
H566   H     0.45663   0.07407   0.69085   0.00000  Uiso   1.00
H567   H     0.44906   0.06326   0.73526   0.00000  Uiso   1.00
H568   H     0.79712   0.35072   0.15155   0.00000  Uiso   1.00
H569   H     0.77128   0.34701   0.11352   0.00000  Uiso   1.00
H570   H     0.83723   0.33212   0.07030   0.00000  Uiso   1.00
H571   H     0.86283   0.33463   0.10847   0.00000  Uiso   1.00
H572   H     0.05777   0.11088   0.08834   0.00000  Uiso   1.00
H573   H     0.05799   0.15135   0.06704   0.00000  Uiso   1.00
H574   H     0.06673   0.11459   0.99628   0.00000  Uiso   1.00
H575   H     0.06726   0.07357   0.01794   0.00000  Uiso   1.00
F47    F     0.51676   0.11174   0.75643   0.00000  Uiso   1.00
F48    F     0.49367   0.14106   0.77557   0.00000  Uiso   1.00
H576   H     0.48450   0.07914   0.65730   0.00000  Uiso   1.00
O24    O     0.64909   0.47954   0.33292   0.00000  Uiso   1.00
C913   C     0.06583   0.76624   0.33155   0.00000  Uiso   1.00
C914   C     0.94780   0.98009   0.26573   0.00000  Uiso   1.00
C915   C     0.93961   0.98671   0.28892   0.00000  Uiso   1.00
C916   C     0.92273   0.00568   0.29157   0.00000  Uiso   1.00
C917   C     0.91219   0.01612   0.27070   0.00000  Uiso   1.00
C918   C     0.91991   0.00899   0.24754   0.00000  Uiso   1.00
C919   C     0.93877   0.99189   0.24496   0.00000  Uiso   1.00
C920   C     0.54876   0.51069   0.22131   0.00000  Uiso   1.00
C921   C     0.56205   0.51319   0.19953   0.00000  Uiso   1.00
C922   C     0.55009   0.51111   0.17703   0.00000  Uiso   1.00
C923   C     0.51245   0.50340   0.19835   0.00000  Uiso   1.00
C924   C     0.52508   0.50590   0.17623   0.00000  Uiso   1.00
C925   C     0.51250   0.50278   0.15413   0.00000  Uiso   1.00
C926   C     0.25518   0.91616   0.23821   0.00000  Uiso   1.00
C927   C     0.26021   0.93831   0.22623   0.00000  Uiso   1.00
C928   C     0.25490   0.96020   0.23815   0.00000  Uiso   1.00
C929   C     0.27026   0.93958   0.20265   0.00000  Uiso   1.00
C930   C     0.27388   0.96241   0.19138   0.00000  Uiso   1.00
C931   C     0.26774   0.98384   0.20404   0.00000  Uiso   1.00
C932   C     0.23765   0.00769   0.30463   0.00000  Uiso   1.00
C933   C     0.26131   0.01711   0.30452   0.00000  Uiso   1.00
C934   C     0.58099   0.82049   0.24933   0.00000  Uiso   1.00
C935   C     0.48443   0.06055   0.29133   0.00000  Uiso   1.00
C936   C     0.50394   0.06635   0.30689   0.00000  Uiso   1.00
C937   C     0.52756   0.06796   0.29713   0.00000  Uiso   1.00
C938   C     0.53174   0.06205   0.27260   0.00000  Uiso   1.00
N97    N     0.52428   0.50692   0.21991   0.00000  Uiso   1.00
N98    N     0.25897   0.98185   0.22692   0.00000  Uiso   1.00
N99    N     0.21082   0.33700   0.93239   0.00000  Uiso   1.00
C939   C     0.16847   0.34306   0.86788   0.00000  Uiso   1.00
C940   C     0.19383   0.34638   0.86665   0.00000  Uiso   1.00
C941   C     0.20814   0.34439   0.88766   0.00000  Uiso   1.00
C942   C     0.19715   0.33915   0.91024   0.00000  Uiso   1.00
C943   C     0.17189   0.33603   0.91145   0.00000  Uiso   1.00
C944   C     0.15770   0.33767   0.89045   0.00000  Uiso   1.00
C945   C     0.93686   0.08987   0.94556   0.00000  Uiso   1.00
C946   C     0.93980   0.11156   0.93229   0.00000  Uiso   1.00
C947   C     0.93977   0.13397   0.94413   0.00000  Uiso   1.00
C948   C     0.93703   0.13533   0.96940   0.00000  Uiso   1.00
C949   C     0.93486   0.11371   0.98302   0.00000  Uiso   1.00
C950   C     0.93467   0.09110   0.97108   0.00000  Uiso   1.00
N100   N     0.06429   0.15920   0.02015   0.00000  Uiso   1.00
H577   H     0.08277   0.75429   0.33007   0.00000  Uiso   1.00
H578   H     0.96192   0.96499   0.26362   0.00000  Uiso   1.00
H579   H     0.94666   0.97667   0.30569   0.00000  Uiso   1.00
H580   H     0.89729   0.03046   0.27265   0.00000  Uiso   1.00
H581   H     0.91090   0.01705   0.23064   0.00000  Uiso   1.00
H582   H     0.58249   0.51688   0.20020   0.00000  Uiso   1.00
H583   H     0.56071   0.51367   0.15935   0.00000  Uiso   1.00
H584   H     0.52259   0.50474   0.13607   0.00000  Uiso   1.00
H585   H     0.25948   0.89809   0.22889   0.00000  Uiso   1.00
H586   H     0.27548   0.92214   0.19263   0.00000  Uiso   1.00
H587   H     0.28172   0.96338   0.17216   0.00000  Uiso   1.00
H588   H     0.27734   0.00490   0.29944   0.00000  Uiso   1.00
H589   H     0.46495   0.06078   0.29856   0.00000  Uiso   1.00
H590   H     0.54337   0.07407   0.30915   0.00000  Uiso   1.00
H591   H     0.55094   0.06326   0.26474   0.00000  Uiso   1.00
H592   H     0.20288   0.35072   0.84845   0.00000  Uiso   1.00
H593   H     0.22872   0.34701   0.88648   0.00000  Uiso   1.00
H594   H     0.16277   0.33212   0.92970   0.00000  Uiso   1.00
H595   H     0.13717   0.33463   0.89153   0.00000  Uiso   1.00
H596   H     0.94223   0.11088   0.91166   0.00000  Uiso   1.00
H597   H     0.94201   0.15135   0.93296   0.00000  Uiso   1.00
H598   H     0.93327   0.11459   0.00372   0.00000  Uiso   1.00
H599   H     0.93274   0.07357   0.98206   0.00000  Uiso   1.00
F49    F     0.48324   0.11174   0.24357   0.00000  Uiso   1.00
F50    F     0.50633   0.14106   0.22443   0.00000  Uiso   1.00
H600   H     0.51550   0.07914   0.34270   0.00000  Uiso   1.00
O25    O     0.35091   0.47954   0.66708   0.00000  Uiso   1.00
C951   C     0.06583   0.26624   0.83155   0.00000  Uiso   1.00
C952   C     0.94780   0.48009   0.76573   0.00000  Uiso   1.00
C953   C     0.93961   0.48671   0.78892   0.00000  Uiso   1.00
C954   C     0.92273   0.50568   0.79157   0.00000  Uiso   1.00
C955   C     0.91219   0.51612   0.77070   0.00000  Uiso   1.00
C956   C     0.91991   0.50899   0.74754   0.00000  Uiso   1.00
C957   C     0.93877   0.49189   0.74496   0.00000  Uiso   1.00
C958   C     0.54876   0.01069   0.72131   0.00000  Uiso   1.00
C959   C     0.56205   0.01319   0.69953   0.00000  Uiso   1.00
C960   C     0.55009   0.01111   0.67703   0.00000  Uiso   1.00
C961   C     0.51245   0.00340   0.69835   0.00000  Uiso   1.00
C962   C     0.52508   0.00590   0.67623   0.00000  Uiso   1.00
C963   C     0.51250   0.00278   0.65413   0.00000  Uiso   1.00
C964   C     0.25518   0.41616   0.73821   0.00000  Uiso   1.00
C965   C     0.26021   0.43831   0.72623   0.00000  Uiso   1.00
C966   C     0.25490   0.46020   0.73815   0.00000  Uiso   1.00
C967   C     0.27026   0.43958   0.70265   0.00000  Uiso   1.00
C968   C     0.27388   0.46241   0.69138   0.00000  Uiso   1.00
C969   C     0.26774   0.48384   0.70404   0.00000  Uiso   1.00
C970   C     0.23765   0.50769   0.80463   0.00000  Uiso   1.00
C971   C     0.26131   0.51711   0.80452   0.00000  Uiso   1.00
C972   C     0.58099   0.32049   0.74933   0.00000  Uiso   1.00
C973   C     0.48443   0.56055   0.79133   0.00000  Uiso   1.00
C974   C     0.50394   0.56635   0.80689   0.00000  Uiso   1.00
C975   C     0.52756   0.56796   0.79713   0.00000  Uiso   1.00
C976   C     0.53174   0.56205   0.77260   0.00000  Uiso   1.00
N101   N     0.52428   0.00692   0.71991   0.00000  Uiso   1.00
N102   N     0.25897   0.48185   0.72692   0.00000  Uiso   1.00
N103   N     0.21082   0.83700   0.43239   0.00000  Uiso   1.00
C977   C     0.16847   0.84306   0.36788   0.00000  Uiso   1.00
C978   C     0.19383   0.84638   0.36665   0.00000  Uiso   1.00
C979   C     0.20814   0.84439   0.38766   0.00000  Uiso   1.00
C980   C     0.19715   0.83915   0.41024   0.00000  Uiso   1.00
C981   C     0.17189   0.83603   0.41145   0.00000  Uiso   1.00
C982   C     0.15770   0.83767   0.39045   0.00000  Uiso   1.00
C983   C     0.93686   0.58987   0.44556   0.00000  Uiso   1.00
C984   C     0.93980   0.61156   0.43229   0.00000  Uiso   1.00
C985   C     0.93977   0.63397   0.44413   0.00000  Uiso   1.00
C986   C     0.93703   0.63533   0.46940   0.00000  Uiso   1.00
C987   C     0.93486   0.61371   0.48302   0.00000  Uiso   1.00
C988   C     0.93467   0.59110   0.47108   0.00000  Uiso   1.00
N104   N     0.06429   0.65920   0.52015   0.00000  Uiso   1.00
H601   H     0.08277   0.25429   0.83007   0.00000  Uiso   1.00
H602   H     0.96192   0.46499   0.76362   0.00000  Uiso   1.00
H603   H     0.94666   0.47667   0.80569   0.00000  Uiso   1.00
H604   H     0.89729   0.53046   0.77265   0.00000  Uiso   1.00
H605   H     0.91090   0.51705   0.73064   0.00000  Uiso   1.00
H606   H     0.58249   0.01688   0.70020   0.00000  Uiso   1.00
H607   H     0.56071   0.01367   0.65935   0.00000  Uiso   1.00
H608   H     0.52259   0.00474   0.63607   0.00000  Uiso   1.00
H609   H     0.25948   0.39809   0.72889   0.00000  Uiso   1.00
H610   H     0.27548   0.42214   0.69263   0.00000  Uiso   1.00
H611   H     0.28172   0.46338   0.67216   0.00000  Uiso   1.00
H612   H     0.27734   0.50490   0.79944   0.00000  Uiso   1.00
H613   H     0.46495   0.56078   0.79856   0.00000  Uiso   1.00
H614   H     0.54337   0.57407   0.80915   0.00000  Uiso   1.00
H615   H     0.55094   0.56326   0.76474   0.00000  Uiso   1.00
H616   H     0.20288   0.85072   0.34845   0.00000  Uiso   1.00
H617   H     0.22872   0.84701   0.38648   0.00000  Uiso   1.00
H618   H     0.16277   0.83212   0.42970   0.00000  Uiso   1.00
H619   H     0.13717   0.83463   0.39153   0.00000  Uiso   1.00
H620   H     0.94223   0.61088   0.41166   0.00000  Uiso   1.00
H621   H     0.94201   0.65135   0.43296   0.00000  Uiso   1.00
H622   H     0.93327   0.61459   0.50372   0.00000  Uiso   1.00
H623   H     0.93274   0.57357   0.48206   0.00000  Uiso   1.00
F51    F     0.48324   0.61174   0.74357   0.00000  Uiso   1.00
F52    F     0.50633   0.64106   0.72443   0.00000  Uiso   1.00
H624   H     0.51550   0.57914   0.84270   0.00000  Uiso   1.00
O26    O     0.35091   0.97954   0.16708   0.00000  Uiso   1.00
C989   C     0.56583   0.76624   0.83155   0.00000  Uiso   1.00
C990   C     0.44780   0.98009   0.76573   0.00000  Uiso   1.00
C991   C     0.43961   0.98671   0.78892   0.00000  Uiso   1.00
C992   C     0.42273   0.00568   0.79157   0.00000  Uiso   1.00
C993   C     0.41219   0.01612   0.77070   0.00000  Uiso   1.00
C994   C     0.41991   0.00899   0.74754   0.00000  Uiso   1.00
C995   C     0.43877   0.99189   0.74496   0.00000  Uiso   1.00
C996   C     0.04876   0.51069   0.72131   0.00000  Uiso   1.00
C997   C     0.06205   0.51319   0.69953   0.00000  Uiso   1.00
C998   C     0.05009   0.51111   0.67703   0.00000  Uiso   1.00
C999   C     0.01245   0.50340   0.69835   0.00000  Uiso   1.00
C1000  C     0.02508   0.50590   0.67623   0.00000  Uiso   1.00
C1001  C     0.01250   0.50278   0.65413   0.00000  Uiso   1.00
C1002  C     0.75518   0.91616   0.73821   0.00000  Uiso   1.00
C1003  C     0.76021   0.93831   0.72623   0.00000  Uiso   1.00
C1004  C     0.75490   0.96020   0.73815   0.00000  Uiso   1.00
C1005  C     0.77026   0.93958   0.70265   0.00000  Uiso   1.00
C1006  C     0.77388   0.96241   0.69138   0.00000  Uiso   1.00
C1007  C     0.76774   0.98384   0.70404   0.00000  Uiso   1.00
C1008  C     0.73765   0.00769   0.80463   0.00000  Uiso   1.00
C1009  C     0.76131   0.01711   0.80452   0.00000  Uiso   1.00
C1010  C     0.08099   0.82049   0.74933   0.00000  Uiso   1.00
C1011  C     0.98443   0.06055   0.79133   0.00000  Uiso   1.00
C1012  C     0.00394   0.06635   0.80689   0.00000  Uiso   1.00
C1013  C     0.02756   0.06796   0.79713   0.00000  Uiso   1.00
C1014  C     0.03174   0.06205   0.77260   0.00000  Uiso   1.00
N105   N     0.02428   0.50692   0.71991   0.00000  Uiso   1.00
N106   N     0.75897   0.98185   0.72692   0.00000  Uiso   1.00
N107   N     0.71082   0.33700   0.43239   0.00000  Uiso   1.00
C1015  C     0.66847   0.34306   0.36788   0.00000  Uiso   1.00
C1016  C     0.69383   0.34638   0.36665   0.00000  Uiso   1.00
C1017  C     0.70814   0.34439   0.38766   0.00000  Uiso   1.00
C1018  C     0.69715   0.33915   0.41024   0.00000  Uiso   1.00
C1019  C     0.67189   0.33603   0.41145   0.00000  Uiso   1.00
C1020  C     0.65770   0.33767   0.39045   0.00000  Uiso   1.00
C1021  C     0.43686   0.08987   0.44556   0.00000  Uiso   1.00
C1022  C     0.43980   0.11156   0.43229   0.00000  Uiso   1.00
C1023  C     0.43977   0.13397   0.44413   0.00000  Uiso   1.00
C1024  C     0.43703   0.13533   0.46940   0.00000  Uiso   1.00
C1025  C     0.43486   0.11371   0.48302   0.00000  Uiso   1.00
C1026  C     0.43467   0.09110   0.47108   0.00000  Uiso   1.00
N108   N     0.56429   0.15920   0.52015   0.00000  Uiso   1.00
H625   H     0.58277   0.75429   0.83007   0.00000  Uiso   1.00
H626   H     0.46192   0.96499   0.76362   0.00000  Uiso   1.00
H627   H     0.44666   0.97667   0.80569   0.00000  Uiso   1.00
H628   H     0.39729   0.03046   0.77265   0.00000  Uiso   1.00
H629   H     0.41090   0.01705   0.73064   0.00000  Uiso   1.00
H630   H     0.08249   0.51688   0.70020   0.00000  Uiso   1.00
H631   H     0.06071   0.51367   0.65935   0.00000  Uiso   1.00
H632   H     0.02259   0.50474   0.63607   0.00000  Uiso   1.00
H633   H     0.75948   0.89809   0.72889   0.00000  Uiso   1.00
H634   H     0.77548   0.92214   0.69263   0.00000  Uiso   1.00
H635   H     0.78172   0.96338   0.67216   0.00000  Uiso   1.00
H636   H     0.77734   0.00490   0.79944   0.00000  Uiso   1.00
H637   H     0.96495   0.06078   0.79856   0.00000  Uiso   1.00
H638   H     0.04337   0.07407   0.80915   0.00000  Uiso   1.00
H639   H     0.05094   0.06326   0.76474   0.00000  Uiso   1.00
H640   H     0.70288   0.35072   0.34845   0.00000  Uiso   1.00
H641   H     0.72872   0.34701   0.38648   0.00000  Uiso   1.00
H642   H     0.66277   0.33212   0.42970   0.00000  Uiso   1.00
H643   H     0.63717   0.33463   0.39153   0.00000  Uiso   1.00
H644   H     0.44223   0.11088   0.41166   0.00000  Uiso   1.00
H645   H     0.44201   0.15135   0.43296   0.00000  Uiso   1.00
H646   H     0.43327   0.11459   0.50372   0.00000  Uiso   1.00
H647   H     0.43274   0.07357   0.48206   0.00000  Uiso   1.00
F53    F    -0.01676   0.11174   0.74357   0.00000  Uiso   1.00
F54    F     0.00633   0.14106   0.72443   0.00000  Uiso   1.00
H648   H     0.01550   0.07914   0.84270   0.00000  Uiso   1.00
O27    O     0.85091   0.47954   0.16708   0.00000  Uiso   1.00
C1027  C     0.56583   0.26624   0.33155   0.00000  Uiso   1.00
C1028  C     0.44780   0.48009   0.26573   0.00000  Uiso   1.00
C1029  C     0.43961   0.48671   0.28892   0.00000  Uiso   1.00
C1030  C     0.42273   0.50568   0.29157   0.00000  Uiso   1.00
C1031  C     0.41219   0.51612   0.27070   0.00000  Uiso   1.00
C1032  C     0.41991   0.50899   0.24754   0.00000  Uiso   1.00
C1033  C     0.43877   0.49189   0.24496   0.00000  Uiso   1.00
C1034  C     0.04876   0.01069   0.22131   0.00000  Uiso   1.00
C1035  C     0.06205   0.01319   0.19953   0.00000  Uiso   1.00
C1036  C     0.05009   0.01111   0.17703   0.00000  Uiso   1.00
C1037  C     0.01245   0.00340   0.19835   0.00000  Uiso   1.00
C1038  C     0.02508   0.00590   0.17623   0.00000  Uiso   1.00
C1039  C     0.01250   0.00278   0.15413   0.00000  Uiso   1.00
C1040  C     0.75518   0.41616   0.23821   0.00000  Uiso   1.00
C1041  C     0.76021   0.43831   0.22623   0.00000  Uiso   1.00
C1042  C     0.75490   0.46020   0.23815   0.00000  Uiso   1.00
C1043  C     0.77026   0.43958   0.20265   0.00000  Uiso   1.00
C1044  C     0.77388   0.46241   0.19138   0.00000  Uiso   1.00
C1045  C     0.76774   0.48384   0.20404   0.00000  Uiso   1.00
C1046  C     0.73765   0.50769   0.30463   0.00000  Uiso   1.00
C1047  C     0.76131   0.51711   0.30452   0.00000  Uiso   1.00
C1048  C     0.08099   0.32049   0.24933   0.00000  Uiso   1.00
C1049  C     0.98443   0.56055   0.29133   0.00000  Uiso   1.00
C1050  C     0.00394   0.56635   0.30689   0.00000  Uiso   1.00
C1051  C     0.02756   0.56796   0.29713   0.00000  Uiso   1.00
C1052  C     0.03174   0.56205   0.27260   0.00000  Uiso   1.00
N109   N     0.02428   0.00692   0.21991   0.00000  Uiso   1.00
N110   N     0.75897   0.48185   0.22692   0.00000  Uiso   1.00
N111   N     0.71082   0.83700   0.93239   0.00000  Uiso   1.00
C1053  C     0.66847   0.84306   0.86788   0.00000  Uiso   1.00
C1054  C     0.69383   0.84638   0.86665   0.00000  Uiso   1.00
C1055  C     0.70814   0.84439   0.88766   0.00000  Uiso   1.00
C1056  C     0.69715   0.83915   0.91024   0.00000  Uiso   1.00
C1057  C     0.67189   0.83603   0.91145   0.00000  Uiso   1.00
C1058  C     0.65770   0.83767   0.89045   0.00000  Uiso   1.00
C1059  C     0.43686   0.58987   0.94556   0.00000  Uiso   1.00
C1060  C     0.43980   0.61156   0.93229   0.00000  Uiso   1.00
C1061  C     0.43977   0.63397   0.94413   0.00000  Uiso   1.00
C1062  C     0.43703   0.63533   0.96940   0.00000  Uiso   1.00
C1063  C     0.43486   0.61371   0.98302   0.00000  Uiso   1.00
C1064  C     0.43467   0.59110   0.97108   0.00000  Uiso   1.00
N112   N     0.56429   0.65920   0.02015   0.00000  Uiso   1.00
H649   H     0.58277   0.25429   0.33007   0.00000  Uiso   1.00
H650   H     0.46192   0.46499   0.26362   0.00000  Uiso   1.00
H651   H     0.44666   0.47667   0.30569   0.00000  Uiso   1.00
H652   H     0.39729   0.53046   0.27265   0.00000  Uiso   1.00
H653   H     0.41090   0.51705   0.23064   0.00000  Uiso   1.00
H654   H     0.08249   0.01688   0.20020   0.00000  Uiso   1.00
H655   H     0.06071   0.01367   0.15935   0.00000  Uiso   1.00
H656   H     0.02259   0.00474   0.13607   0.00000  Uiso   1.00
H657   H     0.75948   0.39809   0.22889   0.00000  Uiso   1.00
H658   H     0.77548   0.42214   0.19263   0.00000  Uiso   1.00
H659   H     0.78172   0.46338   0.17216   0.00000  Uiso   1.00
H660   H     0.77734   0.50490   0.29944   0.00000  Uiso   1.00
H661   H     0.96495   0.56078   0.29856   0.00000  Uiso   1.00
H662   H     0.04337   0.57407   0.30915   0.00000  Uiso   1.00
H663   H     0.05094   0.56326   0.26474   0.00000  Uiso   1.00
H664   H     0.70288   0.85072   0.84845   0.00000  Uiso   1.00
H665   H     0.72872   0.84701   0.88648   0.00000  Uiso   1.00
H666   H     0.66277   0.83212   0.92970   0.00000  Uiso   1.00
H667   H     0.63717   0.83463   0.89153   0.00000  Uiso   1.00
H668   H     0.44223   0.61088   0.91166   0.00000  Uiso   1.00
H669   H     0.44201   0.65135   0.93296   0.00000  Uiso   1.00
H670   H     0.43327   0.61459   0.00372   0.00000  Uiso   1.00
H671   H     0.43274   0.57357   0.98206   0.00000  Uiso   1.00
F55    F    -0.01676   0.61174   0.24357   0.00000  Uiso   1.00
F56    F     0.00633   0.64106   0.22443   0.00000  Uiso   1.00
H672   H     0.01550   0.57914   0.34270   0.00000  Uiso   1.00
O28    O     0.85091   0.97954   0.66708   0.00000  Uiso   1.00
C1065  C     0.56583   0.23376   0.16845   0.00000  Uiso   1.00
C1066  C     0.44780   0.01991   0.23427   0.00000  Uiso   1.00
C1067  C     0.43961   0.01329   0.21108   0.00000  Uiso   1.00
C1068  C     0.42273   0.99432   0.20843   0.00000  Uiso   1.00
C1069  C     0.41219   0.98388   0.22930   0.00000  Uiso   1.00
C1070  C     0.41991   0.99101   0.25246   0.00000  Uiso   1.00
C1071  C     0.43877   0.00811   0.25504   0.00000  Uiso   1.00
C1072  C     0.04876   0.48931   0.27869   0.00000  Uiso   1.00
C1073  C     0.06205   0.48681   0.30047   0.00000  Uiso   1.00
C1074  C     0.05009   0.48889   0.32297   0.00000  Uiso   1.00
C1075  C     0.01245   0.49660   0.30165   0.00000  Uiso   1.00
C1076  C     0.02508   0.49410   0.32377   0.00000  Uiso   1.00
C1077  C     0.01250   0.49722   0.34587   0.00000  Uiso   1.00
C1078  C     0.75518   0.08384   0.26179   0.00000  Uiso   1.00
C1079  C     0.76021   0.06169   0.27377   0.00000  Uiso   1.00
C1080  C     0.75490   0.03980   0.26185   0.00000  Uiso   1.00
C1081  C     0.77026   0.06042   0.29735   0.00000  Uiso   1.00
C1082  C     0.77388   0.03759   0.30862   0.00000  Uiso   1.00
C1083  C     0.76774   0.01616   0.29596   0.00000  Uiso   1.00
C1084  C     0.73765   0.99231   0.19537   0.00000  Uiso   1.00
C1085  C     0.76131   0.98289   0.19548   0.00000  Uiso   1.00
C1086  C     0.08099   0.17951   0.25067   0.00000  Uiso   1.00
C1087  C     0.98443   0.93945   0.20867   0.00000  Uiso   1.00
C1088  C     0.00394   0.93365   0.19311   0.00000  Uiso   1.00
C1089  C     0.02756   0.93204   0.20287   0.00000  Uiso   1.00
C1090  C     0.03174   0.93795   0.22740   0.00000  Uiso   1.00
N113   N     0.02428   0.49308   0.28009   0.00000  Uiso   1.00
N114   N     0.75897   0.01815   0.27308   0.00000  Uiso   1.00
N115   N     0.71082   0.66300   0.56761   0.00000  Uiso   1.00
C1091  C     0.66847   0.65694   0.63212   0.00000  Uiso   1.00
C1092  C     0.69383   0.65362   0.63335   0.00000  Uiso   1.00
C1093  C     0.70814   0.65561   0.61234   0.00000  Uiso   1.00
C1094  C     0.69715   0.66085   0.58976   0.00000  Uiso   1.00
C1095  C     0.67189   0.66397   0.58855   0.00000  Uiso   1.00
C1096  C     0.65770   0.66233   0.60955   0.00000  Uiso   1.00
C1097  C     0.43686   0.91013   0.55444   0.00000  Uiso   1.00
C1098  C     0.43980   0.88844   0.56771   0.00000  Uiso   1.00
C1099  C     0.43977   0.86603   0.55587   0.00000  Uiso   1.00
C1100  C     0.43703   0.86467   0.53060   0.00000  Uiso   1.00
C1101  C     0.43486   0.88629   0.51698   0.00000  Uiso   1.00
C1102  C     0.43467   0.90890   0.52892   0.00000  Uiso   1.00
N116   N     0.56429   0.84080   0.47985   0.00000  Uiso   1.00
H673   H     0.58277   0.24571   0.16993   0.00000  Uiso   1.00
H674   H     0.46192   0.03501   0.23638   0.00000  Uiso   1.00
H675   H     0.44666   0.02333   0.19431   0.00000  Uiso   1.00
H676   H     0.39729   0.96954   0.22735   0.00000  Uiso   1.00
H677   H     0.41090   0.98295   0.26936   0.00000  Uiso   1.00
H678   H     0.08249   0.48312   0.29980   0.00000  Uiso   1.00
H679   H     0.06071   0.48633   0.34065   0.00000  Uiso   1.00
H680   H     0.02259   0.49526   0.36393   0.00000  Uiso   1.00
H681   H     0.75948   0.10191   0.27111   0.00000  Uiso   1.00
H682   H     0.77548   0.07786   0.30737   0.00000  Uiso   1.00
H683   H     0.78172   0.03662   0.32784   0.00000  Uiso   1.00
H684   H     0.77734   0.99510   0.20056   0.00000  Uiso   1.00
H685   H     0.96495   0.93922   0.20144   0.00000  Uiso   1.00
H686   H     0.04337   0.92593   0.19085   0.00000  Uiso   1.00
H687   H     0.05094   0.93674   0.23526   0.00000  Uiso   1.00
H688   H     0.70288   0.64928   0.65155   0.00000  Uiso   1.00
H689   H     0.72872   0.65299   0.61352   0.00000  Uiso   1.00
H690   H     0.66277   0.66788   0.57030   0.00000  Uiso   1.00
H691   H     0.63717   0.66537   0.60847   0.00000  Uiso   1.00
H692   H     0.44223   0.88912   0.58834   0.00000  Uiso   1.00
H693   H     0.44201   0.84865   0.56704   0.00000  Uiso   1.00
H694   H     0.43327   0.88541   0.49628   0.00000  Uiso   1.00
H695   H     0.43274   0.92643   0.51794   0.00000  Uiso   1.00
F57    F    -0.01676   0.88826   0.25643   0.00000  Uiso   1.00
F58    F     0.00633   0.85894   0.27557   0.00000  Uiso   1.00
H696   H     0.01550   0.92086   0.15730   0.00000  Uiso   1.00
O29    O     0.85091   0.52046   0.83292   0.00000  Uiso   1.00
C1103  C     0.56583   0.73376   0.66845   0.00000  Uiso   1.00
C1104  C     0.44780   0.51991   0.73427   0.00000  Uiso   1.00
C1105  C     0.43961   0.51329   0.71108   0.00000  Uiso   1.00
C1106  C     0.42273   0.49432   0.70843   0.00000  Uiso   1.00
C1107  C     0.41219   0.48388   0.72930   0.00000  Uiso   1.00
C1108  C     0.41991   0.49101   0.75246   0.00000  Uiso   1.00
C1109  C     0.43877   0.50811   0.75504   0.00000  Uiso   1.00
C1110  C     0.04876   0.98931   0.77869   0.00000  Uiso   1.00
C1111  C     0.06205   0.98681   0.80047   0.00000  Uiso   1.00
C1112  C     0.05009   0.98889   0.82297   0.00000  Uiso   1.00
C1113  C     0.01245   0.99660   0.80165   0.00000  Uiso   1.00
C1114  C     0.02508   0.99410   0.82377   0.00000  Uiso   1.00
C1115  C     0.01250   0.99722   0.84587   0.00000  Uiso   1.00
C1116  C     0.75518   0.58384   0.76179   0.00000  Uiso   1.00
C1117  C     0.76021   0.56169   0.77377   0.00000  Uiso   1.00
C1118  C     0.75490   0.53980   0.76185   0.00000  Uiso   1.00
C1119  C     0.77026   0.56042   0.79735   0.00000  Uiso   1.00
C1120  C     0.77388   0.53759   0.80862   0.00000  Uiso   1.00
C1121  C     0.76774   0.51616   0.79596   0.00000  Uiso   1.00
C1122  C     0.73765   0.49231   0.69537   0.00000  Uiso   1.00
C1123  C     0.76131   0.48289   0.69548   0.00000  Uiso   1.00
C1124  C     0.08099   0.67951   0.75067   0.00000  Uiso   1.00
C1125  C     0.98443   0.43945   0.70867   0.00000  Uiso   1.00
C1126  C     0.00394   0.43365   0.69311   0.00000  Uiso   1.00
C1127  C     0.02756   0.43204   0.70287   0.00000  Uiso   1.00
C1128  C     0.03174   0.43795   0.72740   0.00000  Uiso   1.00
N117   N     0.02428   0.99308   0.78009   0.00000  Uiso   1.00
N118   N     0.75897   0.51815   0.77308   0.00000  Uiso   1.00
N119   N     0.71082   0.16300   0.06761   0.00000  Uiso   1.00
C1129  C     0.66847   0.15694   0.13212   0.00000  Uiso   1.00
C1130  C     0.69383   0.15362   0.13335   0.00000  Uiso   1.00
C1131  C     0.70814   0.15561   0.11234   0.00000  Uiso   1.00
C1132  C     0.69715   0.16085   0.08976   0.00000  Uiso   1.00
C1133  C     0.67189   0.16397   0.08855   0.00000  Uiso   1.00
C1134  C     0.65770   0.16233   0.10955   0.00000  Uiso   1.00
C1135  C     0.43686   0.41013   0.05444   0.00000  Uiso   1.00
C1136  C     0.43980   0.38844   0.06771   0.00000  Uiso   1.00
C1137  C     0.43977   0.36603   0.05587   0.00000  Uiso   1.00
C1138  C     0.43703   0.36467   0.03060   0.00000  Uiso   1.00
C1139  C     0.43486   0.38629   0.01698   0.00000  Uiso   1.00
C1140  C     0.43467   0.40890   0.02892   0.00000  Uiso   1.00
N120   N     0.56429   0.34080   0.97985   0.00000  Uiso   1.00
H697   H     0.58277   0.74571   0.66993   0.00000  Uiso   1.00
H698   H     0.46192   0.53501   0.73638   0.00000  Uiso   1.00
H699   H     0.44666   0.52333   0.69431   0.00000  Uiso   1.00
H700   H     0.39729   0.46954   0.72735   0.00000  Uiso   1.00
H701   H     0.41090   0.48295   0.76936   0.00000  Uiso   1.00
H702   H     0.08249   0.98312   0.79980   0.00000  Uiso   1.00
H703   H     0.06071   0.98633   0.84065   0.00000  Uiso   1.00
H704   H     0.02259   0.99526   0.86393   0.00000  Uiso   1.00
H705   H     0.75948   0.60191   0.77111   0.00000  Uiso   1.00
H706   H     0.77548   0.57786   0.80737   0.00000  Uiso   1.00
H707   H     0.78172   0.53662   0.82784   0.00000  Uiso   1.00
H708   H     0.77734   0.49510   0.70056   0.00000  Uiso   1.00
H709   H     0.96495   0.43922   0.70144   0.00000  Uiso   1.00
H710   H     0.04337   0.42593   0.69085   0.00000  Uiso   1.00
H711   H     0.05094   0.43674   0.73526   0.00000  Uiso   1.00
H712   H     0.70288   0.14928   0.15155   0.00000  Uiso   1.00
H713   H     0.72872   0.15299   0.11352   0.00000  Uiso   1.00
H714   H     0.66277   0.16788   0.07030   0.00000  Uiso   1.00
H715   H     0.63717   0.16537   0.10847   0.00000  Uiso   1.00
H716   H     0.44223   0.38912   0.08834   0.00000  Uiso   1.00
H717   H     0.44201   0.34865   0.06704   0.00000  Uiso   1.00
H718   H     0.43327   0.38541   0.99628   0.00000  Uiso   1.00
H719   H     0.43274   0.42643   0.01794   0.00000  Uiso   1.00
F59    F    -0.01676   0.38826   0.75643   0.00000  Uiso   1.00
F60    F     0.00633   0.35894   0.77557   0.00000  Uiso   1.00
H720   H     0.01550   0.42086   0.65730   0.00000  Uiso   1.00
O30    O     0.85091   0.02046   0.33292   0.00000  Uiso   1.00
C1141  C     0.06583   0.23376   0.66845   0.00000  Uiso   1.00
C1142  C     0.94780   0.01991   0.73427   0.00000  Uiso   1.00
C1143  C     0.93961   0.01329   0.71108   0.00000  Uiso   1.00
C1144  C     0.92273   0.99432   0.70843   0.00000  Uiso   1.00
C1145  C     0.91219   0.98388   0.72930   0.00000  Uiso   1.00
C1146  C     0.91991   0.99101   0.75246   0.00000  Uiso   1.00
C1147  C     0.93877   0.00811   0.75504   0.00000  Uiso   1.00
C1148  C     0.54876   0.48931   0.77869   0.00000  Uiso   1.00
C1149  C     0.56205   0.48681   0.80047   0.00000  Uiso   1.00
C1150  C     0.55009   0.48889   0.82297   0.00000  Uiso   1.00
C1151  C     0.51245   0.49660   0.80165   0.00000  Uiso   1.00
C1152  C     0.52508   0.49410   0.82377   0.00000  Uiso   1.00
C1153  C     0.51250   0.49722   0.84587   0.00000  Uiso   1.00
C1154  C     0.25518   0.08384   0.76179   0.00000  Uiso   1.00
C1155  C     0.26021   0.06169   0.77377   0.00000  Uiso   1.00
C1156  C     0.25490   0.03980   0.76185   0.00000  Uiso   1.00
C1157  C     0.27026   0.06042   0.79735   0.00000  Uiso   1.00
C1158  C     0.27388   0.03759   0.80862   0.00000  Uiso   1.00
C1159  C     0.26774   0.01616   0.79596   0.00000  Uiso   1.00
C1160  C     0.23765   0.99231   0.69537   0.00000  Uiso   1.00
C1161  C     0.26131   0.98289   0.69548   0.00000  Uiso   1.00
C1162  C     0.58099   0.17951   0.75067   0.00000  Uiso   1.00
C1163  C     0.48443   0.93945   0.70867   0.00000  Uiso   1.00
C1164  C     0.50394   0.93365   0.69311   0.00000  Uiso   1.00
C1165  C     0.52756   0.93204   0.70287   0.00000  Uiso   1.00
C1166  C     0.53174   0.93795   0.72740   0.00000  Uiso   1.00
N121   N     0.52428   0.49308   0.78009   0.00000  Uiso   1.00
N122   N     0.25897   0.01815   0.77308   0.00000  Uiso   1.00
N123   N     0.21082   0.66300   0.06761   0.00000  Uiso   1.00
C1167  C     0.16847   0.65694   0.13212   0.00000  Uiso   1.00
C1168  C     0.19383   0.65362   0.13335   0.00000  Uiso   1.00
C1169  C     0.20814   0.65561   0.11234   0.00000  Uiso   1.00
C1170  C     0.19715   0.66085   0.08976   0.00000  Uiso   1.00
C1171  C     0.17189   0.66397   0.08855   0.00000  Uiso   1.00
C1172  C     0.15770   0.66233   0.10955   0.00000  Uiso   1.00
C1173  C     0.93686   0.91013   0.05444   0.00000  Uiso   1.00
C1174  C     0.93980   0.88844   0.06771   0.00000  Uiso   1.00
C1175  C     0.93977   0.86603   0.05587   0.00000  Uiso   1.00
C1176  C     0.93703   0.86467   0.03060   0.00000  Uiso   1.00
C1177  C     0.93486   0.88629   0.01698   0.00000  Uiso   1.00
C1178  C     0.93467   0.90890   0.02892   0.00000  Uiso   1.00
N124   N     0.06429   0.84080   0.97985   0.00000  Uiso   1.00
H721   H     0.08277   0.24571   0.66993   0.00000  Uiso   1.00
H722   H     0.96192   0.03501   0.73638   0.00000  Uiso   1.00
H723   H     0.94666   0.02333   0.69431   0.00000  Uiso   1.00
H724   H     0.89729   0.96954   0.72735   0.00000  Uiso   1.00
H725   H     0.91090   0.98295   0.76936   0.00000  Uiso   1.00
H726   H     0.58249   0.48312   0.79980   0.00000  Uiso   1.00
H727   H     0.56071   0.48633   0.84065   0.00000  Uiso   1.00
H728   H     0.52259   0.49526   0.86393   0.00000  Uiso   1.00
H729   H     0.25948   0.10191   0.77111   0.00000  Uiso   1.00
H730   H     0.27548   0.07786   0.80737   0.00000  Uiso   1.00
H731   H     0.28172   0.03662   0.82784   0.00000  Uiso   1.00
H732   H     0.27734   0.99510   0.70056   0.00000  Uiso   1.00
H733   H     0.46495   0.93922   0.70144   0.00000  Uiso   1.00
H734   H     0.54337   0.92593   0.69085   0.00000  Uiso   1.00
H735   H     0.55094   0.93674   0.73526   0.00000  Uiso   1.00
H736   H     0.20288   0.64928   0.15155   0.00000  Uiso   1.00
H737   H     0.22872   0.65299   0.11352   0.00000  Uiso   1.00
H738   H     0.16277   0.66788   0.07030   0.00000  Uiso   1.00
H739   H     0.13717   0.66537   0.10847   0.00000  Uiso   1.00
H740   H     0.94223   0.88912   0.08834   0.00000  Uiso   1.00
H741   H     0.94201   0.84865   0.06704   0.00000  Uiso   1.00
H742   H     0.93327   0.88541   0.99628   0.00000  Uiso   1.00
H743   H     0.93274   0.92643   0.01794   0.00000  Uiso   1.00
F61    F     0.48324   0.88826   0.75643   0.00000  Uiso   1.00
F62    F     0.50633   0.85894   0.77557   0.00000  Uiso   1.00
H744   H     0.51550   0.92086   0.65730   0.00000  Uiso   1.00
O31    O     0.35091   0.52046   0.33292   0.00000  Uiso   1.00
C1179  C     0.06583   0.73376   0.16845   0.00000  Uiso   1.00
C1180  C     0.94780   0.51991   0.23427   0.00000  Uiso   1.00
C1181  C     0.93961   0.51329   0.21108   0.00000  Uiso   1.00
C1182  C     0.92273   0.49432   0.20843   0.00000  Uiso   1.00
C1183  C     0.91219   0.48388   0.22930   0.00000  Uiso   1.00
C1184  C     0.91991   0.49101   0.25246   0.00000  Uiso   1.00
C1185  C     0.93877   0.50811   0.25504   0.00000  Uiso   1.00
C1186  C     0.54876   0.98931   0.27869   0.00000  Uiso   1.00
C1187  C     0.56205   0.98681   0.30047   0.00000  Uiso   1.00
C1188  C     0.55009   0.98889   0.32297   0.00000  Uiso   1.00
C1189  C     0.51245   0.99660   0.30165   0.00000  Uiso   1.00
C1190  C     0.52508   0.99410   0.32377   0.00000  Uiso   1.00
C1191  C     0.51250   0.99722   0.34587   0.00000  Uiso   1.00
C1192  C     0.25518   0.58384   0.26179   0.00000  Uiso   1.00
C1193  C     0.26021   0.56169   0.27377   0.00000  Uiso   1.00
C1194  C     0.25490   0.53980   0.26185   0.00000  Uiso   1.00
C1195  C     0.27026   0.56042   0.29735   0.00000  Uiso   1.00
C1196  C     0.27388   0.53759   0.30862   0.00000  Uiso   1.00
C1197  C     0.26774   0.51616   0.29596   0.00000  Uiso   1.00
C1198  C     0.23765   0.49231   0.19537   0.00000  Uiso   1.00
C1199  C     0.26131   0.48289   0.19548   0.00000  Uiso   1.00
C1200  C     0.58099   0.67951   0.25067   0.00000  Uiso   1.00
C1201  C     0.48443   0.43945   0.20867   0.00000  Uiso   1.00
C1202  C     0.50394   0.43365   0.19311   0.00000  Uiso   1.00
C1203  C     0.52756   0.43204   0.20287   0.00000  Uiso   1.00
C1204  C     0.53174   0.43795   0.22740   0.00000  Uiso   1.00
N125   N     0.52428   0.99308   0.28009   0.00000  Uiso   1.00
N126   N     0.25897   0.51815   0.27308   0.00000  Uiso   1.00
N127   N     0.21082   0.16300   0.56761   0.00000  Uiso   1.00
C1205  C     0.16847   0.15694   0.63212   0.00000  Uiso   1.00
C1206  C     0.19383   0.15362   0.63335   0.00000  Uiso   1.00
C1207  C     0.20814   0.15561   0.61234   0.00000  Uiso   1.00
C1208  C     0.19715   0.16085   0.58976   0.00000  Uiso   1.00
C1209  C     0.17189   0.16397   0.58855   0.00000  Uiso   1.00
C1210  C     0.15770   0.16233   0.60955   0.00000  Uiso   1.00
C1211  C     0.93686   0.41013   0.55444   0.00000  Uiso   1.00
C1212  C     0.93980   0.38844   0.56771   0.00000  Uiso   1.00
C1213  C     0.93977   0.36603   0.55587   0.00000  Uiso   1.00
C1214  C     0.93703   0.36467   0.53060   0.00000  Uiso   1.00
C1215  C     0.93486   0.38629   0.51698   0.00000  Uiso   1.00
C1216  C     0.93467   0.40890   0.52892   0.00000  Uiso   1.00
N128   N     0.06429   0.34080   0.47985   0.00000  Uiso   1.00
H745   H     0.08277   0.74571   0.16993   0.00000  Uiso   1.00
H746   H     0.96192   0.53501   0.23638   0.00000  Uiso   1.00
H747   H     0.94666   0.52333   0.19431   0.00000  Uiso   1.00
H748   H     0.89729   0.46954   0.22735   0.00000  Uiso   1.00
H749   H     0.91090   0.48295   0.26936   0.00000  Uiso   1.00
H750   H     0.58249   0.98312   0.29980   0.00000  Uiso   1.00
H751   H     0.56071   0.98633   0.34065   0.00000  Uiso   1.00
H752   H     0.52259   0.99526   0.36393   0.00000  Uiso   1.00
H753   H     0.25948   0.60191   0.27111   0.00000  Uiso   1.00
H754   H     0.27548   0.57786   0.30737   0.00000  Uiso   1.00
H755   H     0.28172   0.53662   0.32784   0.00000  Uiso   1.00
H756   H     0.27734   0.49510   0.20056   0.00000  Uiso   1.00
H757   H     0.46495   0.43922   0.20144   0.00000  Uiso   1.00
H758   H     0.54337   0.42593   0.19085   0.00000  Uiso   1.00
H759   H     0.55094   0.43674   0.23526   0.00000  Uiso   1.00
H760   H     0.20288   0.14928   0.65155   0.00000  Uiso   1.00
H761   H     0.22872   0.15299   0.61352   0.00000  Uiso   1.00
H762   H     0.16277   0.16788   0.57030   0.00000  Uiso   1.00
H763   H     0.13717   0.16537   0.60847   0.00000  Uiso   1.00
H764   H     0.94223   0.38912   0.58834   0.00000  Uiso   1.00
H765   H     0.94201   0.34865   0.56704   0.00000  Uiso   1.00
H766   H     0.93327   0.38541   0.49628   0.00000  Uiso   1.00
H767   H     0.93274   0.42643   0.51794   0.00000  Uiso   1.00
F63    F     0.48324   0.38826   0.25643   0.00000  Uiso   1.00
F64    F     0.50633   0.35894   0.27557   0.00000  Uiso   1.00
H768   H     0.51550   0.42086   0.15730   0.00000  Uiso   1.00
O32    O     0.35091   0.02046   0.83292   0.00000  Uiso   1.00
C1217  C     0.83155   0.93417   0.73376   0.00000  Uiso   1.00
C1218  C     0.76573   0.05220   0.51991   0.00000  Uiso   1.00
C1219  C     0.78892   0.06039   0.51329   0.00000  Uiso   1.00
C1220  C     0.79157   0.07727   0.49432   0.00000  Uiso   1.00
C1221  C     0.77070   0.08781   0.48388   0.00000  Uiso   1.00
C1222  C     0.74754   0.08009   0.49101   0.00000  Uiso   1.00
C1223  C     0.74496   0.06123   0.50811   0.00000  Uiso   1.00
C1224  C     0.72131   0.45124   0.98931   0.00000  Uiso   1.00
C1225  C     0.69953   0.43795   0.98681   0.00000  Uiso   1.00
C1226  C     0.67703   0.44991   0.98889   0.00000  Uiso   1.00
C1227  C     0.69835   0.48755   0.99660   0.00000  Uiso   1.00
C1228  C     0.67623   0.47492   0.99410   0.00000  Uiso   1.00
C1229  C     0.65413   0.48750   0.99722   0.00000  Uiso   1.00
C1230  C     0.73821   0.74482   0.58384   0.00000  Uiso   1.00
C1231  C     0.72623   0.73979   0.56169   0.00000  Uiso   1.00
C1232  C     0.73815   0.74510   0.53980   0.00000  Uiso   1.00
C1233  C     0.70265   0.72974   0.56042   0.00000  Uiso   1.00
C1234  C     0.69138   0.72612   0.53759   0.00000  Uiso   1.00
C1235  C     0.70404   0.73226   0.51616   0.00000  Uiso   1.00
C1236  C     0.80463   0.76235   0.49231   0.00000  Uiso   1.00
C1237  C     0.80452   0.73869   0.48289   0.00000  Uiso   1.00
C1238  C     0.74933   0.41901   0.67951   0.00000  Uiso   1.00
C1239  C     0.79133   0.51557   0.43945   0.00000  Uiso   1.00
C1240  C     0.80689   0.49606   0.43365   0.00000  Uiso   1.00
C1241  C     0.79713   0.47244   0.43204   0.00000  Uiso   1.00
C1242  C     0.77260   0.46826   0.43795   0.00000  Uiso   1.00
N129   N     0.71991   0.47572   0.99308   0.00000  Uiso   1.00
N130   N     0.72692   0.74103   0.51815   0.00000  Uiso   1.00
N131   N     0.43239   0.78918   0.16300   0.00000  Uiso   1.00
C1243  C     0.36788   0.83153   0.15694   0.00000  Uiso   1.00
C1244  C     0.36665   0.80617   0.15362   0.00000  Uiso   1.00
C1245  C     0.38766   0.79186   0.15561   0.00000  Uiso   1.00
C1246  C     0.41024   0.80285   0.16085   0.00000  Uiso   1.00
C1247  C     0.41145   0.82811   0.16397   0.00000  Uiso   1.00
C1248  C     0.39045   0.84230   0.16233   0.00000  Uiso   1.00
C1249  C     0.44556   0.06314   0.41013   0.00000  Uiso   1.00
C1250  C     0.43229   0.06020   0.38844   0.00000  Uiso   1.00
C1251  C     0.44413   0.06023   0.36603   0.00000  Uiso   1.00
C1252  C     0.46940   0.06297   0.36467   0.00000  Uiso   1.00
C1253  C     0.48302   0.06514   0.38629   0.00000  Uiso   1.00
C1254  C     0.47108   0.06533   0.40890   0.00000  Uiso   1.00
N132   N     0.52015   0.93571   0.34080   0.00000  Uiso   1.00
H769   H     0.83007   0.91723   0.74571   0.00000  Uiso   1.00
H770   H     0.76362   0.03808   0.53501   0.00000  Uiso   1.00
H771   H     0.80569   0.05334   0.52333   0.00000  Uiso   1.00
H772   H     0.77265   0.10271   0.46954   0.00000  Uiso   1.00
H773   H     0.73064   0.08910   0.48295   0.00000  Uiso   1.00
H774   H     0.70020   0.41751   0.98312   0.00000  Uiso   1.00
H775   H     0.65935   0.43929   0.98633   0.00000  Uiso   1.00
H776   H     0.63607   0.47741   0.99526   0.00000  Uiso   1.00
H777   H     0.72889   0.74052   0.60191   0.00000  Uiso   1.00
H778   H     0.69263   0.72452   0.57786   0.00000  Uiso   1.00
H779   H     0.67216   0.71828   0.53662   0.00000  Uiso   1.00
H780   H     0.79944   0.72266   0.49510   0.00000  Uiso   1.00
H781   H     0.79856   0.53505   0.43922   0.00000  Uiso   1.00
H782   H     0.80915   0.45663   0.42593   0.00000  Uiso   1.00
H783   H     0.76474   0.44906   0.43674   0.00000  Uiso   1.00
H784   H     0.34845   0.79712   0.14928   0.00000  Uiso   1.00
H785   H     0.38648   0.77128   0.15299   0.00000  Uiso   1.00
H786   H     0.42970   0.83723   0.16788   0.00000  Uiso   1.00
H787   H     0.39153   0.86283   0.16537   0.00000  Uiso   1.00
H788   H     0.41166   0.05777   0.38912   0.00000  Uiso   1.00
H789   H     0.43296   0.05799   0.34865   0.00000  Uiso   1.00
H790   H     0.50372   0.06673   0.38541   0.00000  Uiso   1.00
H791   H     0.48206   0.06726   0.42643   0.00000  Uiso   1.00
F65    F     0.74357   0.51676   0.38826   0.00000  Uiso   1.00
F66    F     0.72443   0.49367   0.35894   0.00000  Uiso   1.00
H792   H     0.84270   0.48450   0.42086   0.00000  Uiso   1.00
O33    O     0.16708   0.64909   0.02046   0.00000  Uiso   1.00
C1255  C     0.83155   0.43417   0.23376   0.00000  Uiso   1.00
C1256  C     0.76573   0.55220   0.01991   0.00000  Uiso   1.00
C1257  C     0.78892   0.56039   0.01329   0.00000  Uiso   1.00
C1258  C     0.79157   0.57727   0.99432   0.00000  Uiso   1.00
C1259  C     0.77070   0.58781   0.98388   0.00000  Uiso   1.00
C1260  C     0.74754   0.58009   0.99101   0.00000  Uiso   1.00
C1261  C     0.74496   0.56123   0.00811   0.00000  Uiso   1.00
C1262  C     0.72131   0.95124   0.48931   0.00000  Uiso   1.00
C1263  C     0.69953   0.93795   0.48681   0.00000  Uiso   1.00
C1264  C     0.67703   0.94991   0.48889   0.00000  Uiso   1.00
C1265  C     0.69835   0.98755   0.49660   0.00000  Uiso   1.00
C1266  C     0.67623   0.97492   0.49410   0.00000  Uiso   1.00
C1267  C     0.65413   0.98750   0.49722   0.00000  Uiso   1.00
C1268  C     0.73821   0.24482   0.08384   0.00000  Uiso   1.00
C1269  C     0.72623   0.23979   0.06169   0.00000  Uiso   1.00
C1270  C     0.73815   0.24510   0.03980   0.00000  Uiso   1.00
C1271  C     0.70265   0.22974   0.06042   0.00000  Uiso   1.00
C1272  C     0.69138   0.22612   0.03759   0.00000  Uiso   1.00
C1273  C     0.70404   0.23226   0.01616   0.00000  Uiso   1.00
C1274  C     0.80463   0.26235   0.99231   0.00000  Uiso   1.00
C1275  C     0.80452   0.23869   0.98289   0.00000  Uiso   1.00
C1276  C     0.74933   0.91901   0.17951   0.00000  Uiso   1.00
C1277  C     0.79133   0.01557   0.93945   0.00000  Uiso   1.00
C1278  C     0.80689   0.99606   0.93365   0.00000  Uiso   1.00
C1279  C     0.79713   0.97244   0.93204   0.00000  Uiso   1.00
C1280  C     0.77260   0.96826   0.93795   0.00000  Uiso   1.00
N133   N     0.71991   0.97572   0.49308   0.00000  Uiso   1.00
N134   N     0.72692   0.24103   0.01815   0.00000  Uiso   1.00
N135   N     0.43239   0.28918   0.66300   0.00000  Uiso   1.00
C1281  C     0.36788   0.33153   0.65694   0.00000  Uiso   1.00
C1282  C     0.36665   0.30617   0.65362   0.00000  Uiso   1.00
C1283  C     0.38766   0.29186   0.65561   0.00000  Uiso   1.00
C1284  C     0.41024   0.30285   0.66085   0.00000  Uiso   1.00
C1285  C     0.41145   0.32811   0.66397   0.00000  Uiso   1.00
C1286  C     0.39045   0.34230   0.66233   0.00000  Uiso   1.00
C1287  C     0.44556   0.56314   0.91013   0.00000  Uiso   1.00
C1288  C     0.43229   0.56020   0.88844   0.00000  Uiso   1.00
C1289  C     0.44413   0.56023   0.86603   0.00000  Uiso   1.00
C1290  C     0.46940   0.56297   0.86467   0.00000  Uiso   1.00
C1291  C     0.48302   0.56514   0.88629   0.00000  Uiso   1.00
C1292  C     0.47108   0.56533   0.90890   0.00000  Uiso   1.00
N136   N     0.52015   0.43571   0.84080   0.00000  Uiso   1.00
H793   H     0.83007   0.41723   0.24571   0.00000  Uiso   1.00
H794   H     0.76362   0.53808   0.03501   0.00000  Uiso   1.00
H795   H     0.80569   0.55334   0.02333   0.00000  Uiso   1.00
H796   H     0.77265   0.60271   0.96954   0.00000  Uiso   1.00
H797   H     0.73064   0.58910   0.98295   0.00000  Uiso   1.00
H798   H     0.70020   0.91751   0.48312   0.00000  Uiso   1.00
H799   H     0.65935   0.93929   0.48633   0.00000  Uiso   1.00
H800   H     0.63607   0.97741   0.49526   0.00000  Uiso   1.00
H801   H     0.72889   0.24052   0.10191   0.00000  Uiso   1.00
H802   H     0.69263   0.22452   0.07786   0.00000  Uiso   1.00
H803   H     0.67216   0.21828   0.03662   0.00000  Uiso   1.00
H804   H     0.79944   0.22266   0.99510   0.00000  Uiso   1.00
H805   H     0.79856   0.03505   0.93922   0.00000  Uiso   1.00
H806   H     0.80915   0.95663   0.92593   0.00000  Uiso   1.00
H807   H     0.76474   0.94906   0.93674   0.00000  Uiso   1.00
H808   H     0.34845   0.29712   0.64928   0.00000  Uiso   1.00
H809   H     0.38648   0.27128   0.65299   0.00000  Uiso   1.00
H810   H     0.42970   0.33723   0.66788   0.00000  Uiso   1.00
H811   H     0.39153   0.36283   0.66537   0.00000  Uiso   1.00
H812   H     0.41166   0.55777   0.88912   0.00000  Uiso   1.00
H813   H     0.43296   0.55799   0.84865   0.00000  Uiso   1.00
H814   H     0.50372   0.56673   0.88541   0.00000  Uiso   1.00
H815   H     0.48206   0.56726   0.92643   0.00000  Uiso   1.00
F67    F     0.74357   1.01676   0.88826   0.00000  Uiso   1.00
F68    F     0.72443   0.99367   0.85894   0.00000  Uiso   1.00
H816   H     0.84270   0.98450   0.92086   0.00000  Uiso   1.00
O34    O     0.16708   0.14909   0.52046   0.00000  Uiso   1.00
C1293  C     0.33155   0.93417   0.23376   0.00000  Uiso   1.00
C1294  C     0.26573   0.05220   0.01991   0.00000  Uiso   1.00
C1295  C     0.28892   0.06039   0.01329   0.00000  Uiso   1.00
C1296  C     0.29157   0.07727   0.99432   0.00000  Uiso   1.00
C1297  C     0.27070   0.08781   0.98388   0.00000  Uiso   1.00
C1298  C     0.24754   0.08009   0.99101   0.00000  Uiso   1.00
C1299  C     0.24496   0.06123   0.00811   0.00000  Uiso   1.00
C1300  C     0.22131   0.45124   0.48931   0.00000  Uiso   1.00
C1301  C     0.19953   0.43795   0.48681   0.00000  Uiso   1.00
C1302  C     0.17703   0.44991   0.48889   0.00000  Uiso   1.00
C1303  C     0.19835   0.48755   0.49660   0.00000  Uiso   1.00
C1304  C     0.17623   0.47492   0.49410   0.00000  Uiso   1.00
C1305  C     0.15413   0.48750   0.49722   0.00000  Uiso   1.00
C1306  C     0.23821   0.74482   0.08384   0.00000  Uiso   1.00
C1307  C     0.22623   0.73979   0.06169   0.00000  Uiso   1.00
C1308  C     0.23815   0.74510   0.03980   0.00000  Uiso   1.00
C1309  C     0.20265   0.72974   0.06042   0.00000  Uiso   1.00
C1310  C     0.19138   0.72612   0.03759   0.00000  Uiso   1.00
C1311  C     0.20404   0.73226   0.01616   0.00000  Uiso   1.00
C1312  C     0.30463   0.76235   0.99231   0.00000  Uiso   1.00
C1313  C     0.30452   0.73869   0.98289   0.00000  Uiso   1.00
C1314  C     0.24933   0.41901   0.17951   0.00000  Uiso   1.00
C1315  C     0.29133   0.51557   0.93945   0.00000  Uiso   1.00
C1316  C     0.30689   0.49606   0.93365   0.00000  Uiso   1.00
C1317  C     0.29713   0.47244   0.93204   0.00000  Uiso   1.00
C1318  C     0.27260   0.46826   0.93795   0.00000  Uiso   1.00
N137   N     0.21991   0.47572   0.49308   0.00000  Uiso   1.00
N138   N     0.22692   0.74103   0.01815   0.00000  Uiso   1.00
N139   N     0.93239   0.78918   0.66300   0.00000  Uiso   1.00
C1319  C     0.86788   0.83153   0.65694   0.00000  Uiso   1.00
C1320  C     0.86665   0.80617   0.65362   0.00000  Uiso   1.00
C1321  C     0.88766   0.79186   0.65561   0.00000  Uiso   1.00
C1322  C     0.91024   0.80285   0.66085   0.00000  Uiso   1.00
C1323  C     0.91145   0.82811   0.66397   0.00000  Uiso   1.00
C1324  C     0.89045   0.84230   0.66233   0.00000  Uiso   1.00
C1325  C     0.94556   0.06314   0.91013   0.00000  Uiso   1.00
C1326  C     0.93229   0.06020   0.88844   0.00000  Uiso   1.00
C1327  C     0.94413   0.06023   0.86603   0.00000  Uiso   1.00
C1328  C     0.96940   0.06297   0.86467   0.00000  Uiso   1.00
C1329  C     0.98302   0.06514   0.88629   0.00000  Uiso   1.00
C1330  C     0.97108   0.06533   0.90890   0.00000  Uiso   1.00
N140   N     0.02015   0.93571   0.84080   0.00000  Uiso   1.00
H817   H     0.33007   0.91723   0.24571   0.00000  Uiso   1.00
H818   H     0.26362   0.03808   0.03501   0.00000  Uiso   1.00
H819   H     0.30569   0.05334   0.02333   0.00000  Uiso   1.00
H820   H     0.27265   0.10271   0.96954   0.00000  Uiso   1.00
H821   H     0.23064   0.08910   0.98295   0.00000  Uiso   1.00
H822   H     0.20020   0.41751   0.48312   0.00000  Uiso   1.00
H823   H     0.15935   0.43929   0.48633   0.00000  Uiso   1.00
H824   H     0.13607   0.47741   0.49526   0.00000  Uiso   1.00
H825   H     0.22889   0.74052   0.10191   0.00000  Uiso   1.00
H826   H     0.19263   0.72452   0.07786   0.00000  Uiso   1.00
H827   H     0.17216   0.71828   0.03662   0.00000  Uiso   1.00
H828   H     0.29944   0.72266   0.99510   0.00000  Uiso   1.00
H829   H     0.29856   0.53505   0.93922   0.00000  Uiso   1.00
H830   H     0.30915   0.45663   0.92593   0.00000  Uiso   1.00
H831   H     0.26474   0.44906   0.93674   0.00000  Uiso   1.00
H832   H     0.84845   0.79712   0.64928   0.00000  Uiso   1.00
H833   H     0.88648   0.77128   0.65299   0.00000  Uiso   1.00
H834   H     0.92970   0.83723   0.66788   0.00000  Uiso   1.00
H835   H     0.89153   0.86283   0.66537   0.00000  Uiso   1.00
H836   H     0.91166   0.05777   0.88912   0.00000  Uiso   1.00
H837   H     0.93296   0.05799   0.84865   0.00000  Uiso   1.00
H838   H     0.00372   0.06673   0.88541   0.00000  Uiso   1.00
H839   H     0.98206   0.06726   0.92643   0.00000  Uiso   1.00
F69    F     0.24357   0.51676   0.88826   0.00000  Uiso   1.00
F70    F     0.22443   0.49367   0.85894   0.00000  Uiso   1.00
H840   H     0.34270   0.48450   0.92086   0.00000  Uiso   1.00
O35    O     0.66708   0.64909   0.52046   0.00000  Uiso   1.00
C1331  C     0.33155   0.43417   0.73376   0.00000  Uiso   1.00
C1332  C     0.26573   0.55220   0.51991   0.00000  Uiso   1.00
C1333  C     0.28892   0.56039   0.51329   0.00000  Uiso   1.00
C1334  C     0.29157   0.57727   0.49432   0.00000  Uiso   1.00
C1335  C     0.27070   0.58781   0.48388   0.00000  Uiso   1.00
C1336  C     0.24754   0.58009   0.49101   0.00000  Uiso   1.00
C1337  C     0.24496   0.56123   0.50811   0.00000  Uiso   1.00
C1338  C     0.22131   0.95124   0.98931   0.00000  Uiso   1.00
C1339  C     0.19953   0.93795   0.98681   0.00000  Uiso   1.00
C1340  C     0.17703   0.94991   0.98889   0.00000  Uiso   1.00
C1341  C     0.19835   0.98755   0.99660   0.00000  Uiso   1.00
C1342  C     0.17623   0.97492   0.99410   0.00000  Uiso   1.00
C1343  C     0.15413   0.98750   0.99722   0.00000  Uiso   1.00
C1344  C     0.23821   0.24482   0.58384   0.00000  Uiso   1.00
C1345  C     0.22623   0.23979   0.56169   0.00000  Uiso   1.00
C1346  C     0.23815   0.24510   0.53980   0.00000  Uiso   1.00
C1347  C     0.20265   0.22974   0.56042   0.00000  Uiso   1.00
C1348  C     0.19138   0.22612   0.53759   0.00000  Uiso   1.00
C1349  C     0.20404   0.23226   0.51616   0.00000  Uiso   1.00
C1350  C     0.30463   0.26235   0.49231   0.00000  Uiso   1.00
C1351  C     0.30452   0.23869   0.48289   0.00000  Uiso   1.00
C1352  C     0.24933   0.91901   0.67951   0.00000  Uiso   1.00
C1353  C     0.29133   0.01557   0.43945   0.00000  Uiso   1.00
C1354  C     0.30689   0.99606   0.43365   0.00000  Uiso   1.00
C1355  C     0.29713   0.97244   0.43204   0.00000  Uiso   1.00
C1356  C     0.27260   0.96826   0.43795   0.00000  Uiso   1.00
N141   N     0.21991   0.97572   0.99308   0.00000  Uiso   1.00
N142   N     0.22692   0.24103   0.51815   0.00000  Uiso   1.00
N143   N     0.93239   0.28918   0.16300   0.00000  Uiso   1.00
C1357  C     0.86788   0.33153   0.15694   0.00000  Uiso   1.00
C1358  C     0.86665   0.30617   0.15362   0.00000  Uiso   1.00
C1359  C     0.88766   0.29186   0.15561   0.00000  Uiso   1.00
C1360  C     0.91024   0.30285   0.16085   0.00000  Uiso   1.00
C1361  C     0.91145   0.32811   0.16397   0.00000  Uiso   1.00
C1362  C     0.89045   0.34230   0.16233   0.00000  Uiso   1.00
C1363  C     0.94556   0.56314   0.41013   0.00000  Uiso   1.00
C1364  C     0.93229   0.56020   0.38844   0.00000  Uiso   1.00
C1365  C     0.94413   0.56023   0.36603   0.00000  Uiso   1.00
C1366  C     0.96940   0.56297   0.36467   0.00000  Uiso   1.00
C1367  C     0.98302   0.56514   0.38629   0.00000  Uiso   1.00
C1368  C     0.97108   0.56533   0.40890   0.00000  Uiso   1.00
N144   N     0.02015   0.43571   0.34080   0.00000  Uiso   1.00
H841   H     0.33007   0.41723   0.74571   0.00000  Uiso   1.00
H842   H     0.26362   0.53808   0.53501   0.00000  Uiso   1.00
H843   H     0.30569   0.55334   0.52333   0.00000  Uiso   1.00
H844   H     0.27265   0.60271   0.46954   0.00000  Uiso   1.00
H845   H     0.23064   0.58910   0.48295   0.00000  Uiso   1.00
H846   H     0.20020   0.91751   0.98312   0.00000  Uiso   1.00
H847   H     0.15935   0.93929   0.98633   0.00000  Uiso   1.00
H848   H     0.13607   0.97741   0.99526   0.00000  Uiso   1.00
H849   H     0.22889   0.24052   0.60191   0.00000  Uiso   1.00
H850   H     0.19263   0.22452   0.57786   0.00000  Uiso   1.00
H851   H     0.17216   0.21828   0.53662   0.00000  Uiso   1.00
H852   H     0.29944   0.22266   0.49510   0.00000  Uiso   1.00
H853   H     0.29856   0.03505   0.43922   0.00000  Uiso   1.00
H854   H     0.30915   0.95663   0.42593   0.00000  Uiso   1.00
H855   H     0.26474   0.94906   0.43674   0.00000  Uiso   1.00
H856   H     0.84845   0.29712   0.14928   0.00000  Uiso   1.00
H857   H     0.88648   0.27128   0.15299   0.00000  Uiso   1.00
H858   H     0.92970   0.33723   0.16788   0.00000  Uiso   1.00
H859   H     0.89153   0.36283   0.16537   0.00000  Uiso   1.00
H860   H     0.91166   0.55777   0.38912   0.00000  Uiso   1.00
H861   H     0.93296   0.55799   0.34865   0.00000  Uiso   1.00
H862   H     0.00372   0.56673   0.38541   0.00000  Uiso   1.00
H863   H     0.98206   0.56726   0.42643   0.00000  Uiso   1.00
F71    F     0.24357   1.01676   0.38826   0.00000  Uiso   1.00
F72    F     0.22443   0.99367   0.35894   0.00000  Uiso   1.00
H864   H     0.34270   0.98450   0.42086   0.00000  Uiso   1.00
O36    O     0.66708   0.14909   0.02046   0.00000  Uiso   1.00
C1369  C     0.66845   0.43417   0.26624   0.00000  Uiso   1.00
C1370  C     0.73427   0.55220   0.48009   0.00000  Uiso   1.00
C1371  C     0.71108   0.56039   0.48671   0.00000  Uiso   1.00
C1372  C     0.70843   0.57727   0.50568   0.00000  Uiso   1.00
C1373  C     0.72930   0.58781   0.51612   0.00000  Uiso   1.00
C1374  C     0.75246   0.58009   0.50899   0.00000  Uiso   1.00
C1375  C     0.75504   0.56123   0.49189   0.00000  Uiso   1.00
C1376  C     0.77869   0.95124   0.01069   0.00000  Uiso   1.00
C1377  C     0.80047   0.93795   0.01319   0.00000  Uiso   1.00
C1378  C     0.82297   0.94991   0.01111   0.00000  Uiso   1.00
C1379  C     0.80165   0.98755   0.00340   0.00000  Uiso   1.00
C1380  C     0.82377   0.97492   0.00590   0.00000  Uiso   1.00
C1381  C     0.84587   0.98750   0.00278   0.00000  Uiso   1.00
C1382  C     0.76179   0.24482   0.41616   0.00000  Uiso   1.00
C1383  C     0.77377   0.23979   0.43831   0.00000  Uiso   1.00
C1384  C     0.76185   0.24510   0.46020   0.00000  Uiso   1.00
C1385  C     0.79735   0.22974   0.43958   0.00000  Uiso   1.00
C1386  C     0.80862   0.22612   0.46241   0.00000  Uiso   1.00
C1387  C     0.79596   0.23226   0.48384   0.00000  Uiso   1.00
C1388  C     0.69537   0.26235   0.50769   0.00000  Uiso   1.00
C1389  C     0.69548   0.23869   0.51711   0.00000  Uiso   1.00
C1390  C     0.75067   0.91901   0.32049   0.00000  Uiso   1.00
C1391  C     0.70867   0.01557   0.56055   0.00000  Uiso   1.00
C1392  C     0.69311   0.99606   0.56635   0.00000  Uiso   1.00
C1393  C     0.70287   0.97244   0.56796   0.00000  Uiso   1.00
C1394  C     0.72740   0.96826   0.56205   0.00000  Uiso   1.00
N145   N     0.78009   0.97572   0.00692   0.00000  Uiso   1.00
N146   N     0.77308   0.24103   0.48185   0.00000  Uiso   1.00
N147   N     0.06761   0.28918   0.83700   0.00000  Uiso   1.00
C1395  C     0.13212   0.33153   0.84306   0.00000  Uiso   1.00
C1396  C     0.13335   0.30617   0.84638   0.00000  Uiso   1.00
C1397  C     0.11234   0.29186   0.84439   0.00000  Uiso   1.00
C1398  C     0.08976   0.30285   0.83915   0.00000  Uiso   1.00
C1399  C     0.08855   0.32811   0.83603   0.00000  Uiso   1.00
C1400  C     0.10955   0.34230   0.83767   0.00000  Uiso   1.00
C1401  C     0.05444   0.56314   0.58987   0.00000  Uiso   1.00
C1402  C     0.06771   0.56020   0.61156   0.00000  Uiso   1.00
C1403  C     0.05587   0.56023   0.63397   0.00000  Uiso   1.00
C1404  C     0.03060   0.56297   0.63533   0.00000  Uiso   1.00
C1405  C     0.01698   0.56514   0.61371   0.00000  Uiso   1.00
C1406  C     0.02892   0.56533   0.59110   0.00000  Uiso   1.00
N148   N     0.97985   0.43571   0.65920   0.00000  Uiso   1.00
H865   H     0.66993   0.41723   0.25429   0.00000  Uiso   1.00
H866   H     0.73638   0.53808   0.46499   0.00000  Uiso   1.00
H867   H     0.69431   0.55334   0.47667   0.00000  Uiso   1.00
H868   H     0.72735   0.60271   0.53046   0.00000  Uiso   1.00
H869   H     0.76936   0.58910   0.51705   0.00000  Uiso   1.00
H870   H     0.79980   0.91751   0.01688   0.00000  Uiso   1.00
H871   H     0.84065   0.93929   0.01367   0.00000  Uiso   1.00
H872   H     0.86393   0.97741   0.00474   0.00000  Uiso   1.00
H873   H     0.77111   0.24052   0.39809   0.00000  Uiso   1.00
H874   H     0.80737   0.22452   0.42214   0.00000  Uiso   1.00
H875   H     0.82784   0.21828   0.46338   0.00000  Uiso   1.00
H876   H     0.70056   0.22266   0.50490   0.00000  Uiso   1.00
H877   H     0.70144   0.03505   0.56078   0.00000  Uiso   1.00
H878   H     0.69085   0.95663   0.57407   0.00000  Uiso   1.00
H879   H     0.73526   0.94906   0.56326   0.00000  Uiso   1.00
H880   H     0.15155   0.29712   0.85072   0.00000  Uiso   1.00
H881   H     0.11352   0.27128   0.84701   0.00000  Uiso   1.00
H882   H     0.07030   0.33723   0.83212   0.00000  Uiso   1.00
H883   H     0.10847   0.36283   0.83463   0.00000  Uiso   1.00
H884   H     0.08834   0.55777   0.61088   0.00000  Uiso   1.00
H885   H     0.06704   0.55799   0.65135   0.00000  Uiso   1.00
H886   H     0.99628   0.56673   0.61459   0.00000  Uiso   1.00
H887   H     0.01794   0.56726   0.57357   0.00000  Uiso   1.00
F73    F     0.75643   1.01676   0.61174   0.00000  Uiso   1.00
F74    F     0.77557   0.99367   0.64106   0.00000  Uiso   1.00
H888   H     0.65730   0.98450   0.57914   0.00000  Uiso   1.00
O37    O     0.33292   0.14909   0.97954   0.00000  Uiso   1.00
C1407  C     0.66845   0.93417   0.76624   0.00000  Uiso   1.00
C1408  C     0.73427   0.05220   0.98009   0.00000  Uiso   1.00
C1409  C     0.71108   0.06039   0.98671   0.00000  Uiso   1.00
C1410  C     0.70843   0.07727   0.00568   0.00000  Uiso   1.00
C1411  C     0.72930   0.08781   0.01612   0.00000  Uiso   1.00
C1412  C     0.75246   0.08009   0.00899   0.00000  Uiso   1.00
C1413  C     0.75504   0.06123   0.99189   0.00000  Uiso   1.00
C1414  C     0.77869   0.45124   0.51069   0.00000  Uiso   1.00
C1415  C     0.80047   0.43795   0.51319   0.00000  Uiso   1.00
C1416  C     0.82297   0.44991   0.51111   0.00000  Uiso   1.00
C1417  C     0.80165   0.48755   0.50340   0.00000  Uiso   1.00
C1418  C     0.82377   0.47492   0.50590   0.00000  Uiso   1.00
C1419  C     0.84587   0.48750   0.50278   0.00000  Uiso   1.00
C1420  C     0.76179   0.74482   0.91616   0.00000  Uiso   1.00
C1421  C     0.77377   0.73979   0.93831   0.00000  Uiso   1.00
C1422  C     0.76185   0.74510   0.96020   0.00000  Uiso   1.00
C1423  C     0.79735   0.72974   0.93958   0.00000  Uiso   1.00
C1424  C     0.80862   0.72612   0.96241   0.00000  Uiso   1.00
C1425  C     0.79596   0.73226   0.98384   0.00000  Uiso   1.00
C1426  C     0.69537   0.76235   0.00769   0.00000  Uiso   1.00
C1427  C     0.69548   0.73869   0.01711   0.00000  Uiso   1.00
C1428  C     0.75067   0.41901   0.82049   0.00000  Uiso   1.00
C1429  C     0.70867   0.51557   0.06055   0.00000  Uiso   1.00
C1430  C     0.69311   0.49606   0.06635   0.00000  Uiso   1.00
C1431  C     0.70287   0.47244   0.06796   0.00000  Uiso   1.00
C1432  C     0.72740   0.46826   0.06205   0.00000  Uiso   1.00
N149   N     0.78009   0.47572   0.50692   0.00000  Uiso   1.00
N150   N     0.77308   0.74103   0.98185   0.00000  Uiso   1.00
N151   N     0.06761   0.78918   0.33700   0.00000  Uiso   1.00
C1433  C     0.13212   0.83153   0.34306   0.00000  Uiso   1.00
C1434  C     0.13335   0.80617   0.34638   0.00000  Uiso   1.00
C1435  C     0.11234   0.79186   0.34439   0.00000  Uiso   1.00
C1436  C     0.08976   0.80285   0.33915   0.00000  Uiso   1.00
C1437  C     0.08855   0.82811   0.33603   0.00000  Uiso   1.00
C1438  C     0.10955   0.84230   0.33767   0.00000  Uiso   1.00
C1439  C     0.05444   0.06314   0.08987   0.00000  Uiso   1.00
C1440  C     0.06771   0.06020   0.11156   0.00000  Uiso   1.00
C1441  C     0.05587   0.06023   0.13397   0.00000  Uiso   1.00
C1442  C     0.03060   0.06297   0.13533   0.00000  Uiso   1.00
C1443  C     0.01698   0.06514   0.11371   0.00000  Uiso   1.00
C1444  C     0.02892   0.06533   0.09110   0.00000  Uiso   1.00
N152   N     0.97985   0.93571   0.15920   0.00000  Uiso   1.00
H889   H     0.66993   0.91723   0.75429   0.00000  Uiso   1.00
H890   H     0.73638   0.03808   0.96499   0.00000  Uiso   1.00
H891   H     0.69431   0.05334   0.97667   0.00000  Uiso   1.00
H892   H     0.72735   0.10271   0.03046   0.00000  Uiso   1.00
H893   H     0.76936   0.08910   0.01705   0.00000  Uiso   1.00
H894   H     0.79980   0.41751   0.51688   0.00000  Uiso   1.00
H895   H     0.84065   0.43929   0.51367   0.00000  Uiso   1.00
H896   H     0.86393   0.47741   0.50474   0.00000  Uiso   1.00
H897   H     0.77111   0.74052   0.89809   0.00000  Uiso   1.00
H898   H     0.80737   0.72452   0.92214   0.00000  Uiso   1.00
H899   H     0.82784   0.71828   0.96338   0.00000  Uiso   1.00
H900   H     0.70056   0.72266   0.00490   0.00000  Uiso   1.00
H901   H     0.70144   0.53505   0.06078   0.00000  Uiso   1.00
H902   H     0.69085   0.45663   0.07407   0.00000  Uiso   1.00
H903   H     0.73526   0.44906   0.06326   0.00000  Uiso   1.00
H904   H     0.15155   0.79712   0.35072   0.00000  Uiso   1.00
H905   H     0.11352   0.77128   0.34701   0.00000  Uiso   1.00
H906   H     0.07030   0.83723   0.33212   0.00000  Uiso   1.00
H907   H     0.10847   0.86283   0.33463   0.00000  Uiso   1.00
H908   H     0.08834   0.05777   0.11088   0.00000  Uiso   1.00
H909   H     0.06704   0.05799   0.15135   0.00000  Uiso   1.00
H910   H     0.99628   0.06673   0.11459   0.00000  Uiso   1.00
H911   H     0.01794   0.06726   0.07357   0.00000  Uiso   1.00
F75    F     0.75643   0.51676   0.11174   0.00000  Uiso   1.00
F76    F     0.77557   0.49367   0.14106   0.00000  Uiso   1.00
H912   H     0.65730   0.48450   0.07914   0.00000  Uiso   1.00
O38    O     0.33292   0.64909   0.47954   0.00000  Uiso   1.00
C1445  C     0.16845   0.43417   0.76624   0.00000  Uiso   1.00
C1446  C     0.23427   0.55220   0.98009   0.00000  Uiso   1.00
C1447  C     0.21108   0.56039   0.98671   0.00000  Uiso   1.00
C1448  C     0.20843   0.57727   0.00568   0.00000  Uiso   1.00
C1449  C     0.22930   0.58781   0.01612   0.00000  Uiso   1.00
C1450  C     0.25246   0.58009   0.00899   0.00000  Uiso   1.00
C1451  C     0.25504   0.56123   0.99189   0.00000  Uiso   1.00
C1452  C     0.27869   0.95124   0.51069   0.00000  Uiso   1.00
C1453  C     0.30047   0.93795   0.51319   0.00000  Uiso   1.00
C1454  C     0.32297   0.94991   0.51111   0.00000  Uiso   1.00
C1455  C     0.30165   0.98755   0.50340   0.00000  Uiso   1.00
C1456  C     0.32377   0.97492   0.50590   0.00000  Uiso   1.00
C1457  C     0.34587   0.98750   0.50278   0.00000  Uiso   1.00
C1458  C     0.26179   0.24482   0.91616   0.00000  Uiso   1.00
C1459  C     0.27377   0.23979   0.93831   0.00000  Uiso   1.00
C1460  C     0.26185   0.24510   0.96020   0.00000  Uiso   1.00
C1461  C     0.29735   0.22974   0.93958   0.00000  Uiso   1.00
C1462  C     0.30862   0.22612   0.96241   0.00000  Uiso   1.00
C1463  C     0.29596   0.23226   0.98384   0.00000  Uiso   1.00
C1464  C     0.19537   0.26235   0.00769   0.00000  Uiso   1.00
C1465  C     0.19548   0.23869   0.01711   0.00000  Uiso   1.00
C1466  C     0.25067   0.91901   0.82049   0.00000  Uiso   1.00
C1467  C     0.20867   0.01557   0.06055   0.00000  Uiso   1.00
C1468  C     0.19311   0.99606   0.06635   0.00000  Uiso   1.00
C1469  C     0.20287   0.97244   0.06796   0.00000  Uiso   1.00
C1470  C     0.22740   0.96826   0.06205   0.00000  Uiso   1.00
N153   N     0.28009   0.97572   0.50692   0.00000  Uiso   1.00
N154   N     0.27308   0.24103   0.98185   0.00000  Uiso   1.00
N155   N     0.56761   0.28918   0.33700   0.00000  Uiso   1.00
C1471  C     0.63212   0.33153   0.34306   0.00000  Uiso   1.00
C1472  C     0.63335   0.30617   0.34638   0.00000  Uiso   1.00
C1473  C     0.61234   0.29186   0.34439   0.00000  Uiso   1.00
C1474  C     0.58976   0.30285   0.33915   0.00000  Uiso   1.00
C1475  C     0.58855   0.32811   0.33603   0.00000  Uiso   1.00
C1476  C     0.60955   0.34230   0.33767   0.00000  Uiso   1.00
C1477  C     0.55444   0.56314   0.08987   0.00000  Uiso   1.00
C1478  C     0.56771   0.56020   0.11156   0.00000  Uiso   1.00
C1479  C     0.55587   0.56023   0.13397   0.00000  Uiso   1.00
C1480  C     0.53060   0.56297   0.13533   0.00000  Uiso   1.00
C1481  C     0.51698   0.56514   0.11371   0.00000  Uiso   1.00
C1482  C     0.52892   0.56533   0.09110   0.00000  Uiso   1.00
N156   N     0.47985   0.43571   0.15920   0.00000  Uiso   1.00
H913   H     0.16993   0.41723   0.75429   0.00000  Uiso   1.00
H914   H     0.23638   0.53808   0.96499   0.00000  Uiso   1.00
H915   H     0.19431   0.55334   0.97667   0.00000  Uiso   1.00
H916   H     0.22735   0.60271   0.03046   0.00000  Uiso   1.00
H917   H     0.26936   0.58910   0.01705   0.00000  Uiso   1.00
H918   H     0.29980   0.91751   0.51688   0.00000  Uiso   1.00
H919   H     0.34065   0.93929   0.51367   0.00000  Uiso   1.00
H920   H     0.36393   0.97741   0.50474   0.00000  Uiso   1.00
H921   H     0.27111   0.24052   0.89809   0.00000  Uiso   1.00
H922   H     0.30737   0.22452   0.92214   0.00000  Uiso   1.00
H923   H     0.32784   0.21828   0.96338   0.00000  Uiso   1.00
H924   H     0.20056   0.22266   0.00490   0.00000  Uiso   1.00
H925   H     0.20144   0.03505   0.06078   0.00000  Uiso   1.00
H926   H     0.19085   0.95663   0.07407   0.00000  Uiso   1.00
H927   H     0.23526   0.94906   0.06326   0.00000  Uiso   1.00
H928   H     0.65155   0.29712   0.35072   0.00000  Uiso   1.00
H929   H     0.61352   0.27128   0.34701   0.00000  Uiso   1.00
H930   H     0.57030   0.33723   0.33212   0.00000  Uiso   1.00
H931   H     0.60847   0.36283   0.33463   0.00000  Uiso   1.00
H932   H     0.58834   0.55777   0.11088   0.00000  Uiso   1.00
H933   H     0.56704   0.55799   0.15135   0.00000  Uiso   1.00
H934   H     0.49628   0.56673   0.11459   0.00000  Uiso   1.00
H935   H     0.51794   0.56726   0.07357   0.00000  Uiso   1.00
F77    F     0.25643   1.01676   0.11174   0.00000  Uiso   1.00
F78    F     0.27557   0.99367   0.14106   0.00000  Uiso   1.00
H936   H     0.15730   0.98450   0.07914   0.00000  Uiso   1.00
O39    O     0.83292   0.14909   0.47954   0.00000  Uiso   1.00
C1483  C     0.16845   0.93417   0.26624   0.00000  Uiso   1.00
C1484  C     0.23427   0.05220   0.48009   0.00000  Uiso   1.00
C1485  C     0.21108   0.06039   0.48671   0.00000  Uiso   1.00
C1486  C     0.20843   0.07727   0.50568   0.00000  Uiso   1.00
C1487  C     0.22930   0.08781   0.51612   0.00000  Uiso   1.00
C1488  C     0.25246   0.08009   0.50899   0.00000  Uiso   1.00
C1489  C     0.25504   0.06123   0.49189   0.00000  Uiso   1.00
C1490  C     0.27869   0.45124   0.01069   0.00000  Uiso   1.00
C1491  C     0.30047   0.43795   0.01319   0.00000  Uiso   1.00
C1492  C     0.32297   0.44991   0.01111   0.00000  Uiso   1.00
C1493  C     0.30165   0.48755   0.00340   0.00000  Uiso   1.00
C1494  C     0.32377   0.47492   0.00590   0.00000  Uiso   1.00
C1495  C     0.34587   0.48750   0.00278   0.00000  Uiso   1.00
C1496  C     0.26179   0.74482   0.41616   0.00000  Uiso   1.00
C1497  C     0.27377   0.73979   0.43831   0.00000  Uiso   1.00
C1498  C     0.26185   0.74510   0.46020   0.00000  Uiso   1.00
C1499  C     0.29735   0.72974   0.43958   0.00000  Uiso   1.00
C1500  C     0.30862   0.72612   0.46241   0.00000  Uiso   1.00
C1501  C     0.29596   0.73226   0.48384   0.00000  Uiso   1.00
C1502  C     0.19537   0.76235   0.50769   0.00000  Uiso   1.00
C1503  C     0.19548   0.73869   0.51711   0.00000  Uiso   1.00
C1504  C     0.25067   0.41901   0.32049   0.00000  Uiso   1.00
C1505  C     0.20867   0.51557   0.56055   0.00000  Uiso   1.00
C1506  C     0.19311   0.49606   0.56635   0.00000  Uiso   1.00
C1507  C     0.20287   0.47244   0.56796   0.00000  Uiso   1.00
C1508  C     0.22740   0.46826   0.56205   0.00000  Uiso   1.00
N157   N     0.28009   0.47572   0.00692   0.00000  Uiso   1.00
N158   N     0.27308   0.74103   0.48185   0.00000  Uiso   1.00
N159   N     0.56761   0.78918   0.83700   0.00000  Uiso   1.00
C1509  C     0.63212   0.83153   0.84306   0.00000  Uiso   1.00
C1510  C     0.63335   0.80617   0.84638   0.00000  Uiso   1.00
C1511  C     0.61234   0.79186   0.84439   0.00000  Uiso   1.00
C1512  C     0.58976   0.80285   0.83915   0.00000  Uiso   1.00
C1513  C     0.58855   0.82811   0.83603   0.00000  Uiso   1.00
C1514  C     0.60955   0.84230   0.83767   0.00000  Uiso   1.00
C1515  C     0.55444   0.06314   0.58987   0.00000  Uiso   1.00
C1516  C     0.56771   0.06020   0.61156   0.00000  Uiso   1.00
C1517  C     0.55587   0.06023   0.63397   0.00000  Uiso   1.00
C1518  C     0.53060   0.06297   0.63533   0.00000  Uiso   1.00
C1519  C     0.51698   0.06514   0.61371   0.00000  Uiso   1.00
C1520  C     0.52892   0.06533   0.59110   0.00000  Uiso   1.00
N160   N     0.47985   0.93571   0.65920   0.00000  Uiso   1.00
H937   H     0.16993   0.91723   0.25429   0.00000  Uiso   1.00
H938   H     0.23638   0.03808   0.46499   0.00000  Uiso   1.00
H939   H     0.19431   0.05334   0.47667   0.00000  Uiso   1.00
H940   H     0.22735   0.10271   0.53046   0.00000  Uiso   1.00
H941   H     0.26936   0.08910   0.51705   0.00000  Uiso   1.00
H942   H     0.29980   0.41751   0.01688   0.00000  Uiso   1.00
H943   H     0.34065   0.43929   0.01367   0.00000  Uiso   1.00
H944   H     0.36393   0.47741   0.00474   0.00000  Uiso   1.00
H945   H     0.27111   0.74052   0.39809   0.00000  Uiso   1.00
H946   H     0.30737   0.72452   0.42214   0.00000  Uiso   1.00
H947   H     0.32784   0.71828   0.46338   0.00000  Uiso   1.00
H948   H     0.20056   0.72266   0.50490   0.00000  Uiso   1.00
H949   H     0.20144   0.53505   0.56078   0.00000  Uiso   1.00
H950   H     0.19085   0.45663   0.57407   0.00000  Uiso   1.00
H951   H     0.23526   0.44906   0.56326   0.00000  Uiso   1.00
H952   H     0.65155   0.79712   0.85072   0.00000  Uiso   1.00
H953   H     0.61352   0.77128   0.84701   0.00000  Uiso   1.00
H954   H     0.57030   0.83723   0.83212   0.00000  Uiso   1.00
H955   H     0.60847   0.86283   0.83463   0.00000  Uiso   1.00
H956   H     0.58834   0.05777   0.61088   0.00000  Uiso   1.00
H957   H     0.56704   0.05799   0.65135   0.00000  Uiso   1.00
H958   H     0.49628   0.06673   0.61459   0.00000  Uiso   1.00
H959   H     0.51794   0.06726   0.57357   0.00000  Uiso   1.00
F79    F     0.25643   0.51676   0.61174   0.00000  Uiso   1.00
F80    F     0.27557   0.49367   0.64106   0.00000  Uiso   1.00
H960   H     0.15730   0.48450   0.57914   0.00000  Uiso   1.00
O40    O     0.83292   0.64909   0.97954   0.00000  Uiso   1.00
C1521  C     0.33155   0.06583   0.76624   0.00000  Uiso   1.00
C1522  C     0.26573   0.94780   0.98009   0.00000  Uiso   1.00
C1523  C     0.28892   0.93961   0.98671   0.00000  Uiso   1.00
C1524  C     0.29157   0.92273   0.00568   0.00000  Uiso   1.00
C1525  C     0.27070   0.91219   0.01612   0.00000  Uiso   1.00
C1526  C     0.24754   0.91991   0.00899   0.00000  Uiso   1.00
C1527  C     0.24496   0.93877   0.99189   0.00000  Uiso   1.00
C1528  C     0.22131   0.54876   0.51069   0.00000  Uiso   1.00
C1529  C     0.19953   0.56205   0.51319   0.00000  Uiso   1.00
C1530  C     0.17703   0.55009   0.51111   0.00000  Uiso   1.00
C1531  C     0.19835   0.51245   0.50340   0.00000  Uiso   1.00
C1532  C     0.17623   0.52508   0.50590   0.00000  Uiso   1.00
C1533  C     0.15413   0.51250   0.50278   0.00000  Uiso   1.00
C1534  C     0.23821   0.25518   0.91616   0.00000  Uiso   1.00
C1535  C     0.22623   0.26021   0.93831   0.00000  Uiso   1.00
C1536  C     0.23815   0.25490   0.96020   0.00000  Uiso   1.00
C1537  C     0.20265   0.27026   0.93958   0.00000  Uiso   1.00
C1538  C     0.19138   0.27388   0.96241   0.00000  Uiso   1.00
C1539  C     0.20404   0.26774   0.98384   0.00000  Uiso   1.00
C1540  C     0.30463   0.23765   0.00769   0.00000  Uiso   1.00
C1541  C     0.30452   0.26131   0.01711   0.00000  Uiso   1.00
C1542  C     0.24933   0.58099   0.82049   0.00000  Uiso   1.00
C1543  C     0.29133   0.48443   0.06055   0.00000  Uiso   1.00
C1544  C     0.30689   0.50394   0.06635   0.00000  Uiso   1.00
C1545  C     0.29713   0.52756   0.06796   0.00000  Uiso   1.00
C1546  C     0.27260   0.53174   0.06205   0.00000  Uiso   1.00
N161   N     0.21991   0.52428   0.50692   0.00000  Uiso   1.00
N162   N     0.22692   0.25897   0.98185   0.00000  Uiso   1.00
N163   N     0.93239   0.21082   0.33700   0.00000  Uiso   1.00
C1547  C     0.86788   0.16847   0.34306   0.00000  Uiso   1.00
C1548  C     0.86665   0.19383   0.34638   0.00000  Uiso   1.00
C1549  C     0.88766   0.20814   0.34439   0.00000  Uiso   1.00
C1550  C     0.91024   0.19715   0.33915   0.00000  Uiso   1.00
C1551  C     0.91145   0.17189   0.33603   0.00000  Uiso   1.00
C1552  C     0.89045   0.15770   0.33767   0.00000  Uiso   1.00
C1553  C     0.94556   0.93686   0.08987   0.00000  Uiso   1.00
C1554  C     0.93229   0.93980   0.11156   0.00000  Uiso   1.00
C1555  C     0.94413   0.93977   0.13397   0.00000  Uiso   1.00
C1556  C     0.96940   0.93703   0.13533   0.00000  Uiso   1.00
C1557  C     0.98302   0.93486   0.11371   0.00000  Uiso   1.00
C1558  C     0.97108   0.93467   0.09110   0.00000  Uiso   1.00
N164   N     0.02015   0.06429   0.15920   0.00000  Uiso   1.00
H961   H     0.33007   0.08277   0.75429   0.00000  Uiso   1.00
H962   H     0.26362   0.96192   0.96499   0.00000  Uiso   1.00
H963   H     0.30569   0.94666   0.97667   0.00000  Uiso   1.00
H964   H     0.27265   0.89729   0.03046   0.00000  Uiso   1.00
H965   H     0.23064   0.91090   0.01705   0.00000  Uiso   1.00
H966   H     0.20020   0.58249   0.51688   0.00000  Uiso   1.00
H967   H     0.15935   0.56071   0.51367   0.00000  Uiso   1.00
H968   H     0.13607   0.52259   0.50474   0.00000  Uiso   1.00
H969   H     0.22889   0.25948   0.89809   0.00000  Uiso   1.00
H970   H     0.19263   0.27548   0.92214   0.00000  Uiso   1.00
H971   H     0.17216   0.28172   0.96338   0.00000  Uiso   1.00
H972   H     0.29944   0.27734   0.00490   0.00000  Uiso   1.00
H973   H     0.29856   0.46495   0.06078   0.00000  Uiso   1.00
H974   H     0.30915   0.54337   0.07407   0.00000  Uiso   1.00
H975   H     0.26474   0.55094   0.06326   0.00000  Uiso   1.00
H976   H     0.84845   0.20288   0.35072   0.00000  Uiso   1.00
H977   H     0.88648   0.22872   0.34701   0.00000  Uiso   1.00
H978   H     0.92970   0.16277   0.33212   0.00000  Uiso   1.00
H979   H     0.89153   0.13717   0.33463   0.00000  Uiso   1.00
H980   H     0.91166   0.94223   0.11088   0.00000  Uiso   1.00
H981   H     0.93296   0.94201   0.15135   0.00000  Uiso   1.00
H982   H     0.00372   0.93327   0.11459   0.00000  Uiso   1.00
H983   H     0.98206   0.93274   0.07357   0.00000  Uiso   1.00
F81    F     0.24357   0.48324   0.11174   0.00000  Uiso   1.00
F82    F     0.22443   0.50633   0.14106   0.00000  Uiso   1.00
H984   H     0.34270   0.51550   0.07914   0.00000  Uiso   1.00
O41    O     0.66708   0.35091   0.47954   0.00000  Uiso   1.00
C1559  C     0.33155   0.56583   0.26624   0.00000  Uiso   1.00
C1560  C     0.26573   0.44780   0.48009   0.00000  Uiso   1.00
C1561  C     0.28892   0.43961   0.48671   0.00000  Uiso   1.00
C1562  C     0.29157   0.42273   0.50568   0.00000  Uiso   1.00
C1563  C     0.27070   0.41219   0.51612   0.00000  Uiso   1.00
C1564  C     0.24754   0.41991   0.50899   0.00000  Uiso   1.00
C1565  C     0.24496   0.43877   0.49189   0.00000  Uiso   1.00
C1566  C     0.22131   0.04876   0.01069   0.00000  Uiso   1.00
C1567  C     0.19953   0.06205   0.01319   0.00000  Uiso   1.00
C1568  C     0.17703   0.05009   0.01111   0.00000  Uiso   1.00
C1569  C     0.19835   0.01245   0.00340   0.00000  Uiso   1.00
C1570  C     0.17623   0.02508   0.00590   0.00000  Uiso   1.00
C1571  C     0.15413   0.01250   0.00278   0.00000  Uiso   1.00
C1572  C     0.23821   0.75518   0.41616   0.00000  Uiso   1.00
C1573  C     0.22623   0.76021   0.43831   0.00000  Uiso   1.00
C1574  C     0.23815   0.75490   0.46020   0.00000  Uiso   1.00
C1575  C     0.20265   0.77026   0.43958   0.00000  Uiso   1.00
C1576  C     0.19138   0.77388   0.46241   0.00000  Uiso   1.00
C1577  C     0.20404   0.76774   0.48384   0.00000  Uiso   1.00
C1578  C     0.30463   0.73765   0.50769   0.00000  Uiso   1.00
C1579  C     0.30452   0.76131   0.51711   0.00000  Uiso   1.00
C1580  C     0.24933   0.08099   0.32049   0.00000  Uiso   1.00
C1581  C     0.29133   0.98443   0.56055   0.00000  Uiso   1.00
C1582  C     0.30689   0.00394   0.56635   0.00000  Uiso   1.00
C1583  C     0.29713   0.02756   0.56796   0.00000  Uiso   1.00
C1584  C     0.27260   0.03174   0.56205   0.00000  Uiso   1.00
N165   N     0.21991   0.02428   0.00692   0.00000  Uiso   1.00
N166   N     0.22692   0.75897   0.48185   0.00000  Uiso   1.00
N167   N     0.93239   0.71082   0.83700   0.00000  Uiso   1.00
C1585  C     0.86788   0.66847   0.84306   0.00000  Uiso   1.00
C1586  C     0.86665   0.69383   0.84638   0.00000  Uiso   1.00
C1587  C     0.88766   0.70814   0.84439   0.00000  Uiso   1.00
C1588  C     0.91024   0.69715   0.83915   0.00000  Uiso   1.00
C1589  C     0.91145   0.67189   0.83603   0.00000  Uiso   1.00
C1590  C     0.89045   0.65770   0.83767   0.00000  Uiso   1.00
C1591  C     0.94556   0.43686   0.58987   0.00000  Uiso   1.00
C1592  C     0.93229   0.43980   0.61156   0.00000  Uiso   1.00
C1593  C     0.94413   0.43977   0.63397   0.00000  Uiso   1.00
C1594  C     0.96940   0.43703   0.63533   0.00000  Uiso   1.00
C1595  C     0.98302   0.43486   0.61371   0.00000  Uiso   1.00
C1596  C     0.97108   0.43467   0.59110   0.00000  Uiso   1.00
N168   N     0.02015   0.56429   0.65920   0.00000  Uiso   1.00
H985   H     0.33007   0.58277   0.25429   0.00000  Uiso   1.00
H986   H     0.26362   0.46192   0.46499   0.00000  Uiso   1.00
H987   H     0.30569   0.44666   0.47667   0.00000  Uiso   1.00
H988   H     0.27265   0.39729   0.53046   0.00000  Uiso   1.00
H989   H     0.23064   0.41090   0.51705   0.00000  Uiso   1.00
H990   H     0.20020   0.08249   0.01688   0.00000  Uiso   1.00
H991   H     0.15935   0.06071   0.01367   0.00000  Uiso   1.00
H992   H     0.13607   0.02259   0.00474   0.00000  Uiso   1.00
H993   H     0.22889   0.75948   0.39809   0.00000  Uiso   1.00
H994   H     0.19263   0.77548   0.42214   0.00000  Uiso   1.00
H995   H     0.17216   0.78172   0.46338   0.00000  Uiso   1.00
H996   H     0.29944   0.77734   0.50490   0.00000  Uiso   1.00
H997   H     0.29856   0.96495   0.56078   0.00000  Uiso   1.00
H998   H     0.30915   0.04337   0.57407   0.00000  Uiso   1.00
H999   H     0.26474   0.05094   0.56326   0.00000  Uiso   1.00
H1000  H     0.84845   0.70288   0.85072   0.00000  Uiso   1.00
H1001  H     0.88648   0.72872   0.84701   0.00000  Uiso   1.00
H1002  H     0.92970   0.66277   0.83212   0.00000  Uiso   1.00
H1003  H     0.89153   0.63717   0.83463   0.00000  Uiso   1.00
H1004  H     0.91166   0.44223   0.61088   0.00000  Uiso   1.00
H1005  H     0.93296   0.44201   0.65135   0.00000  Uiso   1.00
H1006  H     0.00372   0.43327   0.61459   0.00000  Uiso   1.00
H1007  H     0.98206   0.43274   0.57357   0.00000  Uiso   1.00
F83    F     0.24357  -0.01676   0.61174   0.00000  Uiso   1.00
F84    F     0.22443   0.00633   0.64106   0.00000  Uiso   1.00
H1008  H     0.34270   0.01550   0.57914   0.00000  Uiso   1.00
O42    O     0.66708   0.85091   0.97954   0.00000  Uiso   1.00
C1597  C     0.83155   0.06583   0.26624   0.00000  Uiso   1.00
C1598  C     0.76573   0.94780   0.48009   0.00000  Uiso   1.00
C1599  C     0.78892   0.93961   0.48671   0.00000  Uiso   1.00
C1600  C     0.79157   0.92273   0.50568   0.00000  Uiso   1.00
C1601  C     0.77070   0.91219   0.51612   0.00000  Uiso   1.00
C1602  C     0.74754   0.91991   0.50899   0.00000  Uiso   1.00
C1603  C     0.74496   0.93877   0.49189   0.00000  Uiso   1.00
C1604  C     0.72131   0.54876   0.01069   0.00000  Uiso   1.00
C1605  C     0.69953   0.56205   0.01319   0.00000  Uiso   1.00
C1606  C     0.67703   0.55009   0.01111   0.00000  Uiso   1.00
C1607  C     0.69835   0.51245   0.00340   0.00000  Uiso   1.00
C1608  C     0.67623   0.52508   0.00590   0.00000  Uiso   1.00
C1609  C     0.65413   0.51250   0.00278   0.00000  Uiso   1.00
C1610  C     0.73821   0.25518   0.41616   0.00000  Uiso   1.00
C1611  C     0.72623   0.26021   0.43831   0.00000  Uiso   1.00
C1612  C     0.73815   0.25490   0.46020   0.00000  Uiso   1.00
C1613  C     0.70265   0.27026   0.43958   0.00000  Uiso   1.00
C1614  C     0.69138   0.27388   0.46241   0.00000  Uiso   1.00
C1615  C     0.70404   0.26774   0.48384   0.00000  Uiso   1.00
C1616  C     0.80463   0.23765   0.50769   0.00000  Uiso   1.00
C1617  C     0.80452   0.26131   0.51711   0.00000  Uiso   1.00
C1618  C     0.74933   0.58099   0.32049   0.00000  Uiso   1.00
C1619  C     0.79133   0.48443   0.56055   0.00000  Uiso   1.00
C1620  C     0.80689   0.50394   0.56635   0.00000  Uiso   1.00
C1621  C     0.79713   0.52756   0.56796   0.00000  Uiso   1.00
C1622  C     0.77260   0.53174   0.56205   0.00000  Uiso   1.00
N169   N     0.71991   0.52428   0.00692   0.00000  Uiso   1.00
N170   N     0.72692   0.25897   0.48185   0.00000  Uiso   1.00
N171   N     0.43239   0.21082   0.83700   0.00000  Uiso   1.00
C1623  C     0.36788   0.16847   0.84306   0.00000  Uiso   1.00
C1624  C     0.36665   0.19383   0.84638   0.00000  Uiso   1.00
C1625  C     0.38766   0.20814   0.84439   0.00000  Uiso   1.00
C1626  C     0.41024   0.19715   0.83915   0.00000  Uiso   1.00
C1627  C     0.41145   0.17189   0.83603   0.00000  Uiso   1.00
C1628  C     0.39045   0.15770   0.83767   0.00000  Uiso   1.00
C1629  C     0.44556   0.93686   0.58987   0.00000  Uiso   1.00
C1630  C     0.43229   0.93980   0.61156   0.00000  Uiso   1.00
C1631  C     0.44413   0.93977   0.63397   0.00000  Uiso   1.00
C1632  C     0.46940   0.93703   0.63533   0.00000  Uiso   1.00
C1633  C     0.48302   0.93486   0.61371   0.00000  Uiso   1.00
C1634  C     0.47108   0.93467   0.59110   0.00000  Uiso   1.00
N172   N     0.52015   0.06429   0.65920   0.00000  Uiso   1.00
H1009  H     0.83007   0.08277   0.25429   0.00000  Uiso   1.00
H1010  H     0.76362   0.96192   0.46499   0.00000  Uiso   1.00
H1011  H     0.80569   0.94666   0.47667   0.00000  Uiso   1.00
H1012  H     0.77265   0.89729   0.53046   0.00000  Uiso   1.00
H1013  H     0.73064   0.91090   0.51705   0.00000  Uiso   1.00
H1014  H     0.70020   0.58249   0.01688   0.00000  Uiso   1.00
H1015  H     0.65935   0.56071   0.01367   0.00000  Uiso   1.00
H1016  H     0.63607   0.52259   0.00474   0.00000  Uiso   1.00
H1017  H     0.72889   0.25948   0.39809   0.00000  Uiso   1.00
H1018  H     0.69263   0.27548   0.42214   0.00000  Uiso   1.00
H1019  H     0.67216   0.28172   0.46338   0.00000  Uiso   1.00
H1020  H     0.79944   0.27734   0.50490   0.00000  Uiso   1.00
H1021  H     0.79856   0.46495   0.56078   0.00000  Uiso   1.00
H1022  H     0.80915   0.54337   0.57407   0.00000  Uiso   1.00
H1023  H     0.76474   0.55094   0.56326   0.00000  Uiso   1.00
H1024  H     0.34845   0.20288   0.85072   0.00000  Uiso   1.00
H1025  H     0.38648   0.22872   0.84701   0.00000  Uiso   1.00
H1026  H     0.42970   0.16277   0.83212   0.00000  Uiso   1.00
H1027  H     0.39153   0.13717   0.83463   0.00000  Uiso   1.00
H1028  H     0.41166   0.94223   0.61088   0.00000  Uiso   1.00
H1029  H     0.43296   0.94201   0.65135   0.00000  Uiso   1.00
H1030  H     0.50372   0.93327   0.61459   0.00000  Uiso   1.00
H1031  H     0.48206   0.93274   0.57357   0.00000  Uiso   1.00
F85    F     0.74357   0.48324   0.61174   0.00000  Uiso   1.00
F86    F     0.72443   0.50633   0.64106   0.00000  Uiso   1.00
H1032  H     0.84270   0.51550   0.57914   0.00000  Uiso   1.00
O43    O     0.16708   0.35091   0.97954   0.00000  Uiso   1.00
C1635  C     0.83155   0.56583   0.76624   0.00000  Uiso   1.00
C1636  C     0.76573   0.44780   0.98009   0.00000  Uiso   1.00
C1637  C     0.78892   0.43961   0.98671   0.00000  Uiso   1.00
C1638  C     0.79157   0.42273   0.00568   0.00000  Uiso   1.00
C1639  C     0.77070   0.41219   0.01612   0.00000  Uiso   1.00
C1640  C     0.74754   0.41991   0.00899   0.00000  Uiso   1.00
C1641  C     0.74496   0.43877   0.99189   0.00000  Uiso   1.00
C1642  C     0.72131   0.04876   0.51069   0.00000  Uiso   1.00
C1643  C     0.69953   0.06205   0.51319   0.00000  Uiso   1.00
C1644  C     0.67703   0.05009   0.51111   0.00000  Uiso   1.00
C1645  C     0.69835   0.01245   0.50340   0.00000  Uiso   1.00
C1646  C     0.67623   0.02508   0.50590   0.00000  Uiso   1.00
C1647  C     0.65413   0.01250   0.50278   0.00000  Uiso   1.00
C1648  C     0.73821   0.75518   0.91616   0.00000  Uiso   1.00
C1649  C     0.72623   0.76021   0.93831   0.00000  Uiso   1.00
C1650  C     0.73815   0.75490   0.96020   0.00000  Uiso   1.00
C1651  C     0.70265   0.77026   0.93958   0.00000  Uiso   1.00
C1652  C     0.69138   0.77388   0.96241   0.00000  Uiso   1.00
C1653  C     0.70404   0.76774   0.98384   0.00000  Uiso   1.00
C1654  C     0.80463   0.73765   0.00769   0.00000  Uiso   1.00
C1655  C     0.80452   0.76131   0.01711   0.00000  Uiso   1.00
C1656  C     0.74933   0.08099   0.82049   0.00000  Uiso   1.00
C1657  C     0.79133   0.98443   0.06055   0.00000  Uiso   1.00
C1658  C     0.80689   0.00394   0.06635   0.00000  Uiso   1.00
C1659  C     0.79713   0.02756   0.06796   0.00000  Uiso   1.00
C1660  C     0.77260   0.03174   0.06205   0.00000  Uiso   1.00
N173   N     0.71991   0.02428   0.50692   0.00000  Uiso   1.00
N174   N     0.72692   0.75897   0.98185   0.00000  Uiso   1.00
N175   N     0.43239   0.71082   0.33700   0.00000  Uiso   1.00
C1661  C     0.36788   0.66847   0.34306   0.00000  Uiso   1.00
C1662  C     0.36665   0.69383   0.34638   0.00000  Uiso   1.00
C1663  C     0.38766   0.70814   0.34439   0.00000  Uiso   1.00
C1664  C     0.41024   0.69715   0.33915   0.00000  Uiso   1.00
C1665  C     0.41145   0.67189   0.33603   0.00000  Uiso   1.00
C1666  C     0.39045   0.65770   0.33767   0.00000  Uiso   1.00
C1667  C     0.44556   0.43686   0.08987   0.00000  Uiso   1.00
C1668  C     0.43229   0.43980   0.11156   0.00000  Uiso   1.00
C1669  C     0.44413   0.43977   0.13397   0.00000  Uiso   1.00
C1670  C     0.46940   0.43703   0.13533   0.00000  Uiso   1.00
C1671  C     0.48302   0.43486   0.11371   0.00000  Uiso   1.00
C1672  C     0.47108   0.43467   0.09110   0.00000  Uiso   1.00
N176   N     0.52015   0.56429   0.15920   0.00000  Uiso   1.00
H1033  H     0.83007   0.58277   0.75429   0.00000  Uiso   1.00
H1034  H     0.76362   0.46192   0.96499   0.00000  Uiso   1.00
H1035  H     0.80569   0.44666   0.97667   0.00000  Uiso   1.00
H1036  H     0.77265   0.39729   0.03046   0.00000  Uiso   1.00
H1037  H     0.73064   0.41090   0.01705   0.00000  Uiso   1.00
H1038  H     0.70020   0.08249   0.51688   0.00000  Uiso   1.00
H1039  H     0.65935   0.06071   0.51367   0.00000  Uiso   1.00
H1040  H     0.63607   0.02259   0.50474   0.00000  Uiso   1.00
H1041  H     0.72889   0.75948   0.89809   0.00000  Uiso   1.00
H1042  H     0.69263   0.77548   0.92214   0.00000  Uiso   1.00
H1043  H     0.67216   0.78172   0.96338   0.00000  Uiso   1.00
H1044  H     0.79944   0.77734   0.00490   0.00000  Uiso   1.00
H1045  H     0.79856   0.96495   0.06078   0.00000  Uiso   1.00
H1046  H     0.80915   0.04337   0.07407   0.00000  Uiso   1.00
H1047  H     0.76474   0.05094   0.06326   0.00000  Uiso   1.00
H1048  H     0.34845   0.70288   0.35072   0.00000  Uiso   1.00
H1049  H     0.38648   0.72872   0.34701   0.00000  Uiso   1.00
H1050  H     0.42970   0.66277   0.33212   0.00000  Uiso   1.00
H1051  H     0.39153   0.63717   0.33463   0.00000  Uiso   1.00
H1052  H     0.41166   0.44223   0.11088   0.00000  Uiso   1.00
H1053  H     0.43296   0.44201   0.15135   0.00000  Uiso   1.00
H1054  H     0.50372   0.43327   0.11459   0.00000  Uiso   1.00
H1055  H     0.48206   0.43274   0.07357   0.00000  Uiso   1.00
F87    F     0.74357  -0.01676   0.11174   0.00000  Uiso   1.00
F88    F     0.72443   0.00633   0.14106   0.00000  Uiso   1.00
H1056  H     0.84270   0.01550   0.07914   0.00000  Uiso   1.00
O44    O     0.16708   0.85091   0.47954   0.00000  Uiso   1.00
C1673  C     0.16845   0.56583   0.23376   0.00000  Uiso   1.00
C1674  C     0.23427   0.44780   0.01991   0.00000  Uiso   1.00
C1675  C     0.21108   0.43961   0.01329   0.00000  Uiso   1.00
C1676  C     0.20843   0.42273   0.99432   0.00000  Uiso   1.00
C1677  C     0.22930   0.41219   0.98388   0.00000  Uiso   1.00
C1678  C     0.25246   0.41991   0.99101   0.00000  Uiso   1.00
C1679  C     0.25504   0.43877   0.00811   0.00000  Uiso   1.00
C1680  C     0.27869   0.04876   0.48931   0.00000  Uiso   1.00
C1681  C     0.30047   0.06205   0.48681   0.00000  Uiso   1.00
C1682  C     0.32297   0.05009   0.48889   0.00000  Uiso   1.00
C1683  C     0.30165   0.01245   0.49660   0.00000  Uiso   1.00
C1684  C     0.32377   0.02508   0.49410   0.00000  Uiso   1.00
C1685  C     0.34587   0.01250   0.49722   0.00000  Uiso   1.00
C1686  C     0.26179   0.75518   0.08384   0.00000  Uiso   1.00
C1687  C     0.27377   0.76021   0.06169   0.00000  Uiso   1.00
C1688  C     0.26185   0.75490   0.03980   0.00000  Uiso   1.00
C1689  C     0.29735   0.77026   0.06042   0.00000  Uiso   1.00
C1690  C     0.30862   0.77388   0.03759   0.00000  Uiso   1.00
C1691  C     0.29596   0.76774   0.01616   0.00000  Uiso   1.00
C1692  C     0.19537   0.73765   0.99231   0.00000  Uiso   1.00
C1693  C     0.19548   0.76131   0.98289   0.00000  Uiso   1.00
C1694  C     0.25067   0.08099   0.17951   0.00000  Uiso   1.00
C1695  C     0.20867   0.98443   0.93945   0.00000  Uiso   1.00
C1696  C     0.19311   0.00394   0.93365   0.00000  Uiso   1.00
C1697  C     0.20287   0.02756   0.93204   0.00000  Uiso   1.00
C1698  C     0.22740   0.03174   0.93795   0.00000  Uiso   1.00
N177   N     0.28009   0.02428   0.49308   0.00000  Uiso   1.00
N178   N     0.27308   0.75897   0.01815   0.00000  Uiso   1.00
N179   N     0.56761   0.71082   0.66300   0.00000  Uiso   1.00
C1699  C     0.63212   0.66847   0.65694   0.00000  Uiso   1.00
C1700  C     0.63335   0.69383   0.65362   0.00000  Uiso   1.00
C1701  C     0.61234   0.70814   0.65561   0.00000  Uiso   1.00
C1702  C     0.58976   0.69715   0.66085   0.00000  Uiso   1.00
C1703  C     0.58855   0.67189   0.66397   0.00000  Uiso   1.00
C1704  C     0.60955   0.65770   0.66233   0.00000  Uiso   1.00
C1705  C     0.55444   0.43686   0.91013   0.00000  Uiso   1.00
C1706  C     0.56771   0.43980   0.88844   0.00000  Uiso   1.00
C1707  C     0.55587   0.43977   0.86603   0.00000  Uiso   1.00
C1708  C     0.53060   0.43703   0.86467   0.00000  Uiso   1.00
C1709  C     0.51698   0.43486   0.88629   0.00000  Uiso   1.00
C1710  C     0.52892   0.43467   0.90890   0.00000  Uiso   1.00
N180   N     0.47985   0.56429   0.84080   0.00000  Uiso   1.00
H1057  H     0.16993   0.58277   0.24571   0.00000  Uiso   1.00
H1058  H     0.23638   0.46192   0.03501   0.00000  Uiso   1.00
H1059  H     0.19431   0.44666   0.02333   0.00000  Uiso   1.00
H1060  H     0.22735   0.39729   0.96954   0.00000  Uiso   1.00
H1061  H     0.26936   0.41090   0.98295   0.00000  Uiso   1.00
H1062  H     0.29980   0.08249   0.48312   0.00000  Uiso   1.00
H1063  H     0.34065   0.06071   0.48633   0.00000  Uiso   1.00
H1064  H     0.36393   0.02259   0.49526   0.00000  Uiso   1.00
H1065  H     0.27111   0.75948   0.10191   0.00000  Uiso   1.00
H1066  H     0.30737   0.77548   0.07786   0.00000  Uiso   1.00
H1067  H     0.32784   0.78172   0.03662   0.00000  Uiso   1.00
H1068  H     0.20056   0.77734   0.99510   0.00000  Uiso   1.00
H1069  H     0.20144   0.96495   0.93922   0.00000  Uiso   1.00
H1070  H     0.19085   0.04337   0.92593   0.00000  Uiso   1.00
H1071  H     0.23526   0.05094   0.93674   0.00000  Uiso   1.00
H1072  H     0.65155   0.70288   0.64928   0.00000  Uiso   1.00
H1073  H     0.61352   0.72872   0.65299   0.00000  Uiso   1.00
H1074  H     0.57030   0.66277   0.66788   0.00000  Uiso   1.00
H1075  H     0.60847   0.63717   0.66537   0.00000  Uiso   1.00
H1076  H     0.58834   0.44223   0.88912   0.00000  Uiso   1.00
H1077  H     0.56704   0.44201   0.84865   0.00000  Uiso   1.00
H1078  H     0.49628   0.43327   0.88541   0.00000  Uiso   1.00
H1079  H     0.51794   0.43274   0.92643   0.00000  Uiso   1.00
F89    F     0.25643  -0.01676   0.88826   0.00000  Uiso   1.00
F90    F     0.27557   0.00633   0.85894   0.00000  Uiso   1.00
H1080  H     0.15730   0.01550   0.92086   0.00000  Uiso   1.00
O45    O     0.83292   0.85091   0.52046   0.00000  Uiso   1.00
C1711  C     0.16845   0.06583   0.73376   0.00000  Uiso   1.00
C1712  C     0.23427   0.94780   0.51991   0.00000  Uiso   1.00
C1713  C     0.21108   0.93961   0.51329   0.00000  Uiso   1.00
C1714  C     0.20843   0.92273   0.49432   0.00000  Uiso   1.00
C1715  C     0.22930   0.91219   0.48388   0.00000  Uiso   1.00
C1716  C     0.25246   0.91991   0.49101   0.00000  Uiso   1.00
C1717  C     0.25504   0.93877   0.50811   0.00000  Uiso   1.00
C1718  C     0.27869   0.54876   0.98931   0.00000  Uiso   1.00
C1719  C     0.30047   0.56205   0.98681   0.00000  Uiso   1.00
C1720  C     0.32297   0.55009   0.98889   0.00000  Uiso   1.00
C1721  C     0.30165   0.51245   0.99660   0.00000  Uiso   1.00
C1722  C     0.32377   0.52508   0.99410   0.00000  Uiso   1.00
C1723  C     0.34587   0.51250   0.99722   0.00000  Uiso   1.00
C1724  C     0.26179   0.25518   0.58384   0.00000  Uiso   1.00
C1725  C     0.27377   0.26021   0.56169   0.00000  Uiso   1.00
C1726  C     0.26185   0.25490   0.53980   0.00000  Uiso   1.00
C1727  C     0.29735   0.27026   0.56042   0.00000  Uiso   1.00
C1728  C     0.30862   0.27388   0.53759   0.00000  Uiso   1.00
C1729  C     0.29596   0.26774   0.51616   0.00000  Uiso   1.00
C1730  C     0.19537   0.23765   0.49231   0.00000  Uiso   1.00
C1731  C     0.19548   0.26131   0.48289   0.00000  Uiso   1.00
C1732  C     0.25067   0.58099   0.67951   0.00000  Uiso   1.00
C1733  C     0.20867   0.48443   0.43945   0.00000  Uiso   1.00
C1734  C     0.19311   0.50394   0.43365   0.00000  Uiso   1.00
C1735  C     0.20287   0.52756   0.43204   0.00000  Uiso   1.00
C1736  C     0.22740   0.53174   0.43795   0.00000  Uiso   1.00
N181   N     0.28009   0.52428   0.99308   0.00000  Uiso   1.00
N182   N     0.27308   0.25897   0.51815   0.00000  Uiso   1.00
N183   N     0.56761   0.21082   0.16300   0.00000  Uiso   1.00
C1737  C     0.63212   0.16847   0.15694   0.00000  Uiso   1.00
C1738  C     0.63335   0.19383   0.15362   0.00000  Uiso   1.00
C1739  C     0.61234   0.20814   0.15561   0.00000  Uiso   1.00
C1740  C     0.58976   0.19715   0.16085   0.00000  Uiso   1.00
C1741  C     0.58855   0.17189   0.16397   0.00000  Uiso   1.00
C1742  C     0.60955   0.15770   0.16233   0.00000  Uiso   1.00
C1743  C     0.55444   0.93686   0.41013   0.00000  Uiso   1.00
C1744  C     0.56771   0.93980   0.38844   0.00000  Uiso   1.00
C1745  C     0.55587   0.93977   0.36603   0.00000  Uiso   1.00
C1746  C     0.53060   0.93703   0.36467   0.00000  Uiso   1.00
C1747  C     0.51698   0.93486   0.38629   0.00000  Uiso   1.00
C1748  C     0.52892   0.93467   0.40890   0.00000  Uiso   1.00
N184   N     0.47985   0.06429   0.34080   0.00000  Uiso   1.00
H1081  H     0.16993   0.08277   0.74571   0.00000  Uiso   1.00
H1082  H     0.23638   0.96192   0.53501   0.00000  Uiso   1.00
H1083  H     0.19431   0.94666   0.52333   0.00000  Uiso   1.00
H1084  H     0.22735   0.89729   0.46954   0.00000  Uiso   1.00
H1085  H     0.26936   0.91090   0.48295   0.00000  Uiso   1.00
H1086  H     0.29980   0.58249   0.98312   0.00000  Uiso   1.00
H1087  H     0.34065   0.56071   0.98633   0.00000  Uiso   1.00
H1088  H     0.36393   0.52259   0.99526   0.00000  Uiso   1.00
H1089  H     0.27111   0.25948   0.60191   0.00000  Uiso   1.00
H1090  H     0.30737   0.27548   0.57786   0.00000  Uiso   1.00
H1091  H     0.32784   0.28172   0.53662   0.00000  Uiso   1.00
H1092  H     0.20056   0.27734   0.49510   0.00000  Uiso   1.00
H1093  H     0.20144   0.46495   0.43922   0.00000  Uiso   1.00
H1094  H     0.19085   0.54337   0.42593   0.00000  Uiso   1.00
H1095  H     0.23526   0.55094   0.43674   0.00000  Uiso   1.00
H1096  H     0.65155   0.20288   0.14928   0.00000  Uiso   1.00
H1097  H     0.61352   0.22872   0.15299   0.00000  Uiso   1.00
H1098  H     0.57030   0.16277   0.16788   0.00000  Uiso   1.00
H1099  H     0.60847   0.13717   0.16537   0.00000  Uiso   1.00
H1100  H     0.58834   0.94223   0.38912   0.00000  Uiso   1.00
H1101  H     0.56704   0.94201   0.34865   0.00000  Uiso   1.00
H1102  H     0.49628   0.93327   0.38541   0.00000  Uiso   1.00
H1103  H     0.51794   0.93274   0.42643   0.00000  Uiso   1.00
F91    F     0.25643   0.48324   0.38826   0.00000  Uiso   1.00
F92    F     0.27557   0.50633   0.35894   0.00000  Uiso   1.00
H1104  H     0.15730   0.51550   0.42086   0.00000  Uiso   1.00
O46    O     0.83292   0.35091   0.02046   0.00000  Uiso   1.00
C1749  C     0.66845   0.56583   0.73376   0.00000  Uiso   1.00
C1750  C     0.73427   0.44780   0.51991   0.00000  Uiso   1.00
C1751  C     0.71108   0.43961   0.51329   0.00000  Uiso   1.00
C1752  C     0.70843   0.42273   0.49432   0.00000  Uiso   1.00
C1753  C     0.72930   0.41219   0.48388   0.00000  Uiso   1.00
C1754  C     0.75246   0.41991   0.49101   0.00000  Uiso   1.00
C1755  C     0.75504   0.43877   0.50811   0.00000  Uiso   1.00
C1756  C     0.77869   0.04876   0.98931   0.00000  Uiso   1.00
C1757  C     0.80047   0.06205   0.98681   0.00000  Uiso   1.00
C1758  C     0.82297   0.05009   0.98889   0.00000  Uiso   1.00
C1759  C     0.80165   0.01245   0.99660   0.00000  Uiso   1.00
C1760  C     0.82377   0.02508   0.99410   0.00000  Uiso   1.00
C1761  C     0.84587   0.01250   0.99722   0.00000  Uiso   1.00
C1762  C     0.76179   0.75518   0.58384   0.00000  Uiso   1.00
C1763  C     0.77377   0.76021   0.56169   0.00000  Uiso   1.00
C1764  C     0.76185   0.75490   0.53980   0.00000  Uiso   1.00
C1765  C     0.79735   0.77026   0.56042   0.00000  Uiso   1.00
C1766  C     0.80862   0.77388   0.53759   0.00000  Uiso   1.00
C1767  C     0.79596   0.76774   0.51616   0.00000  Uiso   1.00
C1768  C     0.69537   0.73765   0.49231   0.00000  Uiso   1.00
C1769  C     0.69548   0.76131   0.48289   0.00000  Uiso   1.00
C1770  C     0.75067   0.08099   0.67951   0.00000  Uiso   1.00
C1771  C     0.70867   0.98443   0.43945   0.00000  Uiso   1.00
C1772  C     0.69311   0.00394   0.43365   0.00000  Uiso   1.00
C1773  C     0.70287   0.02756   0.43204   0.00000  Uiso   1.00
C1774  C     0.72740   0.03174   0.43795   0.00000  Uiso   1.00
N185   N     0.78009   0.02428   0.99308   0.00000  Uiso   1.00
N186   N     0.77308   0.75897   0.51815   0.00000  Uiso   1.00
N187   N     0.06761   0.71082   0.16300   0.00000  Uiso   1.00
C1775  C     0.13212   0.66847   0.15694   0.00000  Uiso   1.00
C1776  C     0.13335   0.69383   0.15362   0.00000  Uiso   1.00
C1777  C     0.11234   0.70814   0.15561   0.00000  Uiso   1.00
C1778  C     0.08976   0.69715   0.16085   0.00000  Uiso   1.00
C1779  C     0.08855   0.67189   0.16397   0.00000  Uiso   1.00
C1780  C     0.10955   0.65770   0.16233   0.00000  Uiso   1.00
C1781  C     0.05444   0.43686   0.41013   0.00000  Uiso   1.00
C1782  C     0.06771   0.43980   0.38844   0.00000  Uiso   1.00
C1783  C     0.05587   0.43977   0.36603   0.00000  Uiso   1.00
C1784  C     0.03060   0.43703   0.36467   0.00000  Uiso   1.00
C1785  C     0.01698   0.43486   0.38629   0.00000  Uiso   1.00
C1786  C     0.02892   0.43467   0.40890   0.00000  Uiso   1.00
N188   N     0.97985   0.56429   0.34080   0.00000  Uiso   1.00
H1105  H     0.66993   0.58277   0.74571   0.00000  Uiso   1.00
H1106  H     0.73638   0.46192   0.53501   0.00000  Uiso   1.00
H1107  H     0.69431   0.44666   0.52333   0.00000  Uiso   1.00
H1108  H     0.72735   0.39729   0.46954   0.00000  Uiso   1.00
H1109  H     0.76936   0.41090   0.48295   0.00000  Uiso   1.00
H1110  H     0.79980   0.08249   0.98312   0.00000  Uiso   1.00
H1111  H     0.84065   0.06071   0.98633   0.00000  Uiso   1.00
H1112  H     0.86393   0.02259   0.99526   0.00000  Uiso   1.00
H1113  H     0.77111   0.75948   0.60191   0.00000  Uiso   1.00
H1114  H     0.80737   0.77548   0.57786   0.00000  Uiso   1.00
H1115  H     0.82784   0.78172   0.53662   0.00000  Uiso   1.00
H1116  H     0.70056   0.77734   0.49510   0.00000  Uiso   1.00
H1117  H     0.70144   0.96495   0.43922   0.00000  Uiso   1.00
H1118  H     0.69085   0.04337   0.42593   0.00000  Uiso   1.00
H1119  H     0.73526   0.05094   0.43674   0.00000  Uiso   1.00
H1120  H     0.15155   0.70288   0.14928   0.00000  Uiso   1.00
H1121  H     0.11352   0.72872   0.15299   0.00000  Uiso   1.00
H1122  H     0.07030   0.66277   0.16788   0.00000  Uiso   1.00
H1123  H     0.10847   0.63717   0.16537   0.00000  Uiso   1.00
H1124  H     0.08834   0.44223   0.38912   0.00000  Uiso   1.00
H1125  H     0.06704   0.44201   0.34865   0.00000  Uiso   1.00
H1126  H     0.99628   0.43327   0.38541   0.00000  Uiso   1.00
H1127  H     0.01794   0.43274   0.42643   0.00000  Uiso   1.00
F93    F     0.75643  -0.01676   0.38826   0.00000  Uiso   1.00
F94    F     0.77557   0.00633   0.35894   0.00000  Uiso   1.00
H1128  H     0.65730   0.01550   0.42086   0.00000  Uiso   1.00
O47    O     0.33292   0.85091   0.02046   0.00000  Uiso   1.00
C1787  C     0.66845   0.06583   0.23376   0.00000  Uiso   1.00
C1788  C     0.73427   0.94780   0.01991   0.00000  Uiso   1.00
C1789  C     0.71108   0.93961   0.01329   0.00000  Uiso   1.00
C1790  C     0.70843   0.92273   0.99432   0.00000  Uiso   1.00
C1791  C     0.72930   0.91219   0.98388   0.00000  Uiso   1.00
C1792  C     0.75246   0.91991   0.99101   0.00000  Uiso   1.00
C1793  C     0.75504   0.93877   0.00811   0.00000  Uiso   1.00
C1794  C     0.77869   0.54876   0.48931   0.00000  Uiso   1.00
C1795  C     0.80047   0.56205   0.48681   0.00000  Uiso   1.00
C1796  C     0.82297   0.55009   0.48889   0.00000  Uiso   1.00
C1797  C     0.80165   0.51245   0.49660   0.00000  Uiso   1.00
C1798  C     0.82377   0.52508   0.49410   0.00000  Uiso   1.00
C1799  C     0.84587   0.51250   0.49722   0.00000  Uiso   1.00
C1800  C     0.76179   0.25518   0.08384   0.00000  Uiso   1.00
C1801  C     0.77377   0.26021   0.06169   0.00000  Uiso   1.00
C1802  C     0.76185   0.25490   0.03980   0.00000  Uiso   1.00
C1803  C     0.79735   0.27026   0.06042   0.00000  Uiso   1.00
C1804  C     0.80862   0.27388   0.03759   0.00000  Uiso   1.00
C1805  C     0.79596   0.26774   0.01616   0.00000  Uiso   1.00
C1806  C     0.69537   0.23765   0.99231   0.00000  Uiso   1.00
C1807  C     0.69548   0.26131   0.98289   0.00000  Uiso   1.00
C1808  C     0.75067   0.58099   0.17951   0.00000  Uiso   1.00
C1809  C     0.70867   0.48443   0.93945   0.00000  Uiso   1.00
C1810  C     0.69311   0.50394   0.93365   0.00000  Uiso   1.00
C1811  C     0.70287   0.52756   0.93204   0.00000  Uiso   1.00
C1812  C     0.72740   0.53174   0.93795   0.00000  Uiso   1.00
N189   N     0.78009   0.52428   0.49308   0.00000  Uiso   1.00
N190   N     0.77308   0.25897   0.01815   0.00000  Uiso   1.00
N191   N     0.06761   0.21082   0.66300   0.00000  Uiso   1.00
C1813  C     0.13212   0.16847   0.65694   0.00000  Uiso   1.00
C1814  C     0.13335   0.19383   0.65362   0.00000  Uiso   1.00
C1815  C     0.11234   0.20814   0.65561   0.00000  Uiso   1.00
C1816  C     0.08976   0.19715   0.66085   0.00000  Uiso   1.00
C1817  C     0.08855   0.17189   0.66397   0.00000  Uiso   1.00
C1818  C     0.10955   0.15770   0.66233   0.00000  Uiso   1.00
C1819  C     0.05444   0.93686   0.91013   0.00000  Uiso   1.00
C1820  C     0.06771   0.93980   0.88844   0.00000  Uiso   1.00
C1821  C     0.05587   0.93977   0.86603   0.00000  Uiso   1.00
C1822  C     0.03060   0.93703   0.86467   0.00000  Uiso   1.00
C1823  C     0.01698   0.93486   0.88629   0.00000  Uiso   1.00
C1824  C     0.02892   0.93467   0.90890   0.00000  Uiso   1.00
N192   N     0.97985   0.06429   0.84080   0.00000  Uiso   1.00
H1129  H     0.66993   0.08277   0.24571   0.00000  Uiso   1.00
H1130  H     0.73638   0.96192   0.03501   0.00000  Uiso   1.00
H1131  H     0.69431   0.94666   0.02333   0.00000  Uiso   1.00
H1132  H     0.72735   0.89729   0.96954   0.00000  Uiso   1.00
H1133  H     0.76936   0.91090   0.98295   0.00000  Uiso   1.00
H1134  H     0.79980   0.58249   0.48312   0.00000  Uiso   1.00
H1135  H     0.84065   0.56071   0.48633   0.00000  Uiso   1.00
H1136  H     0.86393   0.52259   0.49526   0.00000  Uiso   1.00
H1137  H     0.77111   0.25948   0.10191   0.00000  Uiso   1.00
H1138  H     0.80737   0.27548   0.07786   0.00000  Uiso   1.00
H1139  H     0.82784   0.28172   0.03662   0.00000  Uiso   1.00
H1140  H     0.70056   0.27734   0.99510   0.00000  Uiso   1.00
H1141  H     0.70144   0.46495   0.93922   0.00000  Uiso   1.00
H1142  H     0.69085   0.54337   0.92593   0.00000  Uiso   1.00
H1143  H     0.73526   0.55094   0.93674   0.00000  Uiso   1.00
H1144  H     0.15155   0.20288   0.64928   0.00000  Uiso   1.00
H1145  H     0.11352   0.22872   0.65299   0.00000  Uiso   1.00
H1146  H     0.07030   0.16277   0.66788   0.00000  Uiso   1.00
H1147  H     0.10847   0.13717   0.66537   0.00000  Uiso   1.00
H1148  H     0.08834   0.94223   0.88912   0.00000  Uiso   1.00
H1149  H     0.06704   0.94201   0.84865   0.00000  Uiso   1.00
H1150  H     0.99628   0.93327   0.88541   0.00000  Uiso   1.00
H1151  H     0.01794   0.93274   0.92643   0.00000  Uiso   1.00
F95    F     0.75643   0.48324   0.88826   0.00000  Uiso   1.00
F96    F     0.77557   0.50633   0.85894   0.00000  Uiso   1.00
H1152  H     0.65730   0.51550   0.92086   0.00000  Uiso   1.00
O48    O     0.33292   0.35091   0.52046   0.00000  Uiso   1.00
C1825  C     0.58155   0.98376   0.81583   0.00000  Uiso   1.00
C1826  C     0.51573   0.76991   0.69780   0.00000  Uiso   1.00
C1827  C     0.53892   0.76329   0.68961   0.00000  Uiso   1.00
C1828  C     0.54157   0.74432   0.67273   0.00000  Uiso   1.00
C1829  C     0.52070   0.73388   0.66219   0.00000  Uiso   1.00
C1830  C     0.49754   0.74101   0.66991   0.00000  Uiso   1.00
C1831  C     0.49496   0.75811   0.68877   0.00000  Uiso   1.00
C1832  C     0.47131   0.23931   0.29876   0.00000  Uiso   1.00
C1833  C     0.44953   0.23681   0.31205   0.00000  Uiso   1.00
C1834  C     0.42703   0.23889   0.30009   0.00000  Uiso   1.00
C1835  C     0.44835   0.24660   0.26245   0.00000  Uiso   1.00
C1836  C     0.42623   0.24410   0.27508   0.00000  Uiso   1.00
C1837  C     0.40413   0.24722   0.26250   0.00000  Uiso   1.00
C1838  C     0.48821   0.83384   0.00518   0.00000  Uiso   1.00
C1839  C     0.47623   0.81169   0.01021   0.00000  Uiso   1.00
C1840  C     0.48815   0.78980   0.00490   0.00000  Uiso   1.00
C1841  C     0.45265   0.81042   0.02026   0.00000  Uiso   1.00
C1842  C     0.44138   0.78759   0.02388   0.00000  Uiso   1.00
C1843  C     0.45404   0.76616   0.01774   0.00000  Uiso   1.00
C1844  C     0.55463   0.74231   0.98765   0.00000  Uiso   1.00
C1845  C     0.55452   0.73289   0.01131   0.00000  Uiso   1.00
C1846  C     0.49933   0.92951   0.33099   0.00000  Uiso   1.00
C1847  C     0.54133   0.68945   0.23443   0.00000  Uiso   1.00
C1848  C     0.55689   0.68365   0.25394   0.00000  Uiso   1.00
C1849  C     0.54713   0.68204   0.27756   0.00000  Uiso   1.00
C1850  C     0.52260   0.68795   0.28174   0.00000  Uiso   1.00
N193   N     0.46991   0.24308   0.27428   0.00000  Uiso   1.00
N194   N     0.47692   0.76815   0.00897   0.00000  Uiso   1.00
N195   N     0.18239   0.41300   0.96082   0.00000  Uiso   1.00
C1851  C     0.11788   0.40694   0.91847   0.00000  Uiso   1.00
C1852  C     0.11665   0.40362   0.94383   0.00000  Uiso   1.00
C1853  C     0.13766   0.40561   0.95814   0.00000  Uiso   1.00
C1854  C     0.16024   0.41085   0.94715   0.00000  Uiso   1.00
C1855  C     0.16145   0.41397   0.92189   0.00000  Uiso   1.00
C1856  C     0.14045   0.41233   0.90770   0.00000  Uiso   1.00
C1857  C     0.19556   0.66013   0.68686   0.00000  Uiso   1.00
C1858  C     0.18229   0.63844   0.68980   0.00000  Uiso   1.00
C1859  C     0.19413   0.61603   0.68977   0.00000  Uiso   1.00
C1860  C     0.21940   0.61467   0.68703   0.00000  Uiso   1.00
C1861  C     0.23302   0.63629   0.68486   0.00000  Uiso   1.00
C1862  C     0.22108   0.65890   0.68467   0.00000  Uiso   1.00
N196   N     0.27015   0.59080   0.81429   0.00000  Uiso   1.00
H1153  H     0.58007   0.99571   0.83277   0.00000  Uiso   1.00
H1154  H     0.51362   0.78501   0.71192   0.00000  Uiso   1.00
H1155  H     0.55569   0.77333   0.69666   0.00000  Uiso   1.00
H1156  H     0.52265   0.71954   0.64729   0.00000  Uiso   1.00
H1157  H     0.48064   0.73295   0.66090   0.00000  Uiso   1.00
H1158  H     0.45020   0.23312   0.33249   0.00000  Uiso   1.00
H1159  H     0.40935   0.23633   0.31071   0.00000  Uiso   1.00
H1160  H     0.38607   0.24526   0.27259   0.00000  Uiso   1.00
H1161  H     0.47889   0.85191   0.00948   0.00000  Uiso   1.00
H1162  H     0.44263   0.82786   0.02548   0.00000  Uiso   1.00
H1163  H     0.42216   0.78662   0.03172   0.00000  Uiso   1.00
H1164  H     0.54944   0.74510   0.02734   0.00000  Uiso   1.00
H1165  H     0.54856   0.68922   0.21495   0.00000  Uiso   1.00
H1166  H     0.55915   0.67593   0.29337   0.00000  Uiso   1.00
H1167  H     0.51474   0.68674   0.30094   0.00000  Uiso   1.00
H1168  H     0.09845   0.39928   0.95288   0.00000  Uiso   1.00
H1169  H     0.13648   0.40299   0.97872   0.00000  Uiso   1.00
H1170  H     0.17970   0.41788   0.91277   0.00000  Uiso   1.00
H1171  H     0.14153   0.41537   0.88717   0.00000  Uiso   1.00
H1172  H     0.16166   0.63912   0.69223   0.00000  Uiso   1.00
H1173  H     0.18296   0.59865   0.69201   0.00000  Uiso   1.00
H1174  H     0.25372   0.63541   0.68327   0.00000  Uiso   1.00
H1175  H     0.23206   0.67643   0.68274   0.00000  Uiso   1.00
F97    F     0.49357   0.63826   0.23324   0.00000  Uiso   1.00
F98    F     0.47443   0.60894   0.25633   0.00000  Uiso   1.00
H1176  H     0.59270   0.67086   0.26550   0.00000  Uiso   1.00
O49    O     0.91708   0.27046   0.10091   0.00000  Uiso   1.00
C1863  C     0.58155   0.48376   0.31583   0.00000  Uiso   1.00
C1864  C     0.51573   0.26991   0.19780   0.00000  Uiso   1.00
C1865  C     0.53892   0.26329   0.18961   0.00000  Uiso   1.00
C1866  C     0.54157   0.24432   0.17273   0.00000  Uiso   1.00
C1867  C     0.52070   0.23388   0.16219   0.00000  Uiso   1.00
C1868  C     0.49754   0.24101   0.16991   0.00000  Uiso   1.00
C1869  C     0.49496   0.25811   0.18877   0.00000  Uiso   1.00
C1870  C     0.47131   0.73931   0.79876   0.00000  Uiso   1.00
C1871  C     0.44953   0.73681   0.81205   0.00000  Uiso   1.00
C1872  C     0.42703   0.73889   0.80009   0.00000  Uiso   1.00
C1873  C     0.44835   0.74660   0.76245   0.00000  Uiso   1.00
C1874  C     0.42623   0.74410   0.77508   0.00000  Uiso   1.00
C1875  C     0.40413   0.74722   0.76250   0.00000  Uiso   1.00
C1876  C     0.48821   0.33384   0.50518   0.00000  Uiso   1.00
C1877  C     0.47623   0.31169   0.51021   0.00000  Uiso   1.00
C1878  C     0.48815   0.28980   0.50490   0.00000  Uiso   1.00
C1879  C     0.45265   0.31042   0.52026   0.00000  Uiso   1.00
C1880  C     0.44138   0.28759   0.52388   0.00000  Uiso   1.00
C1881  C     0.45404   0.26616   0.51774   0.00000  Uiso   1.00
C1882  C     0.55463   0.24231   0.48765   0.00000  Uiso   1.00
C1883  C     0.55452   0.23289   0.51131   0.00000  Uiso   1.00
C1884  C     0.49933   0.42951   0.83099   0.00000  Uiso   1.00
C1885  C     0.54133   0.18945   0.73443   0.00000  Uiso   1.00
C1886  C     0.55689   0.18365   0.75394   0.00000  Uiso   1.00
C1887  C     0.54713   0.18204   0.77756   0.00000  Uiso   1.00
C1888  C     0.52260   0.18795   0.78174   0.00000  Uiso   1.00
N197   N     0.46991   0.74308   0.77428   0.00000  Uiso   1.00
N198   N     0.47692   0.26815   0.50897   0.00000  Uiso   1.00
N199   N     0.18239   0.91300   0.46082   0.00000  Uiso   1.00
C1889  C     0.11788   0.90694   0.41847   0.00000  Uiso   1.00
C1890  C     0.11665   0.90362   0.44383   0.00000  Uiso   1.00
C1891  C     0.13766   0.90561   0.45814   0.00000  Uiso   1.00
C1892  C     0.16024   0.91085   0.44715   0.00000  Uiso   1.00
C1893  C     0.16145   0.91397   0.42189   0.00000  Uiso   1.00
C1894  C     0.14045   0.91233   0.40770   0.00000  Uiso   1.00
C1895  C     0.19556   0.16013   0.18686   0.00000  Uiso   1.00
C1896  C     0.18229   0.13844   0.18980   0.00000  Uiso   1.00
C1897  C     0.19413   0.11603   0.18977   0.00000  Uiso   1.00
C1898  C     0.21940   0.11467   0.18703   0.00000  Uiso   1.00
C1899  C     0.23302   0.13629   0.18486   0.00000  Uiso   1.00
C1900  C     0.22108   0.15890   0.18467   0.00000  Uiso   1.00
N200   N     0.27015   0.09080   0.31429   0.00000  Uiso   1.00
H1177  H     0.58007   0.49571   0.33277   0.00000  Uiso   1.00
H1178  H     0.51362   0.28501   0.21192   0.00000  Uiso   1.00
H1179  H     0.55569   0.27333   0.19666   0.00000  Uiso   1.00
H1180  H     0.52265   0.21954   0.14729   0.00000  Uiso   1.00
H1181  H     0.48064   0.23295   0.16090   0.00000  Uiso   1.00
H1182  H     0.45020   0.73312   0.83249   0.00000  Uiso   1.00
H1183  H     0.40935   0.73633   0.81071   0.00000  Uiso   1.00
H1184  H     0.38607   0.74526   0.77259   0.00000  Uiso   1.00
H1185  H     0.47889   0.35191   0.50948   0.00000  Uiso   1.00
H1186  H     0.44263   0.32786   0.52548   0.00000  Uiso   1.00
H1187  H     0.42216   0.28662   0.53172   0.00000  Uiso   1.00
H1188  H     0.54944   0.24510   0.52734   0.00000  Uiso   1.00
H1189  H     0.54856   0.18922   0.71495   0.00000  Uiso   1.00
H1190  H     0.55915   0.17593   0.79337   0.00000  Uiso   1.00
H1191  H     0.51474   0.18674   0.80094   0.00000  Uiso   1.00
H1192  H     0.09845   0.89928   0.45288   0.00000  Uiso   1.00
H1193  H     0.13648   0.90299   0.47872   0.00000  Uiso   1.00
H1194  H     0.17970   0.91788   0.41277   0.00000  Uiso   1.00
H1195  H     0.14153   0.91537   0.38717   0.00000  Uiso   1.00
H1196  H     0.16166   0.13912   0.19223   0.00000  Uiso   1.00
H1197  H     0.18296   0.09865   0.19201   0.00000  Uiso   1.00
H1198  H     0.25372   0.13541   0.18327   0.00000  Uiso   1.00
H1199  H     0.23206   0.17643   0.18274   0.00000  Uiso   1.00
F99    F     0.49357   0.13826   0.73324   0.00000  Uiso   1.00
F100   F     0.47443   0.10894   0.75633   0.00000  Uiso   1.00
H1200  H     0.59270   0.17086   0.76550   0.00000  Uiso   1.00
O50    O     0.91708   0.77046   0.60091   0.00000  Uiso   1.00
C1901  C     0.08155   0.98376   0.31583   0.00000  Uiso   1.00
C1902  C     0.01573   0.76991   0.19780   0.00000  Uiso   1.00
C1903  C     0.03892   0.76329   0.18961   0.00000  Uiso   1.00
C1904  C     0.04157   0.74432   0.17273   0.00000  Uiso   1.00
C1905  C     0.02070   0.73388   0.16219   0.00000  Uiso   1.00
C1906  C     0.99754   0.74101   0.16991   0.00000  Uiso   1.00
C1907  C     0.99496   0.75811   0.18877   0.00000  Uiso   1.00
C1908  C     0.97131   0.23931   0.79876   0.00000  Uiso   1.00
C1909  C     0.94953   0.23681   0.81205   0.00000  Uiso   1.00
C1910  C     0.92703   0.23889   0.80009   0.00000  Uiso   1.00
C1911  C     0.94835   0.24660   0.76245   0.00000  Uiso   1.00
C1912  C     0.92623   0.24410   0.77508   0.00000  Uiso   1.00
C1913  C     0.90413   0.24722   0.76250   0.00000  Uiso   1.00
C1914  C     0.98821   0.83384   0.50518   0.00000  Uiso   1.00
C1915  C     0.97623   0.81169   0.51021   0.00000  Uiso   1.00
C1916  C     0.98815   0.78980   0.50490   0.00000  Uiso   1.00
C1917  C     0.95265   0.81042   0.52026   0.00000  Uiso   1.00
C1918  C     0.94138   0.78759   0.52388   0.00000  Uiso   1.00
C1919  C     0.95404   0.76616   0.51774   0.00000  Uiso   1.00
C1920  C     0.05463   0.74231   0.48765   0.00000  Uiso   1.00
C1921  C     0.05452   0.73289   0.51131   0.00000  Uiso   1.00
C1922  C     0.99933   0.92951   0.83099   0.00000  Uiso   1.00
C1923  C     0.04133   0.68945   0.73443   0.00000  Uiso   1.00
C1924  C     0.05689   0.68365   0.75394   0.00000  Uiso   1.00
C1925  C     0.04713   0.68204   0.77756   0.00000  Uiso   1.00
C1926  C     0.02260   0.68795   0.78174   0.00000  Uiso   1.00
N201   N     0.96991   0.24308   0.77428   0.00000  Uiso   1.00
N202   N     0.97692   0.76815   0.50897   0.00000  Uiso   1.00
N203   N     0.68239   0.41300   0.46082   0.00000  Uiso   1.00
C1927  C     0.61788   0.40694   0.41847   0.00000  Uiso   1.00
C1928  C     0.61665   0.40362   0.44383   0.00000  Uiso   1.00
C1929  C     0.63766   0.40561   0.45814   0.00000  Uiso   1.00
C1930  C     0.66024   0.41085   0.44715   0.00000  Uiso   1.00
C1931  C     0.66145   0.41397   0.42189   0.00000  Uiso   1.00
C1932  C     0.64045   0.41233   0.40770   0.00000  Uiso   1.00
C1933  C     0.69556   0.66013   0.18686   0.00000  Uiso   1.00
C1934  C     0.68229   0.63844   0.18980   0.00000  Uiso   1.00
C1935  C     0.69413   0.61603   0.18977   0.00000  Uiso   1.00
C1936  C     0.71940   0.61467   0.18703   0.00000  Uiso   1.00
C1937  C     0.73302   0.63629   0.18486   0.00000  Uiso   1.00
C1938  C     0.72108   0.65890   0.18467   0.00000  Uiso   1.00
N204   N     0.77015   0.59080   0.31429   0.00000  Uiso   1.00
H1201  H     0.08007   0.99571   0.33277   0.00000  Uiso   1.00
H1202  H     0.01362   0.78501   0.21192   0.00000  Uiso   1.00
H1203  H     0.05569   0.77333   0.19666   0.00000  Uiso   1.00
H1204  H     0.02265   0.71954   0.14729   0.00000  Uiso   1.00
H1205  H     0.98064   0.73295   0.16090   0.00000  Uiso   1.00
H1206  H     0.95020   0.23312   0.83249   0.00000  Uiso   1.00
H1207  H     0.90935   0.23633   0.81071   0.00000  Uiso   1.00
H1208  H     0.88607   0.24526   0.77259   0.00000  Uiso   1.00
H1209  H     0.97889   0.85191   0.50948   0.00000  Uiso   1.00
H1210  H     0.94263   0.82786   0.52548   0.00000  Uiso   1.00
H1211  H     0.92216   0.78662   0.53172   0.00000  Uiso   1.00
H1212  H     0.04944   0.74510   0.52734   0.00000  Uiso   1.00
H1213  H     0.04856   0.68922   0.71495   0.00000  Uiso   1.00
H1214  H     0.05915   0.67593   0.79337   0.00000  Uiso   1.00
H1215  H     0.01474   0.68674   0.80094   0.00000  Uiso   1.00
H1216  H     0.59845   0.39928   0.45288   0.00000  Uiso   1.00
H1217  H     0.63648   0.40299   0.47872   0.00000  Uiso   1.00
H1218  H     0.67970   0.41788   0.41277   0.00000  Uiso   1.00
H1219  H     0.64153   0.41537   0.38717   0.00000  Uiso   1.00
H1220  H     0.66166   0.63912   0.19223   0.00000  Uiso   1.00
H1221  H     0.68296   0.59865   0.19201   0.00000  Uiso   1.00
H1222  H     0.75372   0.63541   0.18327   0.00000  Uiso   1.00
H1223  H     0.73206   0.67643   0.18274   0.00000  Uiso   1.00
F101   F     0.99357   0.63826   0.73324   0.00000  Uiso   1.00
F102   F     0.97443   0.60894   0.75633   0.00000  Uiso   1.00
H1224  H     0.09270   0.67086   0.76550   0.00000  Uiso   1.00
O51    O     0.41708   0.27046   0.60091   0.00000  Uiso   1.00
C1939  C     0.08155   0.48376   0.81583   0.00000  Uiso   1.00
C1940  C     0.01573   0.26991   0.69780   0.00000  Uiso   1.00
C1941  C     0.03892   0.26329   0.68961   0.00000  Uiso   1.00
C1942  C     0.04157   0.24432   0.67273   0.00000  Uiso   1.00
C1943  C     0.02070   0.23388   0.66219   0.00000  Uiso   1.00
C1944  C     0.99754   0.24101   0.66991   0.00000  Uiso   1.00
C1945  C     0.99496   0.25811   0.68877   0.00000  Uiso   1.00
C1946  C     0.97131   0.73931   0.29876   0.00000  Uiso   1.00
C1947  C     0.94953   0.73681   0.31205   0.00000  Uiso   1.00
C1948  C     0.92703   0.73889   0.30009   0.00000  Uiso   1.00
C1949  C     0.94835   0.74660   0.26245   0.00000  Uiso   1.00
C1950  C     0.92623   0.74410   0.27508   0.00000  Uiso   1.00
C1951  C     0.90413   0.74722   0.26250   0.00000  Uiso   1.00
C1952  C     0.98821   0.33384   0.00518   0.00000  Uiso   1.00
C1953  C     0.97623   0.31169   0.01021   0.00000  Uiso   1.00
C1954  C     0.98815   0.28980   0.00490   0.00000  Uiso   1.00
C1955  C     0.95265   0.31042   0.02026   0.00000  Uiso   1.00
C1956  C     0.94138   0.28759   0.02388   0.00000  Uiso   1.00
C1957  C     0.95404   0.26616   0.01774   0.00000  Uiso   1.00
C1958  C     0.05463   0.24231   0.98765   0.00000  Uiso   1.00
C1959  C     0.05452   0.23289   0.01131   0.00000  Uiso   1.00
C1960  C     0.99933   0.42951   0.33099   0.00000  Uiso   1.00
C1961  C     0.04133   0.18945   0.23443   0.00000  Uiso   1.00
C1962  C     0.05689   0.18365   0.25394   0.00000  Uiso   1.00
C1963  C     0.04713   0.18204   0.27756   0.00000  Uiso   1.00
C1964  C     0.02260   0.18795   0.28174   0.00000  Uiso   1.00
N205   N     0.96991   0.74308   0.27428   0.00000  Uiso   1.00
N206   N     0.97692   0.26815   0.00897   0.00000  Uiso   1.00
N207   N     0.68239   0.91300   0.96082   0.00000  Uiso   1.00
C1965  C     0.61788   0.90694   0.91847   0.00000  Uiso   1.00
C1966  C     0.61665   0.90362   0.94383   0.00000  Uiso   1.00
C1967  C     0.63766   0.90561   0.95814   0.00000  Uiso   1.00
C1968  C     0.66024   0.91085   0.94715   0.00000  Uiso   1.00
C1969  C     0.66145   0.91397   0.92189   0.00000  Uiso   1.00
C1970  C     0.64045   0.91233   0.90770   0.00000  Uiso   1.00
C1971  C     0.69556   0.16013   0.68686   0.00000  Uiso   1.00
C1972  C     0.68229   0.13844   0.68980   0.00000  Uiso   1.00
C1973  C     0.69413   0.11603   0.68977   0.00000  Uiso   1.00
C1974  C     0.71940   0.11467   0.68703   0.00000  Uiso   1.00
C1975  C     0.73302   0.13629   0.68486   0.00000  Uiso   1.00
C1976  C     0.72108   0.15890   0.68467   0.00000  Uiso   1.00
N208   N     0.77015   0.09080   0.81429   0.00000  Uiso   1.00
H1225  H     0.08007   0.49571   0.83277   0.00000  Uiso   1.00
H1226  H     0.01362   0.28501   0.71192   0.00000  Uiso   1.00
H1227  H     0.05569   0.27333   0.69666   0.00000  Uiso   1.00
H1228  H     0.02265   0.21954   0.64729   0.00000  Uiso   1.00
H1229  H     0.98064   0.23295   0.66090   0.00000  Uiso   1.00
H1230  H     0.95020   0.73312   0.33249   0.00000  Uiso   1.00
H1231  H     0.90935   0.73633   0.31071   0.00000  Uiso   1.00
H1232  H     0.88607   0.74526   0.27259   0.00000  Uiso   1.00
H1233  H     0.97889   0.35191   0.00948   0.00000  Uiso   1.00
H1234  H     0.94263   0.32786   0.02548   0.00000  Uiso   1.00
H1235  H     0.92216   0.28662   0.03172   0.00000  Uiso   1.00
H1236  H     0.04944   0.24510   0.02734   0.00000  Uiso   1.00
H1237  H     0.04856   0.18922   0.21495   0.00000  Uiso   1.00
H1238  H     0.05915   0.17593   0.29337   0.00000  Uiso   1.00
H1239  H     0.01474   0.18674   0.30094   0.00000  Uiso   1.00
H1240  H     0.59845   0.89928   0.95288   0.00000  Uiso   1.00
H1241  H     0.63648   0.90299   0.97872   0.00000  Uiso   1.00
H1242  H     0.67970   0.91788   0.91277   0.00000  Uiso   1.00
H1243  H     0.64153   0.91537   0.88717   0.00000  Uiso   1.00
H1244  H     0.66166   0.13912   0.69223   0.00000  Uiso   1.00
H1245  H     0.68296   0.09865   0.69201   0.00000  Uiso   1.00
H1246  H     0.75372   0.13541   0.68327   0.00000  Uiso   1.00
H1247  H     0.73206   0.17643   0.68274   0.00000  Uiso   1.00
F103   F     0.99357   0.13826   0.23324   0.00000  Uiso   1.00
F104   F     0.97443   0.10894   0.25633   0.00000  Uiso   1.00
H1248  H     0.09270   0.17086   0.26550   0.00000  Uiso   1.00
O52    O     0.41708   0.77046   0.10091   0.00000  Uiso   1.00
C1977  C     0.41845   0.51624   0.31583   0.00000  Uiso   1.00
C1978  C     0.48427   0.73009   0.19780   0.00000  Uiso   1.00
C1979  C     0.46108   0.73671   0.18961   0.00000  Uiso   1.00
C1980  C     0.45843   0.75568   0.17273   0.00000  Uiso   1.00
C1981  C     0.47930   0.76612   0.16219   0.00000  Uiso   1.00
C1982  C     0.50246   0.75899   0.16991   0.00000  Uiso   1.00
C1983  C     0.50504   0.74189   0.18877   0.00000  Uiso   1.00
C1984  C     0.52869   0.26069   0.79876   0.00000  Uiso   1.00
C1985  C     0.55047   0.26319   0.81205   0.00000  Uiso   1.00
C1986  C     0.57297   0.26111   0.80009   0.00000  Uiso   1.00
C1987  C     0.55165   0.25340   0.76245   0.00000  Uiso   1.00
C1988  C     0.57377   0.25590   0.77508   0.00000  Uiso   1.00
C1989  C     0.59587   0.25278   0.76250   0.00000  Uiso   1.00
C1990  C     0.51179   0.66616   0.50518   0.00000  Uiso   1.00
C1991  C     0.52377   0.68831   0.51021   0.00000  Uiso   1.00
C1992  C     0.51185   0.71020   0.50490   0.00000  Uiso   1.00
C1993  C     0.54735   0.68958   0.52026   0.00000  Uiso   1.00
C1994  C     0.55862   0.71241   0.52388   0.00000  Uiso   1.00
C1995  C     0.54596   0.73384   0.51774   0.00000  Uiso   1.00
C1996  C     0.44537   0.75769   0.48765   0.00000  Uiso   1.00
C1997  C     0.44548   0.76711   0.51131   0.00000  Uiso   1.00
C1998  C     0.50067   0.57049   0.83099   0.00000  Uiso   1.00
C1999  C     0.45867   0.81055   0.73443   0.00000  Uiso   1.00
C2000  C     0.44311   0.81635   0.75394   0.00000  Uiso   1.00
C2001  C     0.45287   0.81796   0.77756   0.00000  Uiso   1.00
C2002  C     0.47740   0.81205   0.78174   0.00000  Uiso   1.00
N209   N     0.53009   0.25692   0.77428   0.00000  Uiso   1.00
N210   N     0.52308   0.73185   0.50897   0.00000  Uiso   1.00
N211   N     0.81761   0.08700   0.46082   0.00000  Uiso   1.00
C2003  C     0.88212   0.09306   0.41847   0.00000  Uiso   1.00
C2004  C     0.88335   0.09638   0.44383   0.00000  Uiso   1.00
C2005  C     0.86234   0.09439   0.45814   0.00000  Uiso   1.00
C2006  C     0.83976   0.08915   0.44715   0.00000  Uiso   1.00
C2007  C     0.83855   0.08603   0.42189   0.00000  Uiso   1.00
C2008  C     0.85955   0.08767   0.40770   0.00000  Uiso   1.00
C2009  C     0.80444   0.83987   0.18686   0.00000  Uiso   1.00
C2010  C     0.81771   0.86156   0.18980   0.00000  Uiso   1.00
C2011  C     0.80587   0.88397   0.18977   0.00000  Uiso   1.00
C2012  C     0.78060   0.88533   0.18703   0.00000  Uiso   1.00
C2013  C     0.76698   0.86371   0.18486   0.00000  Uiso   1.00
C2014  C     0.77892   0.84110   0.18467   0.00000  Uiso   1.00
N212   N     0.72985   0.90920   0.31429   0.00000  Uiso   1.00
H1249  H     0.41993   0.50429   0.33277   0.00000  Uiso   1.00
H1250  H     0.48638   0.71499   0.21192   0.00000  Uiso   1.00
H1251  H     0.44431   0.72667   0.19666   0.00000  Uiso   1.00
H1252  H     0.47735   0.78046   0.14729   0.00000  Uiso   1.00
H1253  H     0.51936   0.76705   0.16090   0.00000  Uiso   1.00
H1254  H     0.54980   0.26688   0.83249   0.00000  Uiso   1.00
H1255  H     0.59065   0.26367   0.81071   0.00000  Uiso   1.00
H1256  H     0.61393   0.25474   0.77259   0.00000  Uiso   1.00
H1257  H     0.52111   0.64809   0.50948   0.00000  Uiso   1.00
H1258  H     0.55737   0.67214   0.52548   0.00000  Uiso   1.00
H1259  H     0.57784   0.71338   0.53172   0.00000  Uiso   1.00
H1260  H     0.45056   0.75490   0.52734   0.00000  Uiso   1.00
H1261  H     0.45144   0.81078   0.71495   0.00000  Uiso   1.00
H1262  H     0.44085   0.82407   0.79337   0.00000  Uiso   1.00
H1263  H     0.48526   0.81326   0.80094   0.00000  Uiso   1.00
H1264  H     0.90155   0.10072   0.45288   0.00000  Uiso   1.00
H1265  H     0.86352   0.09701   0.47872   0.00000  Uiso   1.00
H1266  H     0.82030   0.08212   0.41277   0.00000  Uiso   1.00
H1267  H     0.85847   0.08463   0.38717   0.00000  Uiso   1.00
H1268  H     0.83834   0.86088   0.19223   0.00000  Uiso   1.00
H1269  H     0.81704   0.90135   0.19201   0.00000  Uiso   1.00
H1270  H     0.74628   0.86459   0.18327   0.00000  Uiso   1.00
H1271  H     0.76794   0.82357   0.18274   0.00000  Uiso   1.00
F105   F     0.50643   0.86174   0.73324   0.00000  Uiso   1.00
F106   F     0.52557   0.89106   0.75633   0.00000  Uiso   1.00
H1272  H     0.40730   0.82914   0.76550   0.00000  Uiso   1.00
O53    O     0.08292   0.22954   0.60091   0.00000  Uiso   1.00
C2015  C     0.41845   0.01624   0.81583   0.00000  Uiso   1.00
C2016  C     0.48427   0.23009   0.69780   0.00000  Uiso   1.00
C2017  C     0.46108   0.23671   0.68961   0.00000  Uiso   1.00
C2018  C     0.45843   0.25568   0.67273   0.00000  Uiso   1.00
C2019  C     0.47930   0.26612   0.66219   0.00000  Uiso   1.00
C2020  C     0.50246   0.25899   0.66991   0.00000  Uiso   1.00
C2021  C     0.50504   0.24189   0.68877   0.00000  Uiso   1.00
C2022  C     0.52869   0.76069   0.29876   0.00000  Uiso   1.00
C2023  C     0.55047   0.76319   0.31205   0.00000  Uiso   1.00
C2024  C     0.57297   0.76111   0.30009   0.00000  Uiso   1.00
C2025  C     0.55165   0.75340   0.26245   0.00000  Uiso   1.00
C2026  C     0.57377   0.75590   0.27508   0.00000  Uiso   1.00
C2027  C     0.59587   0.75278   0.26250   0.00000  Uiso   1.00
C2028  C     0.51179   0.16616   0.00518   0.00000  Uiso   1.00
C2029  C     0.52377   0.18831   0.01021   0.00000  Uiso   1.00
C2030  C     0.51185   0.21020   0.00490   0.00000  Uiso   1.00
C2031  C     0.54735   0.18958   0.02026   0.00000  Uiso   1.00
C2032  C     0.55862   0.21241   0.02388   0.00000  Uiso   1.00
C2033  C     0.54596   0.23384   0.01774   0.00000  Uiso   1.00
C2034  C     0.44537   0.25769   0.98765   0.00000  Uiso   1.00
C2035  C     0.44548   0.26711   0.01131   0.00000  Uiso   1.00
C2036  C     0.50067   0.07049   0.33099   0.00000  Uiso   1.00
C2037  C     0.45867   0.31055   0.23443   0.00000  Uiso   1.00
C2038  C     0.44311   0.31635   0.25394   0.00000  Uiso   1.00
C2039  C     0.45287   0.31796   0.27756   0.00000  Uiso   1.00
C2040  C     0.47740   0.31205   0.28174   0.00000  Uiso   1.00
N213   N     0.53009   0.75692   0.27428   0.00000  Uiso   1.00
N214   N     0.52308   0.23185   0.00897   0.00000  Uiso   1.00
N215   N     0.81761   0.58700   0.96082   0.00000  Uiso   1.00
C2041  C     0.88212   0.59306   0.91847   0.00000  Uiso   1.00
C2042  C     0.88335   0.59638   0.94383   0.00000  Uiso   1.00
C2043  C     0.86234   0.59439   0.95814   0.00000  Uiso   1.00
C2044  C     0.83976   0.58915   0.94715   0.00000  Uiso   1.00
C2045  C     0.83855   0.58603   0.92189   0.00000  Uiso   1.00
C2046  C     0.85955   0.58767   0.90770   0.00000  Uiso   1.00
C2047  C     0.80444   0.33987   0.68686   0.00000  Uiso   1.00
C2048  C     0.81771   0.36156   0.68980   0.00000  Uiso   1.00
C2049  C     0.80587   0.38397   0.68977   0.00000  Uiso   1.00
C2050  C     0.78060   0.38533   0.68703   0.00000  Uiso   1.00
C2051  C     0.76698   0.36371   0.68486   0.00000  Uiso   1.00
C2052  C     0.77892   0.34110   0.68467   0.00000  Uiso   1.00
N216   N     0.72985   0.40920   0.81429   0.00000  Uiso   1.00
H1273  H     0.41993   0.00429   0.83277   0.00000  Uiso   1.00
H1274  H     0.48638   0.21499   0.71192   0.00000  Uiso   1.00
H1275  H     0.44431   0.22667   0.69666   0.00000  Uiso   1.00
H1276  H     0.47735   0.28046   0.64729   0.00000  Uiso   1.00
H1277  H     0.51936   0.26705   0.66090   0.00000  Uiso   1.00
H1278  H     0.54980   0.76688   0.33249   0.00000  Uiso   1.00
H1279  H     0.59065   0.76367   0.31071   0.00000  Uiso   1.00
H1280  H     0.61393   0.75474   0.27259   0.00000  Uiso   1.00
H1281  H     0.52111   0.14809   0.00948   0.00000  Uiso   1.00
H1282  H     0.55737   0.17214   0.02548   0.00000  Uiso   1.00
H1283  H     0.57784   0.21338   0.03172   0.00000  Uiso   1.00
H1284  H     0.45056   0.25490   0.02734   0.00000  Uiso   1.00
H1285  H     0.45144   0.31078   0.21495   0.00000  Uiso   1.00
H1286  H     0.44085   0.32407   0.29337   0.00000  Uiso   1.00
H1287  H     0.48526   0.31326   0.30094   0.00000  Uiso   1.00
H1288  H     0.90155   0.60072   0.95288   0.00000  Uiso   1.00
H1289  H     0.86352   0.59701   0.97872   0.00000  Uiso   1.00
H1290  H     0.82030   0.58212   0.91277   0.00000  Uiso   1.00
H1291  H     0.85847   0.58463   0.88717   0.00000  Uiso   1.00
H1292  H     0.83834   0.36088   0.69223   0.00000  Uiso   1.00
H1293  H     0.81704   0.40135   0.69201   0.00000  Uiso   1.00
H1294  H     0.74628   0.36459   0.68327   0.00000  Uiso   1.00
H1295  H     0.76794   0.32357   0.68274   0.00000  Uiso   1.00
F107   F     0.50643   0.36174   0.23324   0.00000  Uiso   1.00
F108   F     0.52557   0.39106   0.25633   0.00000  Uiso   1.00
H1296  H     0.40730   0.32914   0.26550   0.00000  Uiso   1.00
O54    O     0.08292   0.72954   0.10091   0.00000  Uiso   1.00
C2053  C     0.91845   0.51624   0.81583   0.00000  Uiso   1.00
C2054  C     0.98427   0.73009   0.69780   0.00000  Uiso   1.00
C2055  C     0.96108   0.73671   0.68961   0.00000  Uiso   1.00
C2056  C     0.95843   0.75568   0.67273   0.00000  Uiso   1.00
C2057  C     0.97930   0.76612   0.66219   0.00000  Uiso   1.00
C2058  C     0.00246   0.75899   0.66991   0.00000  Uiso   1.00
C2059  C     0.00504   0.74189   0.68877   0.00000  Uiso   1.00
C2060  C     0.02869   0.26069   0.29876   0.00000  Uiso   1.00
C2061  C     0.05047   0.26319   0.31205   0.00000  Uiso   1.00
C2062  C     0.07297   0.26111   0.30009   0.00000  Uiso   1.00
C2063  C     0.05165   0.25340   0.26245   0.00000  Uiso   1.00
C2064  C     0.07377   0.25590   0.27508   0.00000  Uiso   1.00
C2065  C     0.09587   0.25278   0.26250   0.00000  Uiso   1.00
C2066  C     0.01179   0.66616   0.00518   0.00000  Uiso   1.00
C2067  C     0.02377   0.68831   0.01021   0.00000  Uiso   1.00
C2068  C     0.01185   0.71020   0.00490   0.00000  Uiso   1.00
C2069  C     0.04735   0.68958   0.02026   0.00000  Uiso   1.00
C2070  C     0.05862   0.71241   0.02388   0.00000  Uiso   1.00
C2071  C     0.04596   0.73384   0.01774   0.00000  Uiso   1.00
C2072  C     0.94537   0.75769   0.98765   0.00000  Uiso   1.00
C2073  C     0.94548   0.76711   0.01131   0.00000  Uiso   1.00
C2074  C     0.00067   0.57049   0.33099   0.00000  Uiso   1.00
C2075  C     0.95867   0.81055   0.23443   0.00000  Uiso   1.00
C2076  C     0.94311   0.81635   0.25394   0.00000  Uiso   1.00
C2077  C     0.95287   0.81796   0.27756   0.00000  Uiso   1.00
C2078  C     0.97740   0.81205   0.28174   0.00000  Uiso   1.00
N217   N     0.03009   0.25692   0.27428   0.00000  Uiso   1.00
N218   N     0.02308   0.73185   0.00897   0.00000  Uiso   1.00
N219   N     0.31761   0.08700   0.96082   0.00000  Uiso   1.00
C2079  C     0.38212   0.09306   0.91847   0.00000  Uiso   1.00
C2080  C     0.38335   0.09638   0.94383   0.00000  Uiso   1.00
C2081  C     0.36234   0.09439   0.95814   0.00000  Uiso   1.00
C2082  C     0.33976   0.08915   0.94715   0.00000  Uiso   1.00
C2083  C     0.33855   0.08603   0.92189   0.00000  Uiso   1.00
C2084  C     0.35955   0.08767   0.90770   0.00000  Uiso   1.00
C2085  C     0.30444   0.83987   0.68686   0.00000  Uiso   1.00
C2086  C     0.31771   0.86156   0.68980   0.00000  Uiso   1.00
C2087  C     0.30587   0.88397   0.68977   0.00000  Uiso   1.00
C2088  C     0.28060   0.88533   0.68703   0.00000  Uiso   1.00
C2089  C     0.26698   0.86371   0.68486   0.00000  Uiso   1.00
C2090  C     0.27892   0.84110   0.68467   0.00000  Uiso   1.00
N220   N     0.22985   0.90920   0.81429   0.00000  Uiso   1.00
H1297  H     0.91993   0.50429   0.83277   0.00000  Uiso   1.00
H1298  H     0.98638   0.71499   0.71192   0.00000  Uiso   1.00
H1299  H     0.94431   0.72667   0.69666   0.00000  Uiso   1.00
H1300  H     0.97735   0.78046   0.64729   0.00000  Uiso   1.00
H1301  H     0.01936   0.76705   0.66090   0.00000  Uiso   1.00
H1302  H     0.04980   0.26688   0.33249   0.00000  Uiso   1.00
H1303  H     0.09065   0.26367   0.31071   0.00000  Uiso   1.00
H1304  H     0.11393   0.25474   0.27259   0.00000  Uiso   1.00
H1305  H     0.02111   0.64809   0.00948   0.00000  Uiso   1.00
H1306  H     0.05737   0.67214   0.02548   0.00000  Uiso   1.00
H1307  H     0.07784   0.71338   0.03172   0.00000  Uiso   1.00
H1308  H     0.95056   0.75490   0.02734   0.00000  Uiso   1.00
H1309  H     0.95144   0.81078   0.21495   0.00000  Uiso   1.00
H1310  H     0.94085   0.82407   0.29337   0.00000  Uiso   1.00
H1311  H     0.98526   0.81326   0.30094   0.00000  Uiso   1.00
H1312  H     0.40155   0.10072   0.95288   0.00000  Uiso   1.00
H1313  H     0.36352   0.09701   0.97872   0.00000  Uiso   1.00
H1314  H     0.32030   0.08212   0.91277   0.00000  Uiso   1.00
H1315  H     0.35847   0.08463   0.88717   0.00000  Uiso   1.00
H1316  H     0.33834   0.86088   0.69223   0.00000  Uiso   1.00
H1317  H     0.31704   0.90135   0.69201   0.00000  Uiso   1.00
H1318  H     0.24628   0.86459   0.68327   0.00000  Uiso   1.00
H1319  H     0.26794   0.82357   0.68274   0.00000  Uiso   1.00
F109   F     0.00643   0.86174   0.23324   0.00000  Uiso   1.00
F110   F     0.02557   0.89106   0.25633   0.00000  Uiso   1.00
H1320  H     0.90730   0.82914   0.26550   0.00000  Uiso   1.00
O55    O     0.58292   0.22954   0.10091   0.00000  Uiso   1.00
C2091  C     0.91845   0.01624   0.31583   0.00000  Uiso   1.00
C2092  C     0.98427   0.23009   0.19780   0.00000  Uiso   1.00
C2093  C     0.96108   0.23671   0.18961   0.00000  Uiso   1.00
C2094  C     0.95843   0.25568   0.17273   0.00000  Uiso   1.00
C2095  C     0.97930   0.26612   0.16219   0.00000  Uiso   1.00
C2096  C     0.00246   0.25899   0.16991   0.00000  Uiso   1.00
C2097  C     0.00504   0.24189   0.18877   0.00000  Uiso   1.00
C2098  C     0.02869   0.76069   0.79876   0.00000  Uiso   1.00
C2099  C     0.05047   0.76319   0.81205   0.00000  Uiso   1.00
C2100  C     0.07297   0.76111   0.80009   0.00000  Uiso   1.00
C2101  C     0.05165   0.75340   0.76245   0.00000  Uiso   1.00
C2102  C     0.07377   0.75590   0.77508   0.00000  Uiso   1.00
C2103  C     0.09587   0.75278   0.76250   0.00000  Uiso   1.00
C2104  C     0.01179   0.16616   0.50518   0.00000  Uiso   1.00
C2105  C     0.02377   0.18831   0.51021   0.00000  Uiso   1.00
C2106  C     0.01185   0.21020   0.50490   0.00000  Uiso   1.00
C2107  C     0.04735   0.18958   0.52026   0.00000  Uiso   1.00
C2108  C     0.05862   0.21241   0.52388   0.00000  Uiso   1.00
C2109  C     0.04596   0.23384   0.51774   0.00000  Uiso   1.00
C2110  C     0.94537   0.25769   0.48765   0.00000  Uiso   1.00
C2111  C     0.94548   0.26711   0.51131   0.00000  Uiso   1.00
C2112  C     0.00067   0.07049   0.83099   0.00000  Uiso   1.00
C2113  C     0.95867   0.31055   0.73443   0.00000  Uiso   1.00
C2114  C     0.94311   0.31635   0.75394   0.00000  Uiso   1.00
C2115  C     0.95287   0.31796   0.77756   0.00000  Uiso   1.00
C2116  C     0.97740   0.31205   0.78174   0.00000  Uiso   1.00
N221   N     0.03009   0.75692   0.77428   0.00000  Uiso   1.00
N222   N     0.02308   0.23185   0.50897   0.00000  Uiso   1.00
N223   N     0.31761   0.58700   0.46082   0.00000  Uiso   1.00
C2117  C     0.38212   0.59306   0.41847   0.00000  Uiso   1.00
C2118  C     0.38335   0.59638   0.44383   0.00000  Uiso   1.00
C2119  C     0.36234   0.59439   0.45814   0.00000  Uiso   1.00
C2120  C     0.33976   0.58915   0.44715   0.00000  Uiso   1.00
C2121  C     0.33855   0.58603   0.42189   0.00000  Uiso   1.00
C2122  C     0.35955   0.58767   0.40770   0.00000  Uiso   1.00
C2123  C     0.30444   0.33987   0.18686   0.00000  Uiso   1.00
C2124  C     0.31771   0.36156   0.18980   0.00000  Uiso   1.00
C2125  C     0.30587   0.38397   0.18977   0.00000  Uiso   1.00
C2126  C     0.28060   0.38533   0.18703   0.00000  Uiso   1.00
C2127  C     0.26698   0.36371   0.18486   0.00000  Uiso   1.00
C2128  C     0.27892   0.34110   0.18467   0.00000  Uiso   1.00
N224   N     0.22985   0.40920   0.31429   0.00000  Uiso   1.00
H1321  H     0.91993   0.00429   0.33277   0.00000  Uiso   1.00
H1322  H     0.98638   0.21499   0.21192   0.00000  Uiso   1.00
H1323  H     0.94431   0.22667   0.19666   0.00000  Uiso   1.00
H1324  H     0.97735   0.28046   0.14729   0.00000  Uiso   1.00
H1325  H     0.01936   0.26705   0.16090   0.00000  Uiso   1.00
H1326  H     0.04980   0.76688   0.83249   0.00000  Uiso   1.00
H1327  H     0.09065   0.76367   0.81071   0.00000  Uiso   1.00
H1328  H     0.11393   0.75474   0.77259   0.00000  Uiso   1.00
H1329  H     0.02111   0.14809   0.50948   0.00000  Uiso   1.00
H1330  H     0.05737   0.17214   0.52548   0.00000  Uiso   1.00
H1331  H     0.07784   0.21338   0.53172   0.00000  Uiso   1.00
H1332  H     0.95056   0.25490   0.52734   0.00000  Uiso   1.00
H1333  H     0.95144   0.31078   0.71495   0.00000  Uiso   1.00
H1334  H     0.94085   0.32407   0.79337   0.00000  Uiso   1.00
H1335  H     0.98526   0.31326   0.80094   0.00000  Uiso   1.00
H1336  H     0.40155   0.60072   0.45288   0.00000  Uiso   1.00
H1337  H     0.36352   0.59701   0.47872   0.00000  Uiso   1.00
H1338  H     0.32030   0.58212   0.41277   0.00000  Uiso   1.00
H1339  H     0.35847   0.58463   0.38717   0.00000  Uiso   1.00
H1340  H     0.33834   0.36088   0.19223   0.00000  Uiso   1.00
H1341  H     0.31704   0.40135   0.19201   0.00000  Uiso   1.00
H1342  H     0.24628   0.36459   0.18327   0.00000  Uiso   1.00
H1343  H     0.26794   0.32357   0.18274   0.00000  Uiso   1.00
F111   F     0.00643   0.36174   0.73324   0.00000  Uiso   1.00
F112   F     0.02557   0.39106   0.75633   0.00000  Uiso   1.00
H1344  H     0.90730   0.32914   0.76550   0.00000  Uiso   1.00
O56    O     0.58292   0.72954   0.60091   0.00000  Uiso   1.00
C2129  C     0.08155   0.01624   0.68417   0.00000  Uiso   1.00
C2130  C     0.01573   0.23009   0.80220   0.00000  Uiso   1.00
C2131  C     0.03892   0.23671   0.81039   0.00000  Uiso   1.00
C2132  C     0.04157   0.25568   0.82727   0.00000  Uiso   1.00
C2133  C     0.02070   0.26612   0.83781   0.00000  Uiso   1.00
C2134  C     0.99754   0.25899   0.83009   0.00000  Uiso   1.00
C2135  C     0.99496   0.24189   0.81123   0.00000  Uiso   1.00
C2136  C     0.97131   0.76069   0.20124   0.00000  Uiso   1.00
C2137  C     0.94953   0.76319   0.18795   0.00000  Uiso   1.00
C2138  C     0.92703   0.76111   0.19991   0.00000  Uiso   1.00
C2139  C     0.94835   0.75340   0.23755   0.00000  Uiso   1.00
C2140  C     0.92623   0.75590   0.22492   0.00000  Uiso   1.00
C2141  C     0.90413   0.75278   0.23750   0.00000  Uiso   1.00
C2142  C     0.98821   0.16616   0.49482   0.00000  Uiso   1.00
C2143  C     0.97623   0.18831   0.48979   0.00000  Uiso   1.00
C2144  C     0.98815   0.21020   0.49510   0.00000  Uiso   1.00
C2145  C     0.95265   0.18958   0.47974   0.00000  Uiso   1.00
C2146  C     0.94138   0.21241   0.47612   0.00000  Uiso   1.00
C2147  C     0.95404   0.23384   0.48226   0.00000  Uiso   1.00
C2148  C     0.05463   0.25769   0.51235   0.00000  Uiso   1.00
C2149  C     0.05452   0.26711   0.48869   0.00000  Uiso   1.00
C2150  C     0.99933   0.07049   0.16901   0.00000  Uiso   1.00
C2151  C     0.04133   0.31055   0.26557   0.00000  Uiso   1.00
C2152  C     0.05689   0.31635   0.24606   0.00000  Uiso   1.00
C2153  C     0.04713   0.31796   0.22244   0.00000  Uiso   1.00
C2154  C     0.02260   0.31205   0.21826   0.00000  Uiso   1.00
N225   N     0.96991   0.75692   0.22572   0.00000  Uiso   1.00
N226   N     0.97692   0.23185   0.49103   0.00000  Uiso   1.00
N227   N     0.68239   0.58700   0.53918   0.00000  Uiso   1.00
C2155  C     0.61788   0.59306   0.58153   0.00000  Uiso   1.00
C2156  C     0.61665   0.59638   0.55617   0.00000  Uiso   1.00
C2157  C     0.63766   0.59439   0.54186   0.00000  Uiso   1.00
C2158  C     0.66024   0.58915   0.55285   0.00000  Uiso   1.00
C2159  C     0.66145   0.58603   0.57811   0.00000  Uiso   1.00
C2160  C     0.64045   0.58767   0.59230   0.00000  Uiso   1.00
C2161  C     0.69556   0.33987   0.81314   0.00000  Uiso   1.00
C2162  C     0.68229   0.36156   0.81020   0.00000  Uiso   1.00
C2163  C     0.69413   0.38397   0.81023   0.00000  Uiso   1.00
C2164  C     0.71940   0.38533   0.81297   0.00000  Uiso   1.00
C2165  C     0.73302   0.36371   0.81514   0.00000  Uiso   1.00
C2166  C     0.72108   0.34110   0.81533   0.00000  Uiso   1.00
N228   N     0.77015   0.40920   0.68571   0.00000  Uiso   1.00
H1345  H     0.08007   0.00429   0.66723   0.00000  Uiso   1.00
H1346  H     0.01362   0.21499   0.78808   0.00000  Uiso   1.00
H1347  H     0.05569   0.22667   0.80334   0.00000  Uiso   1.00
H1348  H     0.02265   0.28046   0.85271   0.00000  Uiso   1.00
H1349  H     0.98064   0.26705   0.83910   0.00000  Uiso   1.00
H1350  H     0.95020   0.76688   0.16751   0.00000  Uiso   1.00
H1351  H     0.90935   0.76367   0.18929   0.00000  Uiso   1.00
H1352  H     0.88607   0.75474   0.22741   0.00000  Uiso   1.00
H1353  H     0.97889   0.14809   0.49052   0.00000  Uiso   1.00
H1354  H     0.94263   0.17214   0.47452   0.00000  Uiso   1.00
H1355  H     0.92216   0.21338   0.46828   0.00000  Uiso   1.00
H1356  H     0.04944   0.25490   0.47266   0.00000  Uiso   1.00
H1357  H     0.04856   0.31078   0.28505   0.00000  Uiso   1.00
H1358  H     0.05915   0.32407   0.20663   0.00000  Uiso   1.00
H1359  H     0.01474   0.31326   0.19906   0.00000  Uiso   1.00
H1360  H     0.59845   0.60072   0.54712   0.00000  Uiso   1.00
H1361  H     0.63648   0.59701   0.52128   0.00000  Uiso   1.00
H1362  H     0.67970   0.58212   0.58723   0.00000  Uiso   1.00
H1363  H     0.64153   0.58463   0.61283   0.00000  Uiso   1.00
H1364  H     0.66166   0.36088   0.80777   0.00000  Uiso   1.00
H1365  H     0.68296   0.40135   0.80799   0.00000  Uiso   1.00
H1366  H     0.75372   0.36459   0.81673   0.00000  Uiso   1.00
H1367  H     0.73206   0.32357   0.81726   0.00000  Uiso   1.00
F113   F     0.99357   0.36174   0.26676   0.00000  Uiso   1.00
F114   F     0.97443   0.39106   0.24367   0.00000  Uiso   1.00
H1368  H     0.09270   0.32914   0.23450   0.00000  Uiso   1.00
O57    O     0.41708   0.72954   0.39909   0.00000  Uiso   1.00
C2167  C     0.08155   0.51624   0.18417   0.00000  Uiso   1.00
C2168  C     0.01573   0.73009   0.30220   0.00000  Uiso   1.00
C2169  C     0.03892   0.73671   0.31039   0.00000  Uiso   1.00
C2170  C     0.04157   0.75568   0.32727   0.00000  Uiso   1.00
C2171  C     0.02070   0.76612   0.33781   0.00000  Uiso   1.00
C2172  C     0.99754   0.75899   0.33009   0.00000  Uiso   1.00
C2173  C     0.99496   0.74189   0.31123   0.00000  Uiso   1.00
C2174  C     0.97131   0.26069   0.70124   0.00000  Uiso   1.00
C2175  C     0.94953   0.26319   0.68795   0.00000  Uiso   1.00
C2176  C     0.92703   0.26111   0.69991   0.00000  Uiso   1.00
C2177  C     0.94835   0.25340   0.73755   0.00000  Uiso   1.00
C2178  C     0.92623   0.25590   0.72492   0.00000  Uiso   1.00
C2179  C     0.90413   0.25278   0.73750   0.00000  Uiso   1.00
C2180  C     0.98821   0.66616   0.99482   0.00000  Uiso   1.00
C2181  C     0.97623   0.68831   0.98979   0.00000  Uiso   1.00
C2182  C     0.98815   0.71020   0.99510   0.00000  Uiso   1.00
C2183  C     0.95265   0.68958   0.97974   0.00000  Uiso   1.00
C2184  C     0.94138   0.71241   0.97612   0.00000  Uiso   1.00
C2185  C     0.95404   0.73384   0.98226   0.00000  Uiso   1.00
C2186  C     0.05463   0.75769   0.01235   0.00000  Uiso   1.00
C2187  C     0.05452   0.76711   0.98869   0.00000  Uiso   1.00
C2188  C     0.99933   0.57049   0.66901   0.00000  Uiso   1.00
C2189  C     0.04133   0.81055   0.76557   0.00000  Uiso   1.00
C2190  C     0.05689   0.81635   0.74606   0.00000  Uiso   1.00
C2191  C     0.04713   0.81796   0.72244   0.00000  Uiso   1.00
C2192  C     0.02260   0.81205   0.71826   0.00000  Uiso   1.00
N229   N     0.96991   0.25692   0.72572   0.00000  Uiso   1.00
N230   N     0.97692   0.73185   0.99103   0.00000  Uiso   1.00
N231   N     0.68239   0.08700   0.03918   0.00000  Uiso   1.00
C2193  C     0.61788   0.09306   0.08153   0.00000  Uiso   1.00
C2194  C     0.61665   0.09638   0.05617   0.00000  Uiso   1.00
C2195  C     0.63766   0.09439   0.04186   0.00000  Uiso   1.00
C2196  C     0.66024   0.08915   0.05285   0.00000  Uiso   1.00
C2197  C     0.66145   0.08603   0.07811   0.00000  Uiso   1.00
C2198  C     0.64045   0.08767   0.09230   0.00000  Uiso   1.00
C2199  C     0.69556   0.83987   0.31314   0.00000  Uiso   1.00
C2200  C     0.68229   0.86156   0.31020   0.00000  Uiso   1.00
C2201  C     0.69413   0.88397   0.31023   0.00000  Uiso   1.00
C2202  C     0.71940   0.88533   0.31297   0.00000  Uiso   1.00
C2203  C     0.73302   0.86371   0.31514   0.00000  Uiso   1.00
C2204  C     0.72108   0.84110   0.31533   0.00000  Uiso   1.00
N232   N     0.77015   0.90920   0.18571   0.00000  Uiso   1.00
H1369  H     0.08007   0.50429   0.16723   0.00000  Uiso   1.00
H1370  H     0.01362   0.71499   0.28808   0.00000  Uiso   1.00
H1371  H     0.05569   0.72667   0.30334   0.00000  Uiso   1.00
H1372  H     0.02265   0.78046   0.35271   0.00000  Uiso   1.00
H1373  H     0.98064   0.76705   0.33910   0.00000  Uiso   1.00
H1374  H     0.95020   0.26688   0.66751   0.00000  Uiso   1.00
H1375  H     0.90935   0.26367   0.68929   0.00000  Uiso   1.00
H1376  H     0.88607   0.25474   0.72741   0.00000  Uiso   1.00
H1377  H     0.97889   0.64809   0.99052   0.00000  Uiso   1.00
H1378  H     0.94263   0.67214   0.97452   0.00000  Uiso   1.00
H1379  H     0.92216   0.71338   0.96828   0.00000  Uiso   1.00
H1380  H     0.04944   0.75490   0.97266   0.00000  Uiso   1.00
H1381  H     0.04856   0.81078   0.78505   0.00000  Uiso   1.00
H1382  H     0.05915   0.82407   0.70663   0.00000  Uiso   1.00
H1383  H     0.01474   0.81326   0.69906   0.00000  Uiso   1.00
H1384  H     0.59845   0.10072   0.04712   0.00000  Uiso   1.00
H1385  H     0.63648   0.09701   0.02128   0.00000  Uiso   1.00
H1386  H     0.67970   0.08212   0.08723   0.00000  Uiso   1.00
H1387  H     0.64153   0.08463   0.11283   0.00000  Uiso   1.00
H1388  H     0.66166   0.86088   0.30777   0.00000  Uiso   1.00
H1389  H     0.68296   0.90135   0.30799   0.00000  Uiso   1.00
H1390  H     0.75372   0.86459   0.31673   0.00000  Uiso   1.00
H1391  H     0.73206   0.82357   0.31726   0.00000  Uiso   1.00
F115   F     0.99357   0.86174   0.76676   0.00000  Uiso   1.00
F116   F     0.97443   0.89106   0.74367   0.00000  Uiso   1.00
H1392  H     0.09270   0.82914   0.73450   0.00000  Uiso   1.00
O58    O     0.41708   0.22954   0.89909   0.00000  Uiso   1.00
C2205  C     0.58155   0.01624   0.18417   0.00000  Uiso   1.00
C2206  C     0.51573   0.23009   0.30220   0.00000  Uiso   1.00
C2207  C     0.53892   0.23671   0.31039   0.00000  Uiso   1.00
C2208  C     0.54157   0.25568   0.32727   0.00000  Uiso   1.00
C2209  C     0.52070   0.26612   0.33781   0.00000  Uiso   1.00
C2210  C     0.49754   0.25899   0.33009   0.00000  Uiso   1.00
C2211  C     0.49496   0.24189   0.31123   0.00000  Uiso   1.00
C2212  C     0.47131   0.76069   0.70124   0.00000  Uiso   1.00
C2213  C     0.44953   0.76319   0.68795   0.00000  Uiso   1.00
C2214  C     0.42703   0.76111   0.69991   0.00000  Uiso   1.00
C2215  C     0.44835   0.75340   0.73755   0.00000  Uiso   1.00
C2216  C     0.42623   0.75590   0.72492   0.00000  Uiso   1.00
C2217  C     0.40413   0.75278   0.73750   0.00000  Uiso   1.00
C2218  C     0.48821   0.16616   0.99482   0.00000  Uiso   1.00
C2219  C     0.47623   0.18831   0.98979   0.00000  Uiso   1.00
C2220  C     0.48815   0.21020   0.99510   0.00000  Uiso   1.00
C2221  C     0.45265   0.18958   0.97974   0.00000  Uiso   1.00
C2222  C     0.44138   0.21241   0.97612   0.00000  Uiso   1.00
C2223  C     0.45404   0.23384   0.98226   0.00000  Uiso   1.00
C2224  C     0.55463   0.25769   0.01235   0.00000  Uiso   1.00
C2225  C     0.55452   0.26711   0.98869   0.00000  Uiso   1.00
C2226  C     0.49933   0.07049   0.66901   0.00000  Uiso   1.00
C2227  C     0.54133   0.31055   0.76557   0.00000  Uiso   1.00
C2228  C     0.55689   0.31635   0.74606   0.00000  Uiso   1.00
C2229  C     0.54713   0.31796   0.72244   0.00000  Uiso   1.00
C2230  C     0.52260   0.31205   0.71826   0.00000  Uiso   1.00
N233   N     0.46991   0.75692   0.72572   0.00000  Uiso   1.00
N234   N     0.47692   0.23185   0.99103   0.00000  Uiso   1.00
N235   N     0.18239   0.58700   0.03918   0.00000  Uiso   1.00
C2231  C     0.11788   0.59306   0.08153   0.00000  Uiso   1.00
C2232  C     0.11665   0.59638   0.05617   0.00000  Uiso   1.00
C2233  C     0.13766   0.59439   0.04186   0.00000  Uiso   1.00
C2234  C     0.16024   0.58915   0.05285   0.00000  Uiso   1.00
C2235  C     0.16145   0.58603   0.07811   0.00000  Uiso   1.00
C2236  C     0.14045   0.58767   0.09230   0.00000  Uiso   1.00
C2237  C     0.19556   0.33987   0.31314   0.00000  Uiso   1.00
C2238  C     0.18229   0.36156   0.31020   0.00000  Uiso   1.00
C2239  C     0.19413   0.38397   0.31023   0.00000  Uiso   1.00
C2240  C     0.21940   0.38533   0.31297   0.00000  Uiso   1.00
C2241  C     0.23302   0.36371   0.31514   0.00000  Uiso   1.00
C2242  C     0.22108   0.34110   0.31533   0.00000  Uiso   1.00
N236   N     0.27015   0.40920   0.18571   0.00000  Uiso   1.00
H1393  H     0.58007   0.00429   0.16723   0.00000  Uiso   1.00
H1394  H     0.51362   0.21499   0.28808   0.00000  Uiso   1.00
H1395  H     0.55569   0.22667   0.30334   0.00000  Uiso   1.00
H1396  H     0.52265   0.28046   0.35271   0.00000  Uiso   1.00
H1397  H     0.48064   0.26705   0.33910   0.00000  Uiso   1.00
H1398  H     0.45020   0.76688   0.66751   0.00000  Uiso   1.00
H1399  H     0.40935   0.76367   0.68929   0.00000  Uiso   1.00
H1400  H     0.38607   0.75474   0.72741   0.00000  Uiso   1.00
H1401  H     0.47889   0.14809   0.99052   0.00000  Uiso   1.00
H1402  H     0.44263   0.17214   0.97452   0.00000  Uiso   1.00
H1403  H     0.42216   0.21338   0.96828   0.00000  Uiso   1.00
H1404  H     0.54944   0.25490   0.97266   0.00000  Uiso   1.00
H1405  H     0.54856   0.31078   0.78505   0.00000  Uiso   1.00
H1406  H     0.55915   0.32407   0.70663   0.00000  Uiso   1.00
H1407  H     0.51474   0.31326   0.69906   0.00000  Uiso   1.00
H1408  H     0.09845   0.60072   0.04712   0.00000  Uiso   1.00
H1409  H     0.13648   0.59701   0.02128   0.00000  Uiso   1.00
H1410  H     0.17970   0.58212   0.08723   0.00000  Uiso   1.00
H1411  H     0.14153   0.58463   0.11283   0.00000  Uiso   1.00
H1412  H     0.16166   0.36088   0.30777   0.00000  Uiso   1.00
H1413  H     0.18296   0.40135   0.30799   0.00000  Uiso   1.00
H1414  H     0.25372   0.36459   0.31673   0.00000  Uiso   1.00
H1415  H     0.23206   0.32357   0.31726   0.00000  Uiso   1.00
F117   F     0.49357   0.36174   0.76676   0.00000  Uiso   1.00
F118   F     0.47443   0.39106   0.74367   0.00000  Uiso   1.00
H1416  H     0.59270   0.32914   0.73450   0.00000  Uiso   1.00
O59    O     0.91708   0.72954   0.89909   0.00000  Uiso   1.00
C2243  C     0.58155   0.51624   0.68417   0.00000  Uiso   1.00
C2244  C     0.51573   0.73009   0.80220   0.00000  Uiso   1.00
C2245  C     0.53892   0.73671   0.81039   0.00000  Uiso   1.00
C2246  C     0.54157   0.75568   0.82727   0.00000  Uiso   1.00
C2247  C     0.52070   0.76612   0.83781   0.00000  Uiso   1.00
C2248  C     0.49754   0.75899   0.83009   0.00000  Uiso   1.00
C2249  C     0.49496   0.74189   0.81123   0.00000  Uiso   1.00
C2250  C     0.47131   0.26069   0.20124   0.00000  Uiso   1.00
C2251  C     0.44953   0.26319   0.18795   0.00000  Uiso   1.00
C2252  C     0.42703   0.26111   0.19991   0.00000  Uiso   1.00
C2253  C     0.44835   0.25340   0.23755   0.00000  Uiso   1.00
C2254  C     0.42623   0.25590   0.22492   0.00000  Uiso   1.00
C2255  C     0.40413   0.25278   0.23750   0.00000  Uiso   1.00
C2256  C     0.48821   0.66616   0.49482   0.00000  Uiso   1.00
C2257  C     0.47623   0.68831   0.48979   0.00000  Uiso   1.00
C2258  C     0.48815   0.71020   0.49510   0.00000  Uiso   1.00
C2259  C     0.45265   0.68958   0.47974   0.00000  Uiso   1.00
C2260  C     0.44138   0.71241   0.47612   0.00000  Uiso   1.00
C2261  C     0.45404   0.73384   0.48226   0.00000  Uiso   1.00
C2262  C     0.55463   0.75769   0.51235   0.00000  Uiso   1.00
C2263  C     0.55452   0.76711   0.48869   0.00000  Uiso   1.00
C2264  C     0.49933   0.57049   0.16901   0.00000  Uiso   1.00
C2265  C     0.54133   0.81055   0.26557   0.00000  Uiso   1.00
C2266  C     0.55689   0.81635   0.24606   0.00000  Uiso   1.00
C2267  C     0.54713   0.81796   0.22244   0.00000  Uiso   1.00
C2268  C     0.52260   0.81205   0.21826   0.00000  Uiso   1.00
N237   N     0.46991   0.25692   0.22572   0.00000  Uiso   1.00
N238   N     0.47692   0.73185   0.49103   0.00000  Uiso   1.00
N239   N     0.18239   0.08700   0.53918   0.00000  Uiso   1.00
C2269  C     0.11788   0.09306   0.58153   0.00000  Uiso   1.00
C2270  C     0.11665   0.09638   0.55617   0.00000  Uiso   1.00
C2271  C     0.13766   0.09439   0.54186   0.00000  Uiso   1.00
C2272  C     0.16024   0.08915   0.55285   0.00000  Uiso   1.00
C2273  C     0.16145   0.08603   0.57811   0.00000  Uiso   1.00
C2274  C     0.14045   0.08767   0.59230   0.00000  Uiso   1.00
C2275  C     0.19556   0.83987   0.81314   0.00000  Uiso   1.00
C2276  C     0.18229   0.86156   0.81020   0.00000  Uiso   1.00
C2277  C     0.19413   0.88397   0.81023   0.00000  Uiso   1.00
C2278  C     0.21940   0.88533   0.81297   0.00000  Uiso   1.00
C2279  C     0.23302   0.86371   0.81514   0.00000  Uiso   1.00
C2280  C     0.22108   0.84110   0.81533   0.00000  Uiso   1.00
N240   N     0.27015   0.90920   0.68571   0.00000  Uiso   1.00
H1417  H     0.58007   0.50429   0.66723   0.00000  Uiso   1.00
H1418  H     0.51362   0.71499   0.78808   0.00000  Uiso   1.00
H1419  H     0.55569   0.72667   0.80334   0.00000  Uiso   1.00
H1420  H     0.52265   0.78046   0.85271   0.00000  Uiso   1.00
H1421  H     0.48064   0.76705   0.83910   0.00000  Uiso   1.00
H1422  H     0.45020   0.26688   0.16751   0.00000  Uiso   1.00
H1423  H     0.40935   0.26367   0.18929   0.00000  Uiso   1.00
H1424  H     0.38607   0.25474   0.22741   0.00000  Uiso   1.00
H1425  H     0.47889   0.64809   0.49052   0.00000  Uiso   1.00
H1426  H     0.44263   0.67214   0.47452   0.00000  Uiso   1.00
H1427  H     0.42216   0.71338   0.46828   0.00000  Uiso   1.00
H1428  H     0.54944   0.75490   0.47266   0.00000  Uiso   1.00
H1429  H     0.54856   0.81078   0.28505   0.00000  Uiso   1.00
H1430  H     0.55915   0.82407   0.20663   0.00000  Uiso   1.00
H1431  H     0.51474   0.81326   0.19906   0.00000  Uiso   1.00
H1432  H     0.09845   0.10072   0.54712   0.00000  Uiso   1.00
H1433  H     0.13648   0.09701   0.52128   0.00000  Uiso   1.00
H1434  H     0.17970   0.08212   0.58723   0.00000  Uiso   1.00
H1435  H     0.14153   0.08463   0.61283   0.00000  Uiso   1.00
H1436  H     0.16166   0.86088   0.80777   0.00000  Uiso   1.00
H1437  H     0.18296   0.90135   0.80799   0.00000  Uiso   1.00
H1438  H     0.25372   0.86459   0.81673   0.00000  Uiso   1.00
H1439  H     0.23206   0.82357   0.81726   0.00000  Uiso   1.00
F119   F     0.49357   0.86174   0.26676   0.00000  Uiso   1.00
F120   F     0.47443   0.89106   0.24367   0.00000  Uiso   1.00
H1440  H     0.59270   0.82914   0.23450   0.00000  Uiso   1.00
O60    O     0.91708   0.22954   0.39909   0.00000  Uiso   1.00
C2281  C     0.91845   0.48376   0.18417   0.00000  Uiso   1.00
C2282  C     0.98427   0.26991   0.30220   0.00000  Uiso   1.00
C2283  C     0.96108   0.26329   0.31039   0.00000  Uiso   1.00
C2284  C     0.95843   0.24432   0.32727   0.00000  Uiso   1.00
C2285  C     0.97930   0.23388   0.33781   0.00000  Uiso   1.00
C2286  C     0.00246   0.24101   0.33009   0.00000  Uiso   1.00
C2287  C     0.00504   0.25811   0.31123   0.00000  Uiso   1.00
C2288  C     0.02869   0.73931   0.70124   0.00000  Uiso   1.00
C2289  C     0.05047   0.73681   0.68795   0.00000  Uiso   1.00
C2290  C     0.07297   0.73889   0.69991   0.00000  Uiso   1.00
C2291  C     0.05165   0.74660   0.73755   0.00000  Uiso   1.00
C2292  C     0.07377   0.74410   0.72492   0.00000  Uiso   1.00
C2293  C     0.09587   0.74722   0.73750   0.00000  Uiso   1.00
C2294  C     0.01179   0.33384   0.99482   0.00000  Uiso   1.00
C2295  C     0.02377   0.31169   0.98979   0.00000  Uiso   1.00
C2296  C     0.01185   0.28980   0.99510   0.00000  Uiso   1.00
C2297  C     0.04735   0.31042   0.97974   0.00000  Uiso   1.00
C2298  C     0.05862   0.28759   0.97612   0.00000  Uiso   1.00
C2299  C     0.04596   0.26616   0.98226   0.00000  Uiso   1.00
C2300  C     0.94537   0.24231   0.01235   0.00000  Uiso   1.00
C2301  C     0.94548   0.23289   0.98869   0.00000  Uiso   1.00
C2302  C     0.00067   0.42951   0.66901   0.00000  Uiso   1.00
C2303  C     0.95867   0.18945   0.76557   0.00000  Uiso   1.00
C2304  C     0.94311   0.18365   0.74606   0.00000  Uiso   1.00
C2305  C     0.95287   0.18204   0.72244   0.00000  Uiso   1.00
C2306  C     0.97740   0.18795   0.71826   0.00000  Uiso   1.00
N241   N     0.03009   0.74308   0.72572   0.00000  Uiso   1.00
N242   N     0.02308   0.26815   0.99103   0.00000  Uiso   1.00
N243   N     0.31761   0.91300   0.03918   0.00000  Uiso   1.00
C2307  C     0.38212   0.90694   0.08153   0.00000  Uiso   1.00
C2308  C     0.38335   0.90362   0.05617   0.00000  Uiso   1.00
C2309  C     0.36234   0.90561   0.04186   0.00000  Uiso   1.00
C2310  C     0.33976   0.91085   0.05285   0.00000  Uiso   1.00
C2311  C     0.33855   0.91397   0.07811   0.00000  Uiso   1.00
C2312  C     0.35955   0.91233   0.09230   0.00000  Uiso   1.00
C2313  C     0.30444   0.16013   0.31314   0.00000  Uiso   1.00
C2314  C     0.31771   0.13844   0.31020   0.00000  Uiso   1.00
C2315  C     0.30587   0.11603   0.31023   0.00000  Uiso   1.00
C2316  C     0.28060   0.11467   0.31297   0.00000  Uiso   1.00
C2317  C     0.26698   0.13629   0.31514   0.00000  Uiso   1.00
C2318  C     0.27892   0.15890   0.31533   0.00000  Uiso   1.00
N244   N     0.22985   0.09080   0.18571   0.00000  Uiso   1.00
H1441  H     0.91993   0.49571   0.16723   0.00000  Uiso   1.00
H1442  H     0.98638   0.28501   0.28808   0.00000  Uiso   1.00
H1443  H     0.94431   0.27333   0.30334   0.00000  Uiso   1.00
H1444  H     0.97735   0.21954   0.35271   0.00000  Uiso   1.00
H1445  H     0.01936   0.23295   0.33910   0.00000  Uiso   1.00
H1446  H     0.04980   0.73312   0.66751   0.00000  Uiso   1.00
H1447  H     0.09065   0.73633   0.68929   0.00000  Uiso   1.00
H1448  H     0.11393   0.74526   0.72741   0.00000  Uiso   1.00
H1449  H     0.02111   0.35191   0.99052   0.00000  Uiso   1.00
H1450  H     0.05737   0.32786   0.97452   0.00000  Uiso   1.00
H1451  H     0.07784   0.28662   0.96828   0.00000  Uiso   1.00
H1452  H     0.95056   0.24510   0.97266   0.00000  Uiso   1.00
H1453  H     0.95144   0.18922   0.78505   0.00000  Uiso   1.00
H1454  H     0.94085   0.17593   0.70663   0.00000  Uiso   1.00
H1455  H     0.98526   0.18674   0.69906   0.00000  Uiso   1.00
H1456  H     0.40155   0.89928   0.04712   0.00000  Uiso   1.00
H1457  H     0.36352   0.90299   0.02128   0.00000  Uiso   1.00
H1458  H     0.32030   0.91788   0.08723   0.00000  Uiso   1.00
H1459  H     0.35847   0.91537   0.11283   0.00000  Uiso   1.00
H1460  H     0.33834   0.13912   0.30777   0.00000  Uiso   1.00
H1461  H     0.31704   0.09865   0.30799   0.00000  Uiso   1.00
H1462  H     0.24628   0.13541   0.31673   0.00000  Uiso   1.00
H1463  H     0.26794   0.17643   0.31726   0.00000  Uiso   1.00
F121   F     0.00643   0.13826   0.76676   0.00000  Uiso   1.00
F122   F     0.02557   0.10894   0.74367   0.00000  Uiso   1.00
H1464  H     0.90730   0.17086   0.73450   0.00000  Uiso   1.00
O61    O     0.58292   0.77046   0.89909   0.00000  Uiso   1.00
C2319  C     0.91845   0.98376   0.68417   0.00000  Uiso   1.00
C2320  C     0.98427   0.76991   0.80220   0.00000  Uiso   1.00
C2321  C     0.96108   0.76329   0.81039   0.00000  Uiso   1.00
C2322  C     0.95843   0.74432   0.82727   0.00000  Uiso   1.00
C2323  C     0.97930   0.73388   0.83781   0.00000  Uiso   1.00
C2324  C     0.00246   0.74101   0.83009   0.00000  Uiso   1.00
C2325  C     0.00504   0.75811   0.81123   0.00000  Uiso   1.00
C2326  C     0.02869   0.23931   0.20124   0.00000  Uiso   1.00
C2327  C     0.05047   0.23681   0.18795   0.00000  Uiso   1.00
C2328  C     0.07297   0.23889   0.19991   0.00000  Uiso   1.00
C2329  C     0.05165   0.24660   0.23755   0.00000  Uiso   1.00
C2330  C     0.07377   0.24410   0.22492   0.00000  Uiso   1.00
C2331  C     0.09587   0.24722   0.23750   0.00000  Uiso   1.00
C2332  C     0.01179   0.83384   0.49482   0.00000  Uiso   1.00
C2333  C     0.02377   0.81169   0.48979   0.00000  Uiso   1.00
C2334  C     0.01185   0.78980   0.49510   0.00000  Uiso   1.00
C2335  C     0.04735   0.81042   0.47974   0.00000  Uiso   1.00
C2336  C     0.05862   0.78759   0.47612   0.00000  Uiso   1.00
C2337  C     0.04596   0.76616   0.48226   0.00000  Uiso   1.00
C2338  C     0.94537   0.74231   0.51235   0.00000  Uiso   1.00
C2339  C     0.94548   0.73289   0.48869   0.00000  Uiso   1.00
C2340  C     0.00067   0.92951   0.16901   0.00000  Uiso   1.00
C2341  C     0.95867   0.68945   0.26557   0.00000  Uiso   1.00
C2342  C     0.94311   0.68365   0.24606   0.00000  Uiso   1.00
C2343  C     0.95287   0.68204   0.22244   0.00000  Uiso   1.00
C2344  C     0.97740   0.68795   0.21826   0.00000  Uiso   1.00
N245   N     0.03009   0.24308   0.22572   0.00000  Uiso   1.00
N246   N     0.02308   0.76815   0.49103   0.00000  Uiso   1.00
N247   N     0.31761   0.41300   0.53918   0.00000  Uiso   1.00
C2345  C     0.38212   0.40694   0.58153   0.00000  Uiso   1.00
C2346  C     0.38335   0.40362   0.55617   0.00000  Uiso   1.00
C2347  C     0.36234   0.40561   0.54186   0.00000  Uiso   1.00
C2348  C     0.33976   0.41085   0.55285   0.00000  Uiso   1.00
C2349  C     0.33855   0.41397   0.57811   0.00000  Uiso   1.00
C2350  C     0.35955   0.41233   0.59230   0.00000  Uiso   1.00
C2351  C     0.30444   0.66013   0.81314   0.00000  Uiso   1.00
C2352  C     0.31771   0.63844   0.81020   0.00000  Uiso   1.00
C2353  C     0.30587   0.61603   0.81023   0.00000  Uiso   1.00
C2354  C     0.28060   0.61467   0.81297   0.00000  Uiso   1.00
C2355  C     0.26698   0.63629   0.81514   0.00000  Uiso   1.00
C2356  C     0.27892   0.65890   0.81533   0.00000  Uiso   1.00
N248   N     0.22985   0.59080   0.68571   0.00000  Uiso   1.00
H1465  H     0.91993   0.99571   0.66723   0.00000  Uiso   1.00
H1466  H     0.98638   0.78501   0.78808   0.00000  Uiso   1.00
H1467  H     0.94431   0.77333   0.80334   0.00000  Uiso   1.00
H1468  H     0.97735   0.71954   0.85271   0.00000  Uiso   1.00
H1469  H     0.01936   0.73295   0.83910   0.00000  Uiso   1.00
H1470  H     0.04980   0.23312   0.16751   0.00000  Uiso   1.00
H1471  H     0.09065   0.23633   0.18929   0.00000  Uiso   1.00
H1472  H     0.11393   0.24526   0.22741   0.00000  Uiso   1.00
H1473  H     0.02111   0.85191   0.49052   0.00000  Uiso   1.00
H1474  H     0.05737   0.82786   0.47452   0.00000  Uiso   1.00
H1475  H     0.07784   0.78662   0.46828   0.00000  Uiso   1.00
H1476  H     0.95056   0.74510   0.47266   0.00000  Uiso   1.00
H1477  H     0.95144   0.68922   0.28505   0.00000  Uiso   1.00
H1478  H     0.94085   0.67593   0.20663   0.00000  Uiso   1.00
H1479  H     0.98526   0.68674   0.19906   0.00000  Uiso   1.00
H1480  H     0.40155   0.39928   0.54712   0.00000  Uiso   1.00
H1481  H     0.36352   0.40299   0.52128   0.00000  Uiso   1.00
H1482  H     0.32030   0.41788   0.58723   0.00000  Uiso   1.00
H1483  H     0.35847   0.41537   0.61283   0.00000  Uiso   1.00
H1484  H     0.33834   0.63912   0.80777   0.00000  Uiso   1.00
H1485  H     0.31704   0.59865   0.80799   0.00000  Uiso   1.00
H1486  H     0.24628   0.63541   0.81673   0.00000  Uiso   1.00
H1487  H     0.26794   0.67643   0.81726   0.00000  Uiso   1.00
F123   F     0.00643   0.63826   0.26676   0.00000  Uiso   1.00
F124   F     0.02557   0.60894   0.24367   0.00000  Uiso   1.00
H1488  H     0.90730   0.67086   0.23450   0.00000  Uiso   1.00
O62    O     0.58292   0.27046   0.39909   0.00000  Uiso   1.00
C2357  C     0.41845   0.48376   0.68417   0.00000  Uiso   1.00
C2358  C     0.48427   0.26991   0.80220   0.00000  Uiso   1.00
C2359  C     0.46108   0.26329   0.81039   0.00000  Uiso   1.00
C2360  C     0.45843   0.24432   0.82727   0.00000  Uiso   1.00
C2361  C     0.47930   0.23388   0.83781   0.00000  Uiso   1.00
C2362  C     0.50246   0.24101   0.83009   0.00000  Uiso   1.00
C2363  C     0.50504   0.25811   0.81123   0.00000  Uiso   1.00
C2364  C     0.52869   0.73931   0.20124   0.00000  Uiso   1.00
C2365  C     0.55047   0.73681   0.18795   0.00000  Uiso   1.00
C2366  C     0.57297   0.73889   0.19991   0.00000  Uiso   1.00
C2367  C     0.55165   0.74660   0.23755   0.00000  Uiso   1.00
C2368  C     0.57377   0.74410   0.22492   0.00000  Uiso   1.00
C2369  C     0.59587   0.74722   0.23750   0.00000  Uiso   1.00
C2370  C     0.51179   0.33384   0.49482   0.00000  Uiso   1.00
C2371  C     0.52377   0.31169   0.48979   0.00000  Uiso   1.00
C2372  C     0.51185   0.28980   0.49510   0.00000  Uiso   1.00
C2373  C     0.54735   0.31042   0.47974   0.00000  Uiso   1.00
C2374  C     0.55862   0.28759   0.47612   0.00000  Uiso   1.00
C2375  C     0.54596   0.26616   0.48226   0.00000  Uiso   1.00
C2376  C     0.44537   0.24231   0.51235   0.00000  Uiso   1.00
C2377  C     0.44548   0.23289   0.48869   0.00000  Uiso   1.00
C2378  C     0.50067   0.42951   0.16901   0.00000  Uiso   1.00
C2379  C     0.45867   0.18945   0.26557   0.00000  Uiso   1.00
C2380  C     0.44311   0.18365   0.24606   0.00000  Uiso   1.00
C2381  C     0.45287   0.18204   0.22244   0.00000  Uiso   1.00
C2382  C     0.47740   0.18795   0.21826   0.00000  Uiso   1.00
N249   N     0.53009   0.74308   0.22572   0.00000  Uiso   1.00
N250   N     0.52308   0.26815   0.49103   0.00000  Uiso   1.00
N251   N     0.81761   0.91300   0.53918   0.00000  Uiso   1.00
C2383  C     0.88212   0.90694   0.58153   0.00000  Uiso   1.00
C2384  C     0.88335   0.90362   0.55617   0.00000  Uiso   1.00
C2385  C     0.86234   0.90561   0.54186   0.00000  Uiso   1.00
C2386  C     0.83976   0.91085   0.55285   0.00000  Uiso   1.00
C2387  C     0.83855   0.91397   0.57811   0.00000  Uiso   1.00
C2388  C     0.85955   0.91233   0.59230   0.00000  Uiso   1.00
C2389  C     0.80444   0.16013   0.81314   0.00000  Uiso   1.00
C2390  C     0.81771   0.13844   0.81020   0.00000  Uiso   1.00
C2391  C     0.80587   0.11603   0.81023   0.00000  Uiso   1.00
C2392  C     0.78060   0.11467   0.81297   0.00000  Uiso   1.00
C2393  C     0.76698   0.13629   0.81514   0.00000  Uiso   1.00
C2394  C     0.77892   0.15890   0.81533   0.00000  Uiso   1.00
N252   N     0.72985   0.09080   0.68571   0.00000  Uiso   1.00
H1489  H     0.41993   0.49571   0.66723   0.00000  Uiso   1.00
H1490  H     0.48638   0.28501   0.78808   0.00000  Uiso   1.00
H1491  H     0.44431   0.27333   0.80334   0.00000  Uiso   1.00
H1492  H     0.47735   0.21954   0.85271   0.00000  Uiso   1.00
H1493  H     0.51936   0.23295   0.83910   0.00000  Uiso   1.00
H1494  H     0.54980   0.73312   0.16751   0.00000  Uiso   1.00
H1495  H     0.59065   0.73633   0.18929   0.00000  Uiso   1.00
H1496  H     0.61393   0.74526   0.22741   0.00000  Uiso   1.00
H1497  H     0.52111   0.35191   0.49052   0.00000  Uiso   1.00
H1498  H     0.55737   0.32786   0.47452   0.00000  Uiso   1.00
H1499  H     0.57784   0.28662   0.46828   0.00000  Uiso   1.00
H1500  H     0.45056   0.24510   0.47266   0.00000  Uiso   1.00
H1501  H     0.45144   0.18922   0.28505   0.00000  Uiso   1.00
H1502  H     0.44085   0.17593   0.20663   0.00000  Uiso   1.00
H1503  H     0.48526   0.18674   0.19906   0.00000  Uiso   1.00
H1504  H     0.90155   0.89928   0.54712   0.00000  Uiso   1.00
H1505  H     0.86352   0.90299   0.52128   0.00000  Uiso   1.00
H1506  H     0.82030   0.91788   0.58723   0.00000  Uiso   1.00
H1507  H     0.85847   0.91537   0.61283   0.00000  Uiso   1.00
H1508  H     0.83834   0.13912   0.80777   0.00000  Uiso   1.00
H1509  H     0.81704   0.09865   0.80799   0.00000  Uiso   1.00
H1510  H     0.74628   0.13541   0.81673   0.00000  Uiso   1.00
H1511  H     0.76794   0.17643   0.81726   0.00000  Uiso   1.00
F125   F     0.50643   0.13826   0.26676   0.00000  Uiso   1.00
F126   F     0.52557   0.10894   0.24367   0.00000  Uiso   1.00
H1512  H     0.40730   0.17086   0.23450   0.00000  Uiso   1.00
O63    O     0.08292   0.77046   0.39909   0.00000  Uiso   1.00
C2395  C     0.41845   0.98376   0.18417   0.00000  Uiso   1.00
C2396  C     0.48427   0.76991   0.30220   0.00000  Uiso   1.00
C2397  C     0.46108   0.76329   0.31039   0.00000  Uiso   1.00
C2398  C     0.45843   0.74432   0.32727   0.00000  Uiso   1.00
C2399  C     0.47930   0.73388   0.33781   0.00000  Uiso   1.00
C2400  C     0.50246   0.74101   0.33009   0.00000  Uiso   1.00
C2401  C     0.50504   0.75811   0.31123   0.00000  Uiso   1.00
C2402  C     0.52869   0.23931   0.70124   0.00000  Uiso   1.00
C2403  C     0.55047   0.23681   0.68795   0.00000  Uiso   1.00
C2404  C     0.57297   0.23889   0.69991   0.00000  Uiso   1.00
C2405  C     0.55165   0.24660   0.73755   0.00000  Uiso   1.00
C2406  C     0.57377   0.24410   0.72492   0.00000  Uiso   1.00
C2407  C     0.59587   0.24722   0.73750   0.00000  Uiso   1.00
C2408  C     0.51179   0.83384   0.99482   0.00000  Uiso   1.00
C2409  C     0.52377   0.81169   0.98979   0.00000  Uiso   1.00
C2410  C     0.51185   0.78980   0.99510   0.00000  Uiso   1.00
C2411  C     0.54735   0.81042   0.97974   0.00000  Uiso   1.00
C2412  C     0.55862   0.78759   0.97612   0.00000  Uiso   1.00
C2413  C     0.54596   0.76616   0.98226   0.00000  Uiso   1.00
C2414  C     0.44537   0.74231   0.01235   0.00000  Uiso   1.00
C2415  C     0.44548   0.73289   0.98869   0.00000  Uiso   1.00
C2416  C     0.50067   0.92951   0.66901   0.00000  Uiso   1.00
C2417  C     0.45867   0.68945   0.76557   0.00000  Uiso   1.00
C2418  C     0.44311   0.68365   0.74606   0.00000  Uiso   1.00
C2419  C     0.45287   0.68204   0.72244   0.00000  Uiso   1.00
C2420  C     0.47740   0.68795   0.71826   0.00000  Uiso   1.00
N253   N     0.53009   0.24308   0.72572   0.00000  Uiso   1.00
N254   N     0.52308   0.76815   0.99103   0.00000  Uiso   1.00
N255   N     0.81761   0.41300   0.03918   0.00000  Uiso   1.00
C2421  C     0.88212   0.40694   0.08153   0.00000  Uiso   1.00
C2422  C     0.88335   0.40362   0.05617   0.00000  Uiso   1.00
C2423  C     0.86234   0.40561   0.04186   0.00000  Uiso   1.00
C2424  C     0.83976   0.41085   0.05285   0.00000  Uiso   1.00
C2425  C     0.83855   0.41397   0.07811   0.00000  Uiso   1.00
C2426  C     0.85955   0.41233   0.09230   0.00000  Uiso   1.00
C2427  C     0.80444   0.66013   0.31314   0.00000  Uiso   1.00
C2428  C     0.81771   0.63844   0.31020   0.00000  Uiso   1.00
C2429  C     0.80587   0.61603   0.31023   0.00000  Uiso   1.00
C2430  C     0.78060   0.61467   0.31297   0.00000  Uiso   1.00
C2431  C     0.76698   0.63629   0.31514   0.00000  Uiso   1.00
C2432  C     0.77892   0.65890   0.31533   0.00000  Uiso   1.00
N256   N     0.72985   0.59080   0.18571   0.00000  Uiso   1.00
H1513  H     0.41993   0.99571   0.16723   0.00000  Uiso   1.00
H1514  H     0.48638   0.78501   0.28808   0.00000  Uiso   1.00
H1515  H     0.44431   0.77333   0.30334   0.00000  Uiso   1.00
H1516  H     0.47735   0.71954   0.35271   0.00000  Uiso   1.00
H1517  H     0.51936   0.73295   0.33910   0.00000  Uiso   1.00
H1518  H     0.54980   0.23312   0.66751   0.00000  Uiso   1.00
H1519  H     0.59065   0.23633   0.68929   0.00000  Uiso   1.00
H1520  H     0.61393   0.24526   0.72741   0.00000  Uiso   1.00
H1521  H     0.52111   0.85191   0.99052   0.00000  Uiso   1.00
H1522  H     0.55737   0.82786   0.97452   0.00000  Uiso   1.00
H1523  H     0.57784   0.78662   0.96828   0.00000  Uiso   1.00
H1524  H     0.45056   0.74510   0.97266   0.00000  Uiso   1.00
H1525  H     0.45144   0.68922   0.78505   0.00000  Uiso   1.00
H1526  H     0.44085   0.67593   0.70663   0.00000  Uiso   1.00
H1527  H     0.48526   0.68674   0.69906   0.00000  Uiso   1.00
H1528  H     0.90155   0.39928   0.04712   0.00000  Uiso   1.00
H1529  H     0.86352   0.40299   0.02128   0.00000  Uiso   1.00
H1530  H     0.82030   0.41788   0.08723   0.00000  Uiso   1.00
H1531  H     0.85847   0.41537   0.11283   0.00000  Uiso   1.00
H1532  H     0.83834   0.63912   0.30777   0.00000  Uiso   1.00
H1533  H     0.81704   0.59865   0.30799   0.00000  Uiso   1.00
H1534  H     0.74628   0.63541   0.31673   0.00000  Uiso   1.00
H1535  H     0.76794   0.67643   0.31726   0.00000  Uiso   1.00
F127   F     0.50643   0.63826   0.76676   0.00000  Uiso   1.00
F128   F     0.52557   0.60894   0.74367   0.00000  Uiso   1.00
H1536  H     0.40730   0.67086   0.73450   0.00000  Uiso   1.00
O64    O     0.08292   0.27046   0.89909   0.00000  Uiso   1.00
C2433  C     0.48376   0.18417   0.91845   0.00000  Uiso   1.00
C2434  C     0.26991   0.30220   0.98427   0.00000  Uiso   1.00
C2435  C     0.26329   0.31039   0.96108   0.00000  Uiso   1.00
C2436  C     0.24432   0.32727   0.95843   0.00000  Uiso   1.00
C2437  C     0.23388   0.33781   0.97930   0.00000  Uiso   1.00
C2438  C     0.24101   0.33009   0.00246   0.00000  Uiso   1.00
C2439  C     0.25811   0.31123   0.00504   0.00000  Uiso   1.00
C2440  C     0.73931   0.70124   0.02869   0.00000  Uiso   1.00
C2441  C     0.73681   0.68795   0.05047   0.00000  Uiso   1.00
C2442  C     0.73889   0.69991   0.07297   0.00000  Uiso   1.00
C2443  C     0.74660   0.73755   0.05165   0.00000  Uiso   1.00
C2444  C     0.74410   0.72492   0.07377   0.00000  Uiso   1.00
C2445  C     0.74722   0.73750   0.09587   0.00000  Uiso   1.00
C2446  C     0.33384   0.99482   0.01179   0.00000  Uiso   1.00
C2447  C     0.31169   0.98979   0.02377   0.00000  Uiso   1.00
C2448  C     0.28980   0.99510   0.01185   0.00000  Uiso   1.00
C2449  C     0.31042   0.97974   0.04735   0.00000  Uiso   1.00
C2450  C     0.28759   0.97612   0.05862   0.00000  Uiso   1.00
C2451  C     0.26616   0.98226   0.04596   0.00000  Uiso   1.00
C2452  C     0.24231   0.01235   0.94537   0.00000  Uiso   1.00
C2453  C     0.23289   0.98869   0.94548   0.00000  Uiso   1.00
C2454  C     0.42951   0.66901   0.00067   0.00000  Uiso   1.00
C2455  C     0.18945   0.76557   0.95867   0.00000  Uiso   1.00
C2456  C     0.18365   0.74606   0.94311   0.00000  Uiso   1.00
C2457  C     0.18204   0.72244   0.95287   0.00000  Uiso   1.00
C2458  C     0.18795   0.71826   0.97740   0.00000  Uiso   1.00
N257   N     0.74308   0.72572   0.03009   0.00000  Uiso   1.00
N258   N     0.26815   0.99103   0.02308   0.00000  Uiso   1.00
N259   N     0.91300   0.03918   0.31761   0.00000  Uiso   1.00
C2459  C     0.90694   0.08153   0.38212   0.00000  Uiso   1.00
C2460  C     0.90362   0.05617   0.38335   0.00000  Uiso   1.00
C2461  C     0.90561   0.04186   0.36234   0.00000  Uiso   1.00
C2462  C     0.91085   0.05285   0.33976   0.00000  Uiso   1.00
C2463  C     0.91397   0.07811   0.33855   0.00000  Uiso   1.00
C2464  C     0.91233   0.09230   0.35955   0.00000  Uiso   1.00
C2465  C     0.16013   0.31314   0.30444   0.00000  Uiso   1.00
C2466  C     0.13844   0.31020   0.31771   0.00000  Uiso   1.00
C2467  C     0.11603   0.31023   0.30587   0.00000  Uiso   1.00
C2468  C     0.11467   0.31297   0.28060   0.00000  Uiso   1.00
C2469  C     0.13629   0.31514   0.26698   0.00000  Uiso   1.00
C2470  C     0.15890   0.31533   0.27892   0.00000  Uiso   1.00
N260   N     0.09080   0.18571   0.22985   0.00000  Uiso   1.00
H1537  H     0.49571   0.16723   0.91993   0.00000  Uiso   1.00
H1538  H     0.28501   0.28808   0.98638   0.00000  Uiso   1.00
H1539  H     0.27333   0.30334   0.94431   0.00000  Uiso   1.00
H1540  H     0.21954   0.35271   0.97735   0.00000  Uiso   1.00
H1541  H     0.23295   0.33910   0.01936   0.00000  Uiso   1.00
H1542  H     0.73312   0.66751   0.04980   0.00000  Uiso   1.00
H1543  H     0.73633   0.68929   0.09065   0.00000  Uiso   1.00
H1544  H     0.74526   0.72741   0.11393   0.00000  Uiso   1.00
H1545  H     0.35191   0.99052   0.02111   0.00000  Uiso   1.00
H1546  H     0.32786   0.97452   0.05737   0.00000  Uiso   1.00
H1547  H     0.28662   0.96828   0.07784   0.00000  Uiso   1.00
H1548  H     0.24510   0.97266   0.95056   0.00000  Uiso   1.00
H1549  H     0.18922   0.78505   0.95144   0.00000  Uiso   1.00
H1550  H     0.17593   0.70663   0.94085   0.00000  Uiso   1.00
H1551  H     0.18674   0.69906   0.98526   0.00000  Uiso   1.00
H1552  H     0.89928   0.04712   0.40155   0.00000  Uiso   1.00
H1553  H     0.90299   0.02128   0.36352   0.00000  Uiso   1.00
H1554  H     0.91788   0.08723   0.32030   0.00000  Uiso   1.00
H1555  H     0.91537   0.11283   0.35847   0.00000  Uiso   1.00
H1556  H     0.13912   0.30777   0.33834   0.00000  Uiso   1.00
H1557  H     0.09865   0.30799   0.31704   0.00000  Uiso   1.00
H1558  H     0.13541   0.31673   0.24628   0.00000  Uiso   1.00
H1559  H     0.17643   0.31726   0.26794   0.00000  Uiso   1.00
F129   F     0.13826   0.76676   0.00643   0.00000  Uiso   1.00
F130   F     0.10894   0.74367   0.02557   0.00000  Uiso   1.00
H1560  H     0.17086   0.73450   0.90730   0.00000  Uiso   1.00
O65    O     0.77046   0.89909   0.58292   0.00000  Uiso   1.00
C2471  C     0.48376   0.68417   0.41845   0.00000  Uiso   1.00
C2472  C     0.26991   0.80220   0.48427   0.00000  Uiso   1.00
C2473  C     0.26329   0.81039   0.46108   0.00000  Uiso   1.00
C2474  C     0.24432   0.82727   0.45843   0.00000  Uiso   1.00
C2475  C     0.23388   0.83781   0.47930   0.00000  Uiso   1.00
C2476  C     0.24101   0.83009   0.50246   0.00000  Uiso   1.00
C2477  C     0.25811   0.81123   0.50504   0.00000  Uiso   1.00
C2478  C     0.73931   0.20124   0.52869   0.00000  Uiso   1.00
C2479  C     0.73681   0.18795   0.55047   0.00000  Uiso   1.00
C2480  C     0.73889   0.19991   0.57297   0.00000  Uiso   1.00
C2481  C     0.74660   0.23755   0.55165   0.00000  Uiso   1.00
C2482  C     0.74410   0.22492   0.57377   0.00000  Uiso   1.00
C2483  C     0.74722   0.23750   0.59587   0.00000  Uiso   1.00
C2484  C     0.33384   0.49482   0.51179   0.00000  Uiso   1.00
C2485  C     0.31169   0.48979   0.52377   0.00000  Uiso   1.00
C2486  C     0.28980   0.49510   0.51185   0.00000  Uiso   1.00
C2487  C     0.31042   0.47974   0.54735   0.00000  Uiso   1.00
C2488  C     0.28759   0.47612   0.55862   0.00000  Uiso   1.00
C2489  C     0.26616   0.48226   0.54596   0.00000  Uiso   1.00
C2490  C     0.24231   0.51235   0.44537   0.00000  Uiso   1.00
C2491  C     0.23289   0.48869   0.44548   0.00000  Uiso   1.00
C2492  C     0.42951   0.16901   0.50067   0.00000  Uiso   1.00
C2493  C     0.18945   0.26557   0.45867   0.00000  Uiso   1.00
C2494  C     0.18365   0.24606   0.44311   0.00000  Uiso   1.00
C2495  C     0.18204   0.22244   0.45287   0.00000  Uiso   1.00
C2496  C     0.18795   0.21826   0.47740   0.00000  Uiso   1.00
N261   N     0.74308   0.22572   0.53009   0.00000  Uiso   1.00
N262   N     0.26815   0.49103   0.52308   0.00000  Uiso   1.00
N263   N     0.91300   0.53918   0.81761   0.00000  Uiso   1.00
C2497  C     0.90694   0.58153   0.88212   0.00000  Uiso   1.00
C2498  C     0.90362   0.55617   0.88335   0.00000  Uiso   1.00
C2499  C     0.90561   0.54186   0.86234   0.00000  Uiso   1.00
C2500  C     0.91085   0.55285   0.83976   0.00000  Uiso   1.00
C2501  C     0.91397   0.57811   0.83855   0.00000  Uiso   1.00
C2502  C     0.91233   0.59230   0.85955   0.00000  Uiso   1.00
C2503  C     0.16013   0.81314   0.80444   0.00000  Uiso   1.00
C2504  C     0.13844   0.81020   0.81771   0.00000  Uiso   1.00
C2505  C     0.11603   0.81023   0.80587   0.00000  Uiso   1.00
C2506  C     0.11467   0.81297   0.78060   0.00000  Uiso   1.00
C2507  C     0.13629   0.81514   0.76698   0.00000  Uiso   1.00
C2508  C     0.15890   0.81533   0.77892   0.00000  Uiso   1.00
N264   N     0.09080   0.68571   0.72985   0.00000  Uiso   1.00
H1561  H     0.49571   0.66723   0.41993   0.00000  Uiso   1.00
H1562  H     0.28501   0.78808   0.48638   0.00000  Uiso   1.00
H1563  H     0.27333   0.80334   0.44431   0.00000  Uiso   1.00
H1564  H     0.21954   0.85271   0.47735   0.00000  Uiso   1.00
H1565  H     0.23295   0.83910   0.51936   0.00000  Uiso   1.00
H1566  H     0.73312   0.16751   0.54980   0.00000  Uiso   1.00
H1567  H     0.73633   0.18929   0.59065   0.00000  Uiso   1.00
H1568  H     0.74526   0.22741   0.61393   0.00000  Uiso   1.00
H1569  H     0.35191   0.49052   0.52111   0.00000  Uiso   1.00
H1570  H     0.32786   0.47452   0.55737   0.00000  Uiso   1.00
H1571  H     0.28662   0.46828   0.57784   0.00000  Uiso   1.00
H1572  H     0.24510   0.47266   0.45056   0.00000  Uiso   1.00
H1573  H     0.18922   0.28505   0.45144   0.00000  Uiso   1.00
H1574  H     0.17593   0.20663   0.44085   0.00000  Uiso   1.00
H1575  H     0.18674   0.19906   0.48526   0.00000  Uiso   1.00
H1576  H     0.89928   0.54712   0.90155   0.00000  Uiso   1.00
H1577  H     0.90299   0.52128   0.86352   0.00000  Uiso   1.00
H1578  H     0.91788   0.58723   0.82030   0.00000  Uiso   1.00
H1579  H     0.91537   0.61283   0.85847   0.00000  Uiso   1.00
H1580  H     0.13912   0.80777   0.83834   0.00000  Uiso   1.00
H1581  H     0.09865   0.80799   0.81704   0.00000  Uiso   1.00
H1582  H     0.13541   0.81673   0.74628   0.00000  Uiso   1.00
H1583  H     0.17643   0.81726   0.76794   0.00000  Uiso   1.00
F131   F     0.13826   0.26676   0.50643   0.00000  Uiso   1.00
F132   F     0.10894   0.24367   0.52557   0.00000  Uiso   1.00
H1584  H     0.17086   0.23450   0.40730   0.00000  Uiso   1.00
O66    O     0.77046   0.39909   0.08292   0.00000  Uiso   1.00
C2509  C     0.98376   0.18417   0.41845   0.00000  Uiso   1.00
C2510  C     0.76991   0.30220   0.48427   0.00000  Uiso   1.00
C2511  C     0.76329   0.31039   0.46108   0.00000  Uiso   1.00
C2512  C     0.74432   0.32727   0.45843   0.00000  Uiso   1.00
C2513  C     0.73388   0.33781   0.47930   0.00000  Uiso   1.00
C2514  C     0.74101   0.33009   0.50246   0.00000  Uiso   1.00
C2515  C     0.75811   0.31123   0.50504   0.00000  Uiso   1.00
C2516  C     0.23931   0.70124   0.52869   0.00000  Uiso   1.00
C2517  C     0.23681   0.68795   0.55047   0.00000  Uiso   1.00
C2518  C     0.23889   0.69991   0.57297   0.00000  Uiso   1.00
C2519  C     0.24660   0.73755   0.55165   0.00000  Uiso   1.00
C2520  C     0.24410   0.72492   0.57377   0.00000  Uiso   1.00
C2521  C     0.24722   0.73750   0.59587   0.00000  Uiso   1.00
C2522  C     0.83384   0.99482   0.51179   0.00000  Uiso   1.00
C2523  C     0.81169   0.98979   0.52377   0.00000  Uiso   1.00
C2524  C     0.78980   0.99510   0.51185   0.00000  Uiso   1.00
C2525  C     0.81042   0.97974   0.54735   0.00000  Uiso   1.00
C2526  C     0.78759   0.97612   0.55862   0.00000  Uiso   1.00
C2527  C     0.76616   0.98226   0.54596   0.00000  Uiso   1.00
C2528  C     0.74231   0.01235   0.44537   0.00000  Uiso   1.00
C2529  C     0.73289   0.98869   0.44548   0.00000  Uiso   1.00
C2530  C     0.92951   0.66901   0.50067   0.00000  Uiso   1.00
C2531  C     0.68945   0.76557   0.45867   0.00000  Uiso   1.00
C2532  C     0.68365   0.74606   0.44311   0.00000  Uiso   1.00
C2533  C     0.68204   0.72244   0.45287   0.00000  Uiso   1.00
C2534  C     0.68795   0.71826   0.47740   0.00000  Uiso   1.00
N265   N     0.24308   0.72572   0.53009   0.00000  Uiso   1.00
N266   N     0.76815   0.99103   0.52308   0.00000  Uiso   1.00
N267   N     0.41300   0.03918   0.81761   0.00000  Uiso   1.00
C2535  C     0.40694   0.08153   0.88212   0.00000  Uiso   1.00
C2536  C     0.40362   0.05617   0.88335   0.00000  Uiso   1.00
C2537  C     0.40561   0.04186   0.86234   0.00000  Uiso   1.00
C2538  C     0.41085   0.05285   0.83976   0.00000  Uiso   1.00
C2539  C     0.41397   0.07811   0.83855   0.00000  Uiso   1.00
C2540  C     0.41233   0.09230   0.85955   0.00000  Uiso   1.00
C2541  C     0.66013   0.31314   0.80444   0.00000  Uiso   1.00
C2542  C     0.63844   0.31020   0.81771   0.00000  Uiso   1.00
C2543  C     0.61603   0.31023   0.80587   0.00000  Uiso   1.00
C2544  C     0.61467   0.31297   0.78060   0.00000  Uiso   1.00
C2545  C     0.63629   0.31514   0.76698   0.00000  Uiso   1.00
C2546  C     0.65890   0.31533   0.77892   0.00000  Uiso   1.00
N268   N     0.59080   0.18571   0.72985   0.00000  Uiso   1.00
H1585  H     0.99571   0.16723   0.41993   0.00000  Uiso   1.00
H1586  H     0.78501   0.28808   0.48638   0.00000  Uiso   1.00
H1587  H     0.77333   0.30334   0.44431   0.00000  Uiso   1.00
H1588  H     0.71954   0.35271   0.47735   0.00000  Uiso   1.00
H1589  H     0.73295   0.33910   0.51936   0.00000  Uiso   1.00
H1590  H     0.23312   0.66751   0.54980   0.00000  Uiso   1.00
H1591  H     0.23633   0.68929   0.59065   0.00000  Uiso   1.00
H1592  H     0.24526   0.72741   0.61393   0.00000  Uiso   1.00
H1593  H     0.85191   0.99052   0.52111   0.00000  Uiso   1.00
H1594  H     0.82786   0.97452   0.55737   0.00000  Uiso   1.00
H1595  H     0.78662   0.96828   0.57784   0.00000  Uiso   1.00
H1596  H     0.74510   0.97266   0.45056   0.00000  Uiso   1.00
H1597  H     0.68922   0.78505   0.45144   0.00000  Uiso   1.00
H1598  H     0.67593   0.70663   0.44085   0.00000  Uiso   1.00
H1599  H     0.68674   0.69906   0.48526   0.00000  Uiso   1.00
H1600  H     0.39928   0.04712   0.90155   0.00000  Uiso   1.00
H1601  H     0.40299   0.02128   0.86352   0.00000  Uiso   1.00
H1602  H     0.41788   0.08723   0.82030   0.00000  Uiso   1.00
H1603  H     0.41537   0.11283   0.85847   0.00000  Uiso   1.00
H1604  H     0.63912   0.30777   0.83834   0.00000  Uiso   1.00
H1605  H     0.59865   0.30799   0.81704   0.00000  Uiso   1.00
H1606  H     0.63541   0.31673   0.74628   0.00000  Uiso   1.00
H1607  H     0.67643   0.31726   0.76794   0.00000  Uiso   1.00
F133   F     0.63826   0.76676   0.50643   0.00000  Uiso   1.00
F134   F     0.60894   0.74367   0.52557   0.00000  Uiso   1.00
H1608  H     0.67086   0.73450   0.40730   0.00000  Uiso   1.00
O67    O     0.27046   0.89909   0.08292   0.00000  Uiso   1.00
C2547  C     0.98376   0.68417   0.91845   0.00000  Uiso   1.00
C2548  C     0.76991   0.80220   0.98427   0.00000  Uiso   1.00
C2549  C     0.76329   0.81039   0.96108   0.00000  Uiso   1.00
C2550  C     0.74432   0.82727   0.95843   0.00000  Uiso   1.00
C2551  C     0.73388   0.83781   0.97930   0.00000  Uiso   1.00
C2552  C     0.74101   0.83009   0.00246   0.00000  Uiso   1.00
C2553  C     0.75811   0.81123   0.00504   0.00000  Uiso   1.00
C2554  C     0.23931   0.20124   0.02869   0.00000  Uiso   1.00
C2555  C     0.23681   0.18795   0.05047   0.00000  Uiso   1.00
C2556  C     0.23889   0.19991   0.07297   0.00000  Uiso   1.00
C2557  C     0.24660   0.23755   0.05165   0.00000  Uiso   1.00
C2558  C     0.24410   0.22492   0.07377   0.00000  Uiso   1.00
C2559  C     0.24722   0.23750   0.09587   0.00000  Uiso   1.00
C2560  C     0.83384   0.49482   0.01179   0.00000  Uiso   1.00
C2561  C     0.81169   0.48979   0.02377   0.00000  Uiso   1.00
C2562  C     0.78980   0.49510   0.01185   0.00000  Uiso   1.00
C2563  C     0.81042   0.47974   0.04735   0.00000  Uiso   1.00
C2564  C     0.78759   0.47612   0.05862   0.00000  Uiso   1.00
C2565  C     0.76616   0.48226   0.04596   0.00000  Uiso   1.00
C2566  C     0.74231   0.51235   0.94537   0.00000  Uiso   1.00
C2567  C     0.73289   0.48869   0.94548   0.00000  Uiso   1.00
C2568  C     0.92951   0.16901   0.00067   0.00000  Uiso   1.00
C2569  C     0.68945   0.26557   0.95867   0.00000  Uiso   1.00
C2570  C     0.68365   0.24606   0.94311   0.00000  Uiso   1.00
C2571  C     0.68204   0.22244   0.95287   0.00000  Uiso   1.00
C2572  C     0.68795   0.21826   0.97740   0.00000  Uiso   1.00
N269   N     0.24308   0.22572   0.03009   0.00000  Uiso   1.00
N270   N     0.76815   0.49103   0.02308   0.00000  Uiso   1.00
N271   N     0.41300   0.53918   0.31761   0.00000  Uiso   1.00
C2573  C     0.40694   0.58153   0.38212   0.00000  Uiso   1.00
C2574  C     0.40362   0.55617   0.38335   0.00000  Uiso   1.00
C2575  C     0.40561   0.54186   0.36234   0.00000  Uiso   1.00
C2576  C     0.41085   0.55285   0.33976   0.00000  Uiso   1.00
C2577  C     0.41397   0.57811   0.33855   0.00000  Uiso   1.00
C2578  C     0.41233   0.59230   0.35955   0.00000  Uiso   1.00
C2579  C     0.66013   0.81314   0.30444   0.00000  Uiso   1.00
C2580  C     0.63844   0.81020   0.31771   0.00000  Uiso   1.00
C2581  C     0.61603   0.81023   0.30587   0.00000  Uiso   1.00
C2582  C     0.61467   0.81297   0.28060   0.00000  Uiso   1.00
C2583  C     0.63629   0.81514   0.26698   0.00000  Uiso   1.00
C2584  C     0.65890   0.81533   0.27892   0.00000  Uiso   1.00
N272   N     0.59080   0.68571   0.22985   0.00000  Uiso   1.00
H1609  H     0.99571   0.66723   0.91993   0.00000  Uiso   1.00
H1610  H     0.78501   0.78808   0.98638   0.00000  Uiso   1.00
H1611  H     0.77333   0.80334   0.94431   0.00000  Uiso   1.00
H1612  H     0.71954   0.85271   0.97735   0.00000  Uiso   1.00
H1613  H     0.73295   0.83910   0.01936   0.00000  Uiso   1.00
H1614  H     0.23312   0.16751   0.04980   0.00000  Uiso   1.00
H1615  H     0.23633   0.18929   0.09065   0.00000  Uiso   1.00
H1616  H     0.24526   0.22741   0.11393   0.00000  Uiso   1.00
H1617  H     0.85191   0.49052   0.02111   0.00000  Uiso   1.00
H1618  H     0.82786   0.47452   0.05737   0.00000  Uiso   1.00
H1619  H     0.78662   0.46828   0.07784   0.00000  Uiso   1.00
H1620  H     0.74510   0.47266   0.95056   0.00000  Uiso   1.00
H1621  H     0.68922   0.28505   0.95144   0.00000  Uiso   1.00
H1622  H     0.67593   0.20663   0.94085   0.00000  Uiso   1.00
H1623  H     0.68674   0.19906   0.98526   0.00000  Uiso   1.00
H1624  H     0.39928   0.54712   0.40155   0.00000  Uiso   1.00
H1625  H     0.40299   0.52128   0.36352   0.00000  Uiso   1.00
H1626  H     0.41788   0.58723   0.32030   0.00000  Uiso   1.00
H1627  H     0.41537   0.61283   0.35847   0.00000  Uiso   1.00
H1628  H     0.63912   0.80777   0.33834   0.00000  Uiso   1.00
H1629  H     0.59865   0.80799   0.31704   0.00000  Uiso   1.00
H1630  H     0.63541   0.81673   0.24628   0.00000  Uiso   1.00
H1631  H     0.67643   0.81726   0.26794   0.00000  Uiso   1.00
F135   F     0.63826   0.26676   0.00643   0.00000  Uiso   1.00
F136   F     0.60894   0.24367   0.02557   0.00000  Uiso   1.00
H1632  H     0.67086   0.23450   0.90730   0.00000  Uiso   1.00
O68    O     0.27046   0.39909   0.58292   0.00000  Uiso   1.00
C2585  C     0.01624   0.68417   0.08155   0.00000  Uiso   1.00
C2586  C     0.23009   0.80220   0.01573   0.00000  Uiso   1.00
C2587  C     0.23671   0.81039   0.03892   0.00000  Uiso   1.00
C2588  C     0.25568   0.82727   0.04157   0.00000  Uiso   1.00
C2589  C     0.26612   0.83781   0.02070   0.00000  Uiso   1.00
C2590  C     0.25899   0.83009   0.99754   0.00000  Uiso   1.00
C2591  C     0.24189   0.81123   0.99496   0.00000  Uiso   1.00
C2592  C     0.76069   0.20124   0.97131   0.00000  Uiso   1.00
C2593  C     0.76319   0.18795   0.94953   0.00000  Uiso   1.00
C2594  C     0.76111   0.19991   0.92703   0.00000  Uiso   1.00
C2595  C     0.75340   0.23755   0.94835   0.00000  Uiso   1.00
C2596  C     0.75590   0.22492   0.92623   0.00000  Uiso   1.00
C2597  C     0.75278   0.23750   0.90413   0.00000  Uiso   1.00
C2598  C     0.16616   0.49482   0.98821   0.00000  Uiso   1.00
C2599  C     0.18831   0.48979   0.97623   0.00000  Uiso   1.00
C2600  C     0.21020   0.49510   0.98815   0.00000  Uiso   1.00
C2601  C     0.18958   0.47974   0.95265   0.00000  Uiso   1.00
C2602  C     0.21241   0.47612   0.94138   0.00000  Uiso   1.00
C2603  C     0.23384   0.48226   0.95404   0.00000  Uiso   1.00
C2604  C     0.25769   0.51235   0.05463   0.00000  Uiso   1.00
C2605  C     0.26711   0.48869   0.05452   0.00000  Uiso   1.00
C2606  C     0.07049   0.16901   0.99933   0.00000  Uiso   1.00
C2607  C     0.31055   0.26557   0.04133   0.00000  Uiso   1.00
C2608  C     0.31635   0.24606   0.05689   0.00000  Uiso   1.00
C2609  C     0.31796   0.22244   0.04713   0.00000  Uiso   1.00
C2610  C     0.31205   0.21826   0.02260   0.00000  Uiso   1.00
N273   N     0.75692   0.22572   0.96991   0.00000  Uiso   1.00
N274   N     0.23185   0.49103   0.97692   0.00000  Uiso   1.00
N275   N     0.58700   0.53918   0.68239   0.00000  Uiso   1.00
C2611  C     0.59306   0.58153   0.61788   0.00000  Uiso   1.00
C2612  C     0.59638   0.55617   0.61665   0.00000  Uiso   1.00
C2613  C     0.59439   0.54186   0.63766   0.00000  Uiso   1.00
C2614  C     0.58915   0.55285   0.66024   0.00000  Uiso   1.00
C2615  C     0.58603   0.57811   0.66145   0.00000  Uiso   1.00
C2616  C     0.58767   0.59230   0.64045   0.00000  Uiso   1.00
C2617  C     0.33987   0.81314   0.69556   0.00000  Uiso   1.00
C2618  C     0.36156   0.81020   0.68229   0.00000  Uiso   1.00
C2619  C     0.38397   0.81023   0.69413   0.00000  Uiso   1.00
C2620  C     0.38533   0.81297   0.71940   0.00000  Uiso   1.00
C2621  C     0.36371   0.81514   0.73302   0.00000  Uiso   1.00
C2622  C     0.34110   0.81533   0.72108   0.00000  Uiso   1.00
N276   N     0.40920   0.68571   0.77015   0.00000  Uiso   1.00
H1633  H     0.00429   0.66723   0.08007   0.00000  Uiso   1.00
H1634  H     0.21499   0.78808   0.01362   0.00000  Uiso   1.00
H1635  H     0.22667   0.80334   0.05569   0.00000  Uiso   1.00
H1636  H     0.28046   0.85271   0.02265   0.00000  Uiso   1.00
H1637  H     0.26705   0.83910   0.98064   0.00000  Uiso   1.00
H1638  H     0.76688   0.16751   0.95020   0.00000  Uiso   1.00
H1639  H     0.76367   0.18929   0.90935   0.00000  Uiso   1.00
H1640  H     0.75474   0.22741   0.88607   0.00000  Uiso   1.00
H1641  H     0.14809   0.49052   0.97889   0.00000  Uiso   1.00
H1642  H     0.17214   0.47452   0.94263   0.00000  Uiso   1.00
H1643  H     0.21338   0.46828   0.92216   0.00000  Uiso   1.00
H1644  H     0.25490   0.47266   0.04944   0.00000  Uiso   1.00
H1645  H     0.31078   0.28505   0.04856   0.00000  Uiso   1.00
H1646  H     0.32407   0.20663   0.05915   0.00000  Uiso   1.00
H1647  H     0.31326   0.19906   0.01474   0.00000  Uiso   1.00
H1648  H     0.60072   0.54712   0.59845   0.00000  Uiso   1.00
H1649  H     0.59701   0.52128   0.63648   0.00000  Uiso   1.00
H1650  H     0.58212   0.58723   0.67970   0.00000  Uiso   1.00
H1651  H     0.58463   0.61283   0.64153   0.00000  Uiso   1.00
H1652  H     0.36088   0.80777   0.66166   0.00000  Uiso   1.00
H1653  H     0.40135   0.80799   0.68296   0.00000  Uiso   1.00
H1654  H     0.36459   0.81673   0.75372   0.00000  Uiso   1.00
H1655  H     0.32357   0.81726   0.73206   0.00000  Uiso   1.00
F137   F     0.36174   0.26676   0.99357   0.00000  Uiso   1.00
F138   F     0.39106   0.24367   0.97443   0.00000  Uiso   1.00
H1656  H     0.32914   0.23450   0.09270   0.00000  Uiso   1.00
O69    O     0.72954   0.39909   0.41708   0.00000  Uiso   1.00
C2623  C     0.01624   0.18417   0.58155   0.00000  Uiso   1.00
C2624  C     0.23009   0.30220   0.51573   0.00000  Uiso   1.00
C2625  C     0.23671   0.31039   0.53892   0.00000  Uiso   1.00
C2626  C     0.25568   0.32727   0.54157   0.00000  Uiso   1.00
C2627  C     0.26612   0.33781   0.52070   0.00000  Uiso   1.00
C2628  C     0.25899   0.33009   0.49754   0.00000  Uiso   1.00
C2629  C     0.24189   0.31123   0.49496   0.00000  Uiso   1.00
C2630  C     0.76069   0.70124   0.47131   0.00000  Uiso   1.00
C2631  C     0.76319   0.68795   0.44953   0.00000  Uiso   1.00
C2632  C     0.76111   0.69991   0.42703   0.00000  Uiso   1.00
C2633  C     0.75340   0.73755   0.44835   0.00000  Uiso   1.00
C2634  C     0.75590   0.72492   0.42623   0.00000  Uiso   1.00
C2635  C     0.75278   0.73750   0.40413   0.00000  Uiso   1.00
C2636  C     0.16616   0.99482   0.48821   0.00000  Uiso   1.00
C2637  C     0.18831   0.98979   0.47623   0.00000  Uiso   1.00
C2638  C     0.21020   0.99510   0.48815   0.00000  Uiso   1.00
C2639  C     0.18958   0.97974   0.45265   0.00000  Uiso   1.00
C2640  C     0.21241   0.97612   0.44138   0.00000  Uiso   1.00
C2641  C     0.23384   0.98226   0.45404   0.00000  Uiso   1.00
C2642  C     0.25769   0.01235   0.55463   0.00000  Uiso   1.00
C2643  C     0.26711   0.98869   0.55452   0.00000  Uiso   1.00
C2644  C     0.07049   0.66901   0.49933   0.00000  Uiso   1.00
C2645  C     0.31055   0.76557   0.54133   0.00000  Uiso   1.00
C2646  C     0.31635   0.74606   0.55689   0.00000  Uiso   1.00
C2647  C     0.31796   0.72244   0.54713   0.00000  Uiso   1.00
C2648  C     0.31205   0.71826   0.52260   0.00000  Uiso   1.00
N277   N     0.75692   0.72572   0.46991   0.00000  Uiso   1.00
N278   N     0.23185   0.99103   0.47692   0.00000  Uiso   1.00
N279   N     0.58700   0.03918   0.18239   0.00000  Uiso   1.00
C2649  C     0.59306   0.08153   0.11788   0.00000  Uiso   1.00
C2650  C     0.59638   0.05617   0.11665   0.00000  Uiso   1.00
C2651  C     0.59439   0.04186   0.13766   0.00000  Uiso   1.00
C2652  C     0.58915   0.05285   0.16024   0.00000  Uiso   1.00
C2653  C     0.58603   0.07811   0.16145   0.00000  Uiso   1.00
C2654  C     0.58767   0.09230   0.14045   0.00000  Uiso   1.00
C2655  C     0.33987   0.31314   0.19556   0.00000  Uiso   1.00
C2656  C     0.36156   0.31020   0.18229   0.00000  Uiso   1.00
C2657  C     0.38397   0.31023   0.19413   0.00000  Uiso   1.00
C2658  C     0.38533   0.31297   0.21940   0.00000  Uiso   1.00
C2659  C     0.36371   0.31514   0.23302   0.00000  Uiso   1.00
C2660  C     0.34110   0.31533   0.22108   0.00000  Uiso   1.00
N280   N     0.40920   0.18571   0.27015   0.00000  Uiso   1.00
H1657  H     0.00429   0.16723   0.58007   0.00000  Uiso   1.00
H1658  H     0.21499   0.28808   0.51362   0.00000  Uiso   1.00
H1659  H     0.22667   0.30334   0.55569   0.00000  Uiso   1.00
H1660  H     0.28046   0.35271   0.52265   0.00000  Uiso   1.00
H1661  H     0.26705   0.33910   0.48064   0.00000  Uiso   1.00
H1662  H     0.76688   0.66751   0.45020   0.00000  Uiso   1.00
H1663  H     0.76367   0.68929   0.40935   0.00000  Uiso   1.00
H1664  H     0.75474   0.72741   0.38607   0.00000  Uiso   1.00
H1665  H     0.14809   0.99052   0.47889   0.00000  Uiso   1.00
H1666  H     0.17214   0.97452   0.44263   0.00000  Uiso   1.00
H1667  H     0.21338   0.96828   0.42216   0.00000  Uiso   1.00
H1668  H     0.25490   0.97266   0.54944   0.00000  Uiso   1.00
H1669  H     0.31078   0.78505   0.54856   0.00000  Uiso   1.00
H1670  H     0.32407   0.70663   0.55915   0.00000  Uiso   1.00
H1671  H     0.31326   0.69906   0.51474   0.00000  Uiso   1.00
H1672  H     0.60072   0.04712   0.09845   0.00000  Uiso   1.00
H1673  H     0.59701   0.02128   0.13648   0.00000  Uiso   1.00
H1674  H     0.58212   0.08723   0.17970   0.00000  Uiso   1.00
H1675  H     0.58463   0.11283   0.14153   0.00000  Uiso   1.00
H1676  H     0.36088   0.30777   0.16166   0.00000  Uiso   1.00
H1677  H     0.40135   0.30799   0.18296   0.00000  Uiso   1.00
H1678  H     0.36459   0.31673   0.25372   0.00000  Uiso   1.00
H1679  H     0.32357   0.31726   0.23206   0.00000  Uiso   1.00
F139   F     0.36174   0.76676   0.49357   0.00000  Uiso   1.00
F140   F     0.39106   0.74367   0.47443   0.00000  Uiso   1.00
H1680  H     0.32914   0.73450   0.59270   0.00000  Uiso   1.00
O70    O     0.72954   0.89909   0.91708   0.00000  Uiso   1.00
C2661  C     0.51624   0.68417   0.58155   0.00000  Uiso   1.00
C2662  C     0.73009   0.80220   0.51573   0.00000  Uiso   1.00
C2663  C     0.73671   0.81039   0.53892   0.00000  Uiso   1.00
C2664  C     0.75568   0.82727   0.54157   0.00000  Uiso   1.00
C2665  C     0.76612   0.83781   0.52070   0.00000  Uiso   1.00
C2666  C     0.75899   0.83009   0.49754   0.00000  Uiso   1.00
C2667  C     0.74189   0.81123   0.49496   0.00000  Uiso   1.00
C2668  C     0.26069   0.20124   0.47131   0.00000  Uiso   1.00
C2669  C     0.26319   0.18795   0.44953   0.00000  Uiso   1.00
C2670  C     0.26111   0.19991   0.42703   0.00000  Uiso   1.00
C2671  C     0.25340   0.23755   0.44835   0.00000  Uiso   1.00
C2672  C     0.25590   0.22492   0.42623   0.00000  Uiso   1.00
C2673  C     0.25278   0.23750   0.40413   0.00000  Uiso   1.00
C2674  C     0.66616   0.49482   0.48821   0.00000  Uiso   1.00
C2675  C     0.68831   0.48979   0.47623   0.00000  Uiso   1.00
C2676  C     0.71020   0.49510   0.48815   0.00000  Uiso   1.00
C2677  C     0.68958   0.47974   0.45265   0.00000  Uiso   1.00
C2678  C     0.71241   0.47612   0.44138   0.00000  Uiso   1.00
C2679  C     0.73384   0.48226   0.45404   0.00000  Uiso   1.00
C2680  C     0.75769   0.51235   0.55463   0.00000  Uiso   1.00
C2681  C     0.76711   0.48869   0.55452   0.00000  Uiso   1.00
C2682  C     0.57049   0.16901   0.49933   0.00000  Uiso   1.00
C2683  C     0.81055   0.26557   0.54133   0.00000  Uiso   1.00
C2684  C     0.81635   0.24606   0.55689   0.00000  Uiso   1.00
C2685  C     0.81796   0.22244   0.54713   0.00000  Uiso   1.00
C2686  C     0.81205   0.21826   0.52260   0.00000  Uiso   1.00
N281   N     0.25692   0.22572   0.46991   0.00000  Uiso   1.00
N282   N     0.73185   0.49103   0.47692   0.00000  Uiso   1.00
N283   N     0.08700   0.53918   0.18239   0.00000  Uiso   1.00
C2687  C     0.09306   0.58153   0.11788   0.00000  Uiso   1.00
C2688  C     0.09638   0.55617   0.11665   0.00000  Uiso   1.00
C2689  C     0.09439   0.54186   0.13766   0.00000  Uiso   1.00
C2690  C     0.08915   0.55285   0.16024   0.00000  Uiso   1.00
C2691  C     0.08603   0.57811   0.16145   0.00000  Uiso   1.00
C2692  C     0.08767   0.59230   0.14045   0.00000  Uiso   1.00
C2693  C     0.83987   0.81314   0.19556   0.00000  Uiso   1.00
C2694  C     0.86156   0.81020   0.18229   0.00000  Uiso   1.00
C2695  C     0.88397   0.81023   0.19413   0.00000  Uiso   1.00
C2696  C     0.88533   0.81297   0.21940   0.00000  Uiso   1.00
C2697  C     0.86371   0.81514   0.23302   0.00000  Uiso   1.00
C2698  C     0.84110   0.81533   0.22108   0.00000  Uiso   1.00
N284   N     0.90920   0.68571   0.27015   0.00000  Uiso   1.00
H1681  H     0.50429   0.66723   0.58007   0.00000  Uiso   1.00
H1682  H     0.71499   0.78808   0.51362   0.00000  Uiso   1.00
H1683  H     0.72667   0.80334   0.55569   0.00000  Uiso   1.00
H1684  H     0.78046   0.85271   0.52265   0.00000  Uiso   1.00
H1685  H     0.76705   0.83910   0.48064   0.00000  Uiso   1.00
H1686  H     0.26688   0.16751   0.45020   0.00000  Uiso   1.00
H1687  H     0.26367   0.18929   0.40935   0.00000  Uiso   1.00
H1688  H     0.25474   0.22741   0.38607   0.00000  Uiso   1.00
H1689  H     0.64809   0.49052   0.47889   0.00000  Uiso   1.00
H1690  H     0.67214   0.47452   0.44263   0.00000  Uiso   1.00
H1691  H     0.71338   0.46828   0.42216   0.00000  Uiso   1.00
H1692  H     0.75490   0.47266   0.54944   0.00000  Uiso   1.00
H1693  H     0.81078   0.28505   0.54856   0.00000  Uiso   1.00
H1694  H     0.82407   0.20663   0.55915   0.00000  Uiso   1.00
H1695  H     0.81326   0.19906   0.51474   0.00000  Uiso   1.00
H1696  H     0.10072   0.54712   0.09845   0.00000  Uiso   1.00
H1697  H     0.09701   0.52128   0.13648   0.00000  Uiso   1.00
H1698  H     0.08212   0.58723   0.17970   0.00000  Uiso   1.00
H1699  H     0.08463   0.61283   0.14153   0.00000  Uiso   1.00
H1700  H     0.86088   0.80777   0.16166   0.00000  Uiso   1.00
H1701  H     0.90135   0.80799   0.18296   0.00000  Uiso   1.00
H1702  H     0.86459   0.81673   0.25372   0.00000  Uiso   1.00
H1703  H     0.82357   0.81726   0.23206   0.00000  Uiso   1.00
F141   F     0.86174   0.26676   0.49357   0.00000  Uiso   1.00
F142   F     0.89106   0.24367   0.47443   0.00000  Uiso   1.00
H1704  H     0.82914   0.23450   0.59270   0.00000  Uiso   1.00
O71    O     0.22954   0.39909   0.91708   0.00000  Uiso   1.00
C2699  C     0.51624   0.18417   0.08155   0.00000  Uiso   1.00
C2700  C     0.73009   0.30220   0.01573   0.00000  Uiso   1.00
C2701  C     0.73671   0.31039   0.03892   0.00000  Uiso   1.00
C2702  C     0.75568   0.32727   0.04157   0.00000  Uiso   1.00
C2703  C     0.76612   0.33781   0.02070   0.00000  Uiso   1.00
C2704  C     0.75899   0.33009   0.99754   0.00000  Uiso   1.00
C2705  C     0.74189   0.31123   0.99496   0.00000  Uiso   1.00
C2706  C     0.26069   0.70124   0.97131   0.00000  Uiso   1.00
C2707  C     0.26319   0.68795   0.94953   0.00000  Uiso   1.00
C2708  C     0.26111   0.69991   0.92703   0.00000  Uiso   1.00
C2709  C     0.25340   0.73755   0.94835   0.00000  Uiso   1.00
C2710  C     0.25590   0.72492   0.92623   0.00000  Uiso   1.00
C2711  C     0.25278   0.73750   0.90413   0.00000  Uiso   1.00
C2712  C     0.66616   0.99482   0.98821   0.00000  Uiso   1.00
C2713  C     0.68831   0.98979   0.97623   0.00000  Uiso   1.00
C2714  C     0.71020   0.99510   0.98815   0.00000  Uiso   1.00
C2715  C     0.68958   0.97974   0.95265   0.00000  Uiso   1.00
C2716  C     0.71241   0.97612   0.94138   0.00000  Uiso   1.00
C2717  C     0.73384   0.98226   0.95404   0.00000  Uiso   1.00
C2718  C     0.75769   0.01235   0.05463   0.00000  Uiso   1.00
C2719  C     0.76711   0.98869   0.05452   0.00000  Uiso   1.00
C2720  C     0.57049   0.66901   0.99933   0.00000  Uiso   1.00
C2721  C     0.81055   0.76557   0.04133   0.00000  Uiso   1.00
C2722  C     0.81635   0.74606   0.05689   0.00000  Uiso   1.00
C2723  C     0.81796   0.72244   0.04713   0.00000  Uiso   1.00
C2724  C     0.81205   0.71826   0.02260   0.00000  Uiso   1.00
N285   N     0.25692   0.72572   0.96991   0.00000  Uiso   1.00
N286   N     0.73185   0.99103   0.97692   0.00000  Uiso   1.00
N287   N     0.08700   0.03918   0.68239   0.00000  Uiso   1.00
C2725  C     0.09306   0.08153   0.61788   0.00000  Uiso   1.00
C2726  C     0.09638   0.05617   0.61665   0.00000  Uiso   1.00
C2727  C     0.09439   0.04186   0.63766   0.00000  Uiso   1.00
C2728  C     0.08915   0.05285   0.66024   0.00000  Uiso   1.00
C2729  C     0.08603   0.07811   0.66145   0.00000  Uiso   1.00
C2730  C     0.08767   0.09230   0.64045   0.00000  Uiso   1.00
C2731  C     0.83987   0.31314   0.69556   0.00000  Uiso   1.00
C2732  C     0.86156   0.31020   0.68229   0.00000  Uiso   1.00
C2733  C     0.88397   0.31023   0.69413   0.00000  Uiso   1.00
C2734  C     0.88533   0.31297   0.71940   0.00000  Uiso   1.00
C2735  C     0.86371   0.31514   0.73302   0.00000  Uiso   1.00
C2736  C     0.84110   0.31533   0.72108   0.00000  Uiso   1.00
N288   N     0.90920   0.18571   0.77015   0.00000  Uiso   1.00
H1705  H     0.50429   0.16723   0.08007   0.00000  Uiso   1.00
H1706  H     0.71499   0.28808   0.01362   0.00000  Uiso   1.00
H1707  H     0.72667   0.30334   0.05569   0.00000  Uiso   1.00
H1708  H     0.78046   0.35271   0.02265   0.00000  Uiso   1.00
H1709  H     0.76705   0.33910   0.98064   0.00000  Uiso   1.00
H1710  H     0.26688   0.66751   0.95020   0.00000  Uiso   1.00
H1711  H     0.26367   0.68929   0.90935   0.00000  Uiso   1.00
H1712  H     0.25474   0.72741   0.88607   0.00000  Uiso   1.00
H1713  H     0.64809   0.99052   0.97889   0.00000  Uiso   1.00
H1714  H     0.67214   0.97452   0.94263   0.00000  Uiso   1.00
H1715  H     0.71338   0.96828   0.92216   0.00000  Uiso   1.00
H1716  H     0.75490   0.97266   0.04944   0.00000  Uiso   1.00
H1717  H     0.81078   0.78505   0.04856   0.00000  Uiso   1.00
H1718  H     0.82407   0.70663   0.05915   0.00000  Uiso   1.00
H1719  H     0.81326   0.69906   0.01474   0.00000  Uiso   1.00
H1720  H     0.10072   0.04712   0.59845   0.00000  Uiso   1.00
H1721  H     0.09701   0.02128   0.63648   0.00000  Uiso   1.00
H1722  H     0.08212   0.08723   0.67970   0.00000  Uiso   1.00
H1723  H     0.08463   0.11283   0.64153   0.00000  Uiso   1.00
H1724  H     0.86088   0.30777   0.66166   0.00000  Uiso   1.00
H1725  H     0.90135   0.30799   0.68296   0.00000  Uiso   1.00
H1726  H     0.86459   0.31673   0.75372   0.00000  Uiso   1.00
H1727  H     0.82357   0.31726   0.73206   0.00000  Uiso   1.00
F143   F     0.86174   0.76676   0.99357   0.00000  Uiso   1.00
F144   F     0.89106   0.74367   0.97443   0.00000  Uiso   1.00
H1728  H     0.82914   0.73450   0.09270   0.00000  Uiso   1.00
O72    O     0.22954   0.89909   0.41708   0.00000  Uiso   1.00
C2737  C     0.51624   0.31583   0.41845   0.00000  Uiso   1.00
C2738  C     0.73009   0.19780   0.48427   0.00000  Uiso   1.00
C2739  C     0.73671   0.18961   0.46108   0.00000  Uiso   1.00
C2740  C     0.75568   0.17273   0.45843   0.00000  Uiso   1.00
C2741  C     0.76612   0.16219   0.47930   0.00000  Uiso   1.00
C2742  C     0.75899   0.16991   0.50246   0.00000  Uiso   1.00
C2743  C     0.74189   0.18877   0.50504   0.00000  Uiso   1.00
C2744  C     0.26069   0.79876   0.52869   0.00000  Uiso   1.00
C2745  C     0.26319   0.81205   0.55047   0.00000  Uiso   1.00
C2746  C     0.26111   0.80009   0.57297   0.00000  Uiso   1.00
C2747  C     0.25340   0.76245   0.55165   0.00000  Uiso   1.00
C2748  C     0.25590   0.77508   0.57377   0.00000  Uiso   1.00
C2749  C     0.25278   0.76250   0.59587   0.00000  Uiso   1.00
C2750  C     0.66616   0.50518   0.51179   0.00000  Uiso   1.00
C2751  C     0.68831   0.51021   0.52377   0.00000  Uiso   1.00
C2752  C     0.71020   0.50490   0.51185   0.00000  Uiso   1.00
C2753  C     0.68958   0.52026   0.54735   0.00000  Uiso   1.00
C2754  C     0.71241   0.52388   0.55862   0.00000  Uiso   1.00
C2755  C     0.73384   0.51774   0.54596   0.00000  Uiso   1.00
C2756  C     0.75769   0.48765   0.44537   0.00000  Uiso   1.00
C2757  C     0.76711   0.51131   0.44548   0.00000  Uiso   1.00
C2758  C     0.57049   0.83099   0.50067   0.00000  Uiso   1.00
C2759  C     0.81055   0.73443   0.45867   0.00000  Uiso   1.00
C2760  C     0.81635   0.75394   0.44311   0.00000  Uiso   1.00
C2761  C     0.81796   0.77756   0.45287   0.00000  Uiso   1.00
C2762  C     0.81205   0.78174   0.47740   0.00000  Uiso   1.00
N289   N     0.25692   0.77428   0.53009   0.00000  Uiso   1.00
N290   N     0.73185   0.50897   0.52308   0.00000  Uiso   1.00
N291   N     0.08700   0.46082   0.81761   0.00000  Uiso   1.00
C2763  C     0.09306   0.41847   0.88212   0.00000  Uiso   1.00
C2764  C     0.09638   0.44383   0.88335   0.00000  Uiso   1.00
C2765  C     0.09439   0.45814   0.86234   0.00000  Uiso   1.00
C2766  C     0.08915   0.44715   0.83976   0.00000  Uiso   1.00
C2767  C     0.08603   0.42189   0.83855   0.00000  Uiso   1.00
C2768  C     0.08767   0.40770   0.85955   0.00000  Uiso   1.00
C2769  C     0.83987   0.18686   0.80444   0.00000  Uiso   1.00
C2770  C     0.86156   0.18980   0.81771   0.00000  Uiso   1.00
C2771  C     0.88397   0.18977   0.80587   0.00000  Uiso   1.00
C2772  C     0.88533   0.18703   0.78060   0.00000  Uiso   1.00
C2773  C     0.86371   0.18486   0.76698   0.00000  Uiso   1.00
C2774  C     0.84110   0.18467   0.77892   0.00000  Uiso   1.00
N292   N     0.90920   0.31429   0.72985   0.00000  Uiso   1.00
H1729  H     0.50429   0.33277   0.41993   0.00000  Uiso   1.00
H1730  H     0.71499   0.21192   0.48638   0.00000  Uiso   1.00
H1731  H     0.72667   0.19666   0.44431   0.00000  Uiso   1.00
H1732  H     0.78046   0.14729   0.47735   0.00000  Uiso   1.00
H1733  H     0.76705   0.16090   0.51936   0.00000  Uiso   1.00
H1734  H     0.26688   0.83249   0.54980   0.00000  Uiso   1.00
H1735  H     0.26367   0.81071   0.59065   0.00000  Uiso   1.00
H1736  H     0.25474   0.77259   0.61393   0.00000  Uiso   1.00
H1737  H     0.64809   0.50948   0.52111   0.00000  Uiso   1.00
H1738  H     0.67214   0.52548   0.55737   0.00000  Uiso   1.00
H1739  H     0.71338   0.53172   0.57784   0.00000  Uiso   1.00
H1740  H     0.75490   0.52734   0.45056   0.00000  Uiso   1.00
H1741  H     0.81078   0.71495   0.45144   0.00000  Uiso   1.00
H1742  H     0.82407   0.79337   0.44085   0.00000  Uiso   1.00
H1743  H     0.81326   0.80094   0.48526   0.00000  Uiso   1.00
H1744  H     0.10072   0.45288   0.90155   0.00000  Uiso   1.00
H1745  H     0.09701   0.47872   0.86352   0.00000  Uiso   1.00
H1746  H     0.08212   0.41277   0.82030   0.00000  Uiso   1.00
H1747  H     0.08463   0.38717   0.85847   0.00000  Uiso   1.00
H1748  H     0.86088   0.19223   0.83834   0.00000  Uiso   1.00
H1749  H     0.90135   0.19201   0.81704   0.00000  Uiso   1.00
H1750  H     0.86459   0.18327   0.74628   0.00000  Uiso   1.00
H1751  H     0.82357   0.18274   0.76794   0.00000  Uiso   1.00
F145   F     0.86174   0.73324   0.50643   0.00000  Uiso   1.00
F146   F     0.89106   0.75633   0.52557   0.00000  Uiso   1.00
H1752  H     0.82914   0.76550   0.40730   0.00000  Uiso   1.00
O73    O     0.22954   0.60091   0.08292   0.00000  Uiso   1.00
C2775  C     0.51624   0.81583   0.91845   0.00000  Uiso   1.00
C2776  C     0.73009   0.69780   0.98427   0.00000  Uiso   1.00
C2777  C     0.73671   0.68961   0.96108   0.00000  Uiso   1.00
C2778  C     0.75568   0.67273   0.95843   0.00000  Uiso   1.00
C2779  C     0.76612   0.66219   0.97930   0.00000  Uiso   1.00
C2780  C     0.75899   0.66991   0.00246   0.00000  Uiso   1.00
C2781  C     0.74189   0.68877   0.00504   0.00000  Uiso   1.00
C2782  C     0.26069   0.29876   0.02869   0.00000  Uiso   1.00
C2783  C     0.26319   0.31205   0.05047   0.00000  Uiso   1.00
C2784  C     0.26111   0.30009   0.07297   0.00000  Uiso   1.00
C2785  C     0.25340   0.26245   0.05165   0.00000  Uiso   1.00
C2786  C     0.25590   0.27508   0.07377   0.00000  Uiso   1.00
C2787  C     0.25278   0.26250   0.09587   0.00000  Uiso   1.00
C2788  C     0.66616   0.00518   0.01179   0.00000  Uiso   1.00
C2789  C     0.68831   0.01021   0.02377   0.00000  Uiso   1.00
C2790  C     0.71020   0.00490   0.01185   0.00000  Uiso   1.00
C2791  C     0.68958   0.02026   0.04735   0.00000  Uiso   1.00
C2792  C     0.71241   0.02388   0.05862   0.00000  Uiso   1.00
C2793  C     0.73384   0.01774   0.04596   0.00000  Uiso   1.00
C2794  C     0.75769   0.98765   0.94537   0.00000  Uiso   1.00
C2795  C     0.76711   0.01131   0.94548   0.00000  Uiso   1.00
C2796  C     0.57049   0.33099   0.00067   0.00000  Uiso   1.00
C2797  C     0.81055   0.23443   0.95867   0.00000  Uiso   1.00
C2798  C     0.81635   0.25394   0.94311   0.00000  Uiso   1.00
C2799  C     0.81796   0.27756   0.95287   0.00000  Uiso   1.00
C2800  C     0.81205   0.28174   0.97740   0.00000  Uiso   1.00
N293   N     0.25692   0.27428   0.03009   0.00000  Uiso   1.00
N294   N     0.73185   0.00897   0.02308   0.00000  Uiso   1.00
N295   N     0.08700   0.96082   0.31761   0.00000  Uiso   1.00
C2801  C     0.09306   0.91847   0.38212   0.00000  Uiso   1.00
C2802  C     0.09638   0.94383   0.38335   0.00000  Uiso   1.00
C2803  C     0.09439   0.95814   0.36234   0.00000  Uiso   1.00
C2804  C     0.08915   0.94715   0.33976   0.00000  Uiso   1.00
C2805  C     0.08603   0.92189   0.33855   0.00000  Uiso   1.00
C2806  C     0.08767   0.90770   0.35955   0.00000  Uiso   1.00
C2807  C     0.83987   0.68686   0.30444   0.00000  Uiso   1.00
C2808  C     0.86156   0.68980   0.31771   0.00000  Uiso   1.00
C2809  C     0.88397   0.68977   0.30587   0.00000  Uiso   1.00
C2810  C     0.88533   0.68703   0.28060   0.00000  Uiso   1.00
C2811  C     0.86371   0.68486   0.26698   0.00000  Uiso   1.00
C2812  C     0.84110   0.68467   0.27892   0.00000  Uiso   1.00
N296   N     0.90920   0.81429   0.22985   0.00000  Uiso   1.00
H1753  H     0.50429   0.83277   0.91993   0.00000  Uiso   1.00
H1754  H     0.71499   0.71192   0.98638   0.00000  Uiso   1.00
H1755  H     0.72667   0.69666   0.94431   0.00000  Uiso   1.00
H1756  H     0.78046   0.64729   0.97735   0.00000  Uiso   1.00
H1757  H     0.76705   0.66090   0.01936   0.00000  Uiso   1.00
H1758  H     0.26688   0.33249   0.04980   0.00000  Uiso   1.00
H1759  H     0.26367   0.31071   0.09065   0.00000  Uiso   1.00
H1760  H     0.25474   0.27259   0.11393   0.00000  Uiso   1.00
H1761  H     0.64809   0.00948   0.02111   0.00000  Uiso   1.00
H1762  H     0.67214   0.02548   0.05737   0.00000  Uiso   1.00
H1763  H     0.71338   0.03172   0.07784   0.00000  Uiso   1.00
H1764  H     0.75490   0.02734   0.95056   0.00000  Uiso   1.00
H1765  H     0.81078   0.21495   0.95144   0.00000  Uiso   1.00
H1766  H     0.82407   0.29337   0.94085   0.00000  Uiso   1.00
H1767  H     0.81326   0.30094   0.98526   0.00000  Uiso   1.00
H1768  H     0.10072   0.95288   0.40155   0.00000  Uiso   1.00
H1769  H     0.09701   0.97872   0.36352   0.00000  Uiso   1.00
H1770  H     0.08212   0.91277   0.32030   0.00000  Uiso   1.00
H1771  H     0.08463   0.88717   0.35847   0.00000  Uiso   1.00
H1772  H     0.86088   0.69223   0.33834   0.00000  Uiso   1.00
H1773  H     0.90135   0.69201   0.31704   0.00000  Uiso   1.00
H1774  H     0.86459   0.68327   0.24628   0.00000  Uiso   1.00
H1775  H     0.82357   0.68274   0.26794   0.00000  Uiso   1.00
F147   F     0.86174   0.23324   0.00643   0.00000  Uiso   1.00
F148   F     0.89106   0.25633   0.02557   0.00000  Uiso   1.00
H1776  H     0.82914   0.26550   0.90730   0.00000  Uiso   1.00
O74    O     0.22954   0.10091   0.58292   0.00000  Uiso   1.00
C2813  C     0.01624   0.31583   0.91845   0.00000  Uiso   1.00
C2814  C     0.23009   0.19780   0.98427   0.00000  Uiso   1.00
C2815  C     0.23671   0.18961   0.96108   0.00000  Uiso   1.00
C2816  C     0.25568   0.17273   0.95843   0.00000  Uiso   1.00
C2817  C     0.26612   0.16219   0.97930   0.00000  Uiso   1.00
C2818  C     0.25899   0.16991   0.00246   0.00000  Uiso   1.00
C2819  C     0.24189   0.18877   0.00504   0.00000  Uiso   1.00
C2820  C     0.76069   0.79876   0.02869   0.00000  Uiso   1.00
C2821  C     0.76319   0.81205   0.05047   0.00000  Uiso   1.00
C2822  C     0.76111   0.80009   0.07297   0.00000  Uiso   1.00
C2823  C     0.75340   0.76245   0.05165   0.00000  Uiso   1.00
C2824  C     0.75590   0.77508   0.07377   0.00000  Uiso   1.00
C2825  C     0.75278   0.76250   0.09587   0.00000  Uiso   1.00
C2826  C     0.16616   0.50518   0.01179   0.00000  Uiso   1.00
C2827  C     0.18831   0.51021   0.02377   0.00000  Uiso   1.00
C2828  C     0.21020   0.50490   0.01185   0.00000  Uiso   1.00
C2829  C     0.18958   0.52026   0.04735   0.00000  Uiso   1.00
C2830  C     0.21241   0.52388   0.05862   0.00000  Uiso   1.00
C2831  C     0.23384   0.51774   0.04596   0.00000  Uiso   1.00
C2832  C     0.25769   0.48765   0.94537   0.00000  Uiso   1.00
C2833  C     0.26711   0.51131   0.94548   0.00000  Uiso   1.00
C2834  C     0.07049   0.83099   0.00067   0.00000  Uiso   1.00
C2835  C     0.31055   0.73443   0.95867   0.00000  Uiso   1.00
C2836  C     0.31635   0.75394   0.94311   0.00000  Uiso   1.00
C2837  C     0.31796   0.77756   0.95287   0.00000  Uiso   1.00
C2838  C     0.31205   0.78174   0.97740   0.00000  Uiso   1.00
N297   N     0.75692   0.77428   0.03009   0.00000  Uiso   1.00
N298   N     0.23185   0.50897   0.02308   0.00000  Uiso   1.00
N299   N     0.58700   0.46082   0.31761   0.00000  Uiso   1.00
C2839  C     0.59306   0.41847   0.38212   0.00000  Uiso   1.00
C2840  C     0.59638   0.44383   0.38335   0.00000  Uiso   1.00
C2841  C     0.59439   0.45814   0.36234   0.00000  Uiso   1.00
C2842  C     0.58915   0.44715   0.33976   0.00000  Uiso   1.00
C2843  C     0.58603   0.42189   0.33855   0.00000  Uiso   1.00
C2844  C     0.58767   0.40770   0.35955   0.00000  Uiso   1.00
C2845  C     0.33987   0.18686   0.30444   0.00000  Uiso   1.00
C2846  C     0.36156   0.18980   0.31771   0.00000  Uiso   1.00
C2847  C     0.38397   0.18977   0.30587   0.00000  Uiso   1.00
C2848  C     0.38533   0.18703   0.28060   0.00000  Uiso   1.00
C2849  C     0.36371   0.18486   0.26698   0.00000  Uiso   1.00
C2850  C     0.34110   0.18467   0.27892   0.00000  Uiso   1.00
N300   N     0.40920   0.31429   0.22985   0.00000  Uiso   1.00
H1777  H     0.00429   0.33277   0.91993   0.00000  Uiso   1.00
H1778  H     0.21499   0.21192   0.98638   0.00000  Uiso   1.00
H1779  H     0.22667   0.19666   0.94431   0.00000  Uiso   1.00
H1780  H     0.28046   0.14729   0.97735   0.00000  Uiso   1.00
H1781  H     0.26705   0.16090   0.01936   0.00000  Uiso   1.00
H1782  H     0.76688   0.83249   0.04980   0.00000  Uiso   1.00
H1783  H     0.76367   0.81071   0.09065   0.00000  Uiso   1.00
H1784  H     0.75474   0.77259   0.11393   0.00000  Uiso   1.00
H1785  H     0.14809   0.50948   0.02111   0.00000  Uiso   1.00
H1786  H     0.17214   0.52548   0.05737   0.00000  Uiso   1.00
H1787  H     0.21338   0.53172   0.07784   0.00000  Uiso   1.00
H1788  H     0.25490   0.52734   0.95056   0.00000  Uiso   1.00
H1789  H     0.31078   0.71495   0.95144   0.00000  Uiso   1.00
H1790  H     0.32407   0.79337   0.94085   0.00000  Uiso   1.00
H1791  H     0.31326   0.80094   0.98526   0.00000  Uiso   1.00
H1792  H     0.60072   0.45288   0.40155   0.00000  Uiso   1.00
H1793  H     0.59701   0.47872   0.36352   0.00000  Uiso   1.00
H1794  H     0.58212   0.41277   0.32030   0.00000  Uiso   1.00
H1795  H     0.58463   0.38717   0.35847   0.00000  Uiso   1.00
H1796  H     0.36088   0.19223   0.33834   0.00000  Uiso   1.00
H1797  H     0.40135   0.19201   0.31704   0.00000  Uiso   1.00
H1798  H     0.36459   0.18327   0.24628   0.00000  Uiso   1.00
H1799  H     0.32357   0.18274   0.26794   0.00000  Uiso   1.00
F149   F     0.36174   0.73324   0.00643   0.00000  Uiso   1.00
F150   F     0.39106   0.75633   0.02557   0.00000  Uiso   1.00
H1800  H     0.32914   0.76550   0.90730   0.00000  Uiso   1.00
O75    O     0.72954   0.60091   0.58292   0.00000  Uiso   1.00
C2851  C     0.01624   0.81583   0.41845   0.00000  Uiso   1.00
C2852  C     0.23009   0.69780   0.48427   0.00000  Uiso   1.00
C2853  C     0.23671   0.68961   0.46108   0.00000  Uiso   1.00
C2854  C     0.25568   0.67273   0.45843   0.00000  Uiso   1.00
C2855  C     0.26612   0.66219   0.47930   0.00000  Uiso   1.00
C2856  C     0.25899   0.66991   0.50246   0.00000  Uiso   1.00
C2857  C     0.24189   0.68877   0.50504   0.00000  Uiso   1.00
C2858  C     0.76069   0.29876   0.52869   0.00000  Uiso   1.00
C2859  C     0.76319   0.31205   0.55047   0.00000  Uiso   1.00
C2860  C     0.76111   0.30009   0.57297   0.00000  Uiso   1.00
C2861  C     0.75340   0.26245   0.55165   0.00000  Uiso   1.00
C2862  C     0.75590   0.27508   0.57377   0.00000  Uiso   1.00
C2863  C     0.75278   0.26250   0.59587   0.00000  Uiso   1.00
C2864  C     0.16616   0.00518   0.51179   0.00000  Uiso   1.00
C2865  C     0.18831   0.01021   0.52377   0.00000  Uiso   1.00
C2866  C     0.21020   0.00490   0.51185   0.00000  Uiso   1.00
C2867  C     0.18958   0.02026   0.54735   0.00000  Uiso   1.00
C2868  C     0.21241   0.02388   0.55862   0.00000  Uiso   1.00
C2869  C     0.23384   0.01774   0.54596   0.00000  Uiso   1.00
C2870  C     0.25769   0.98765   0.44537   0.00000  Uiso   1.00
C2871  C     0.26711   0.01131   0.44548   0.00000  Uiso   1.00
C2872  C     0.07049   0.33099   0.50067   0.00000  Uiso   1.00
C2873  C     0.31055   0.23443   0.45867   0.00000  Uiso   1.00
C2874  C     0.31635   0.25394   0.44311   0.00000  Uiso   1.00
C2875  C     0.31796   0.27756   0.45287   0.00000  Uiso   1.00
C2876  C     0.31205   0.28174   0.47740   0.00000  Uiso   1.00
N301   N     0.75692   0.27428   0.53009   0.00000  Uiso   1.00
N302   N     0.23185   0.00897   0.52308   0.00000  Uiso   1.00
N303   N     0.58700   0.96082   0.81761   0.00000  Uiso   1.00
C2877  C     0.59306   0.91847   0.88212   0.00000  Uiso   1.00
C2878  C     0.59638   0.94383   0.88335   0.00000  Uiso   1.00
C2879  C     0.59439   0.95814   0.86234   0.00000  Uiso   1.00
C2880  C     0.58915   0.94715   0.83976   0.00000  Uiso   1.00
C2881  C     0.58603   0.92189   0.83855   0.00000  Uiso   1.00
C2882  C     0.58767   0.90770   0.85955   0.00000  Uiso   1.00
C2883  C     0.33987   0.68686   0.80444   0.00000  Uiso   1.00
C2884  C     0.36156   0.68980   0.81771   0.00000  Uiso   1.00
C2885  C     0.38397   0.68977   0.80587   0.00000  Uiso   1.00
C2886  C     0.38533   0.68703   0.78060   0.00000  Uiso   1.00
C2887  C     0.36371   0.68486   0.76698   0.00000  Uiso   1.00
C2888  C     0.34110   0.68467   0.77892   0.00000  Uiso   1.00
N304   N     0.40920   0.81429   0.72985   0.00000  Uiso   1.00
H1801  H     0.00429   0.83277   0.41993   0.00000  Uiso   1.00
H1802  H     0.21499   0.71192   0.48638   0.00000  Uiso   1.00
H1803  H     0.22667   0.69666   0.44431   0.00000  Uiso   1.00
H1804  H     0.28046   0.64729   0.47735   0.00000  Uiso   1.00
H1805  H     0.26705   0.66090   0.51936   0.00000  Uiso   1.00
H1806  H     0.76688   0.33249   0.54980   0.00000  Uiso   1.00
H1807  H     0.76367   0.31071   0.59065   0.00000  Uiso   1.00
H1808  H     0.75474   0.27259   0.61393   0.00000  Uiso   1.00
H1809  H     0.14809   0.00948   0.52111   0.00000  Uiso   1.00
H1810  H     0.17214   0.02548   0.55737   0.00000  Uiso   1.00
H1811  H     0.21338   0.03172   0.57784   0.00000  Uiso   1.00
H1812  H     0.25490   0.02734   0.45056   0.00000  Uiso   1.00
H1813  H     0.31078   0.21495   0.45144   0.00000  Uiso   1.00
H1814  H     0.32407   0.29337   0.44085   0.00000  Uiso   1.00
H1815  H     0.31326   0.30094   0.48526   0.00000  Uiso   1.00
H1816  H     0.60072   0.95288   0.90155   0.00000  Uiso   1.00
H1817  H     0.59701   0.97872   0.86352   0.00000  Uiso   1.00
H1818  H     0.58212   0.91277   0.82030   0.00000  Uiso   1.00
H1819  H     0.58463   0.88717   0.85847   0.00000  Uiso   1.00
H1820  H     0.36088   0.69223   0.83834   0.00000  Uiso   1.00
H1821  H     0.40135   0.69201   0.81704   0.00000  Uiso   1.00
H1822  H     0.36459   0.68327   0.74628   0.00000  Uiso   1.00
H1823  H     0.32357   0.68274   0.76794   0.00000  Uiso   1.00
F151   F     0.36174   0.23324   0.50643   0.00000  Uiso   1.00
F152   F     0.39106   0.25633   0.52557   0.00000  Uiso   1.00
H1824  H     0.32914   0.26550   0.40730   0.00000  Uiso   1.00
O76    O     0.72954   0.10091   0.08292   0.00000  Uiso   1.00
C2889  C     0.98376   0.81583   0.58155   0.00000  Uiso   1.00
C2890  C     0.76991   0.69780   0.51573   0.00000  Uiso   1.00
C2891  C     0.76329   0.68961   0.53892   0.00000  Uiso   1.00
C2892  C     0.74432   0.67273   0.54157   0.00000  Uiso   1.00
C2893  C     0.73388   0.66219   0.52070   0.00000  Uiso   1.00
C2894  C     0.74101   0.66991   0.49754   0.00000  Uiso   1.00
C2895  C     0.75811   0.68877   0.49496   0.00000  Uiso   1.00
C2896  C     0.23931   0.29876   0.47131   0.00000  Uiso   1.00
C2897  C     0.23681   0.31205   0.44953   0.00000  Uiso   1.00
C2898  C     0.23889   0.30009   0.42703   0.00000  Uiso   1.00
C2899  C     0.24660   0.26245   0.44835   0.00000  Uiso   1.00
C2900  C     0.24410   0.27508   0.42623   0.00000  Uiso   1.00
C2901  C     0.24722   0.26250   0.40413   0.00000  Uiso   1.00
C2902  C     0.83384   0.00518   0.48821   0.00000  Uiso   1.00
C2903  C     0.81169   0.01021   0.47623   0.00000  Uiso   1.00
C2904  C     0.78980   0.00490   0.48815   0.00000  Uiso   1.00
C2905  C     0.81042   0.02026   0.45265   0.00000  Uiso   1.00
C2906  C     0.78759   0.02388   0.44138   0.00000  Uiso   1.00
C2907  C     0.76616   0.01774   0.45404   0.00000  Uiso   1.00
C2908  C     0.74231   0.98765   0.55463   0.00000  Uiso   1.00
C2909  C     0.73289   0.01131   0.55452   0.00000  Uiso   1.00
C2910  C     0.92951   0.33099   0.49933   0.00000  Uiso   1.00
C2911  C     0.68945   0.23443   0.54133   0.00000  Uiso   1.00
C2912  C     0.68365   0.25394   0.55689   0.00000  Uiso   1.00
C2913  C     0.68204   0.27756   0.54713   0.00000  Uiso   1.00
C2914  C     0.68795   0.28174   0.52260   0.00000  Uiso   1.00
N305   N     0.24308   0.27428   0.46991   0.00000  Uiso   1.00
N306   N     0.76815   0.00897   0.47692   0.00000  Uiso   1.00
N307   N     0.41300   0.96082   0.18239   0.00000  Uiso   1.00
C2915  C     0.40694   0.91847   0.11788   0.00000  Uiso   1.00
C2916  C     0.40362   0.94383   0.11665   0.00000  Uiso   1.00
C2917  C     0.40561   0.95814   0.13766   0.00000  Uiso   1.00
C2918  C     0.41085   0.94715   0.16024   0.00000  Uiso   1.00
C2919  C     0.41397   0.92189   0.16145   0.00000  Uiso   1.00
C2920  C     0.41233   0.90770   0.14045   0.00000  Uiso   1.00
C2921  C     0.66013   0.68686   0.19556   0.00000  Uiso   1.00
C2922  C     0.63844   0.68980   0.18229   0.00000  Uiso   1.00
C2923  C     0.61603   0.68977   0.19413   0.00000  Uiso   1.00
C2924  C     0.61467   0.68703   0.21940   0.00000  Uiso   1.00
C2925  C     0.63629   0.68486   0.23302   0.00000  Uiso   1.00
C2926  C     0.65890   0.68467   0.22108   0.00000  Uiso   1.00
N308   N     0.59080   0.81429   0.27015   0.00000  Uiso   1.00
H1825  H     0.99571   0.83277   0.58007   0.00000  Uiso   1.00
H1826  H     0.78501   0.71192   0.51362   0.00000  Uiso   1.00
H1827  H     0.77333   0.69666   0.55569   0.00000  Uiso   1.00
H1828  H     0.71954   0.64729   0.52265   0.00000  Uiso   1.00
H1829  H     0.73295   0.66090   0.48064   0.00000  Uiso   1.00
H1830  H     0.23312   0.33249   0.45020   0.00000  Uiso   1.00
H1831  H     0.23633   0.31071   0.40935   0.00000  Uiso   1.00
H1832  H     0.24526   0.27259   0.38607   0.00000  Uiso   1.00
H1833  H     0.85191   0.00948   0.47889   0.00000  Uiso   1.00
H1834  H     0.82786   0.02548   0.44263   0.00000  Uiso   1.00
H1835  H     0.78662   0.03172   0.42216   0.00000  Uiso   1.00
H1836  H     0.74510   0.02734   0.54944   0.00000  Uiso   1.00
H1837  H     0.68922   0.21495   0.54856   0.00000  Uiso   1.00
H1838  H     0.67593   0.29337   0.55915   0.00000  Uiso   1.00
H1839  H     0.68674   0.30094   0.51474   0.00000  Uiso   1.00
H1840  H     0.39928   0.95288   0.09845   0.00000  Uiso   1.00
H1841  H     0.40299   0.97872   0.13648   0.00000  Uiso   1.00
H1842  H     0.41788   0.91277   0.17970   0.00000  Uiso   1.00
H1843  H     0.41537   0.88717   0.14153   0.00000  Uiso   1.00
H1844  H     0.63912   0.69223   0.16166   0.00000  Uiso   1.00
H1845  H     0.59865   0.69201   0.18296   0.00000  Uiso   1.00
H1846  H     0.63541   0.68327   0.25372   0.00000  Uiso   1.00
H1847  H     0.67643   0.68274   0.23206   0.00000  Uiso   1.00
F153   F     0.63826   0.23324   0.49357   0.00000  Uiso   1.00
F154   F     0.60894   0.25633   0.47443   0.00000  Uiso   1.00
H1848  H     0.67086   0.26550   0.59270   0.00000  Uiso   1.00
O77    O     0.27046   0.10091   0.91708   0.00000  Uiso   1.00
C2927  C     0.98376   0.31583   0.08155   0.00000  Uiso   1.00
C2928  C     0.76991   0.19780   0.01573   0.00000  Uiso   1.00
C2929  C     0.76329   0.18961   0.03892   0.00000  Uiso   1.00
C2930  C     0.74432   0.17273   0.04157   0.00000  Uiso   1.00
C2931  C     0.73388   0.16219   0.02070   0.00000  Uiso   1.00
C2932  C     0.74101   0.16991   0.99754   0.00000  Uiso   1.00
C2933  C     0.75811   0.18877   0.99496   0.00000  Uiso   1.00
C2934  C     0.23931   0.79876   0.97131   0.00000  Uiso   1.00
C2935  C     0.23681   0.81205   0.94953   0.00000  Uiso   1.00
C2936  C     0.23889   0.80009   0.92703   0.00000  Uiso   1.00
C2937  C     0.24660   0.76245   0.94835   0.00000  Uiso   1.00
C2938  C     0.24410   0.77508   0.92623   0.00000  Uiso   1.00
C2939  C     0.24722   0.76250   0.90413   0.00000  Uiso   1.00
C2940  C     0.83384   0.50518   0.98821   0.00000  Uiso   1.00
C2941  C     0.81169   0.51021   0.97623   0.00000  Uiso   1.00
C2942  C     0.78980   0.50490   0.98815   0.00000  Uiso   1.00
C2943  C     0.81042   0.52026   0.95265   0.00000  Uiso   1.00
C2944  C     0.78759   0.52388   0.94138   0.00000  Uiso   1.00
C2945  C     0.76616   0.51774   0.95404   0.00000  Uiso   1.00
C2946  C     0.74231   0.48765   0.05463   0.00000  Uiso   1.00
C2947  C     0.73289   0.51131   0.05452   0.00000  Uiso   1.00
C2948  C     0.92951   0.83099   0.99933   0.00000  Uiso   1.00
C2949  C     0.68945   0.73443   0.04133   0.00000  Uiso   1.00
C2950  C     0.68365   0.75394   0.05689   0.00000  Uiso   1.00
C2951  C     0.68204   0.77756   0.04713   0.00000  Uiso   1.00
C2952  C     0.68795   0.78174   0.02260   0.00000  Uiso   1.00
N309   N     0.24308   0.77428   0.96991   0.00000  Uiso   1.00
N310   N     0.76815   0.50897   0.97692   0.00000  Uiso   1.00
N311   N     0.41300   0.46082   0.68239   0.00000  Uiso   1.00
C2953  C     0.40694   0.41847   0.61788   0.00000  Uiso   1.00
C2954  C     0.40362   0.44383   0.61665   0.00000  Uiso   1.00
C2955  C     0.40561   0.45814   0.63766   0.00000  Uiso   1.00
C2956  C     0.41085   0.44715   0.66024   0.00000  Uiso   1.00
C2957  C     0.41397   0.42189   0.66145   0.00000  Uiso   1.00
C2958  C     0.41233   0.40770   0.64045   0.00000  Uiso   1.00
C2959  C     0.66013   0.18686   0.69556   0.00000  Uiso   1.00
C2960  C     0.63844   0.18980   0.68229   0.00000  Uiso   1.00
C2961  C     0.61603   0.18977   0.69413   0.00000  Uiso   1.00
C2962  C     0.61467   0.18703   0.71940   0.00000  Uiso   1.00
C2963  C     0.63629   0.18486   0.73302   0.00000  Uiso   1.00
C2964  C     0.65890   0.18467   0.72108   0.00000  Uiso   1.00
N312   N     0.59080   0.31429   0.77015   0.00000  Uiso   1.00
H1849  H     0.99571   0.33277   0.08007   0.00000  Uiso   1.00
H1850  H     0.78501   0.21192   0.01362   0.00000  Uiso   1.00
H1851  H     0.77333   0.19666   0.05569   0.00000  Uiso   1.00
H1852  H     0.71954   0.14729   0.02265   0.00000  Uiso   1.00
H1853  H     0.73295   0.16090   0.98064   0.00000  Uiso   1.00
H1854  H     0.23312   0.83249   0.95020   0.00000  Uiso   1.00
H1855  H     0.23633   0.81071   0.90935   0.00000  Uiso   1.00
H1856  H     0.24526   0.77259   0.88607   0.00000  Uiso   1.00
H1857  H     0.85191   0.50948   0.97889   0.00000  Uiso   1.00
H1858  H     0.82786   0.52548   0.94263   0.00000  Uiso   1.00
H1859  H     0.78662   0.53172   0.92216   0.00000  Uiso   1.00
H1860  H     0.74510   0.52734   0.04944   0.00000  Uiso   1.00
H1861  H     0.68922   0.71495   0.04856   0.00000  Uiso   1.00
H1862  H     0.67593   0.79337   0.05915   0.00000  Uiso   1.00
H1863  H     0.68674   0.80094   0.01474   0.00000  Uiso   1.00
H1864  H     0.39928   0.45288   0.59845   0.00000  Uiso   1.00
H1865  H     0.40299   0.47872   0.63648   0.00000  Uiso   1.00
H1866  H     0.41788   0.41277   0.67970   0.00000  Uiso   1.00
H1867  H     0.41537   0.38717   0.64153   0.00000  Uiso   1.00
H1868  H     0.63912   0.19223   0.66166   0.00000  Uiso   1.00
H1869  H     0.59865   0.19201   0.68296   0.00000  Uiso   1.00
H1870  H     0.63541   0.18327   0.75372   0.00000  Uiso   1.00
H1871  H     0.67643   0.18274   0.73206   0.00000  Uiso   1.00
F155   F     0.63826   0.73324   0.99357   0.00000  Uiso   1.00
F156   F     0.60894   0.75633   0.97443   0.00000  Uiso   1.00
H1872  H     0.67086   0.76550   0.09270   0.00000  Uiso   1.00
O78    O     0.27046   0.60091   0.41708   0.00000  Uiso   1.00
C2965  C     0.48376   0.81583   0.08155   0.00000  Uiso   1.00
C2966  C     0.26991   0.69780   0.01573   0.00000  Uiso   1.00
C2967  C     0.26329   0.68961   0.03892   0.00000  Uiso   1.00
C2968  C     0.24432   0.67273   0.04157   0.00000  Uiso   1.00
C2969  C     0.23388   0.66219   0.02070   0.00000  Uiso   1.00
C2970  C     0.24101   0.66991   0.99754   0.00000  Uiso   1.00
C2971  C     0.25811   0.68877   0.99496   0.00000  Uiso   1.00
C2972  C     0.73931   0.29876   0.97131   0.00000  Uiso   1.00
C2973  C     0.73681   0.31205   0.94953   0.00000  Uiso   1.00
C2974  C     0.73889   0.30009   0.92703   0.00000  Uiso   1.00
C2975  C     0.74660   0.26245   0.94835   0.00000  Uiso   1.00
C2976  C     0.74410   0.27508   0.92623   0.00000  Uiso   1.00
C2977  C     0.74722   0.26250   0.90413   0.00000  Uiso   1.00
C2978  C     0.33384   0.00518   0.98821   0.00000  Uiso   1.00
C2979  C     0.31169   0.01021   0.97623   0.00000  Uiso   1.00
C2980  C     0.28980   0.00490   0.98815   0.00000  Uiso   1.00
C2981  C     0.31042   0.02026   0.95265   0.00000  Uiso   1.00
C2982  C     0.28759   0.02388   0.94138   0.00000  Uiso   1.00
C2983  C     0.26616   0.01774   0.95404   0.00000  Uiso   1.00
C2984  C     0.24231   0.98765   0.05463   0.00000  Uiso   1.00
C2985  C     0.23289   0.01131   0.05452   0.00000  Uiso   1.00
C2986  C     0.42951   0.33099   0.99933   0.00000  Uiso   1.00
C2987  C     0.18945   0.23443   0.04133   0.00000  Uiso   1.00
C2988  C     0.18365   0.25394   0.05689   0.00000  Uiso   1.00
C2989  C     0.18204   0.27756   0.04713   0.00000  Uiso   1.00
C2990  C     0.18795   0.28174   0.02260   0.00000  Uiso   1.00
N313   N     0.74308   0.27428   0.96991   0.00000  Uiso   1.00
N314   N     0.26815   0.00897   0.97692   0.00000  Uiso   1.00
N315   N     0.91300   0.96082   0.68239   0.00000  Uiso   1.00
C2991  C     0.90694   0.91847   0.61788   0.00000  Uiso   1.00
C2992  C     0.90362   0.94383   0.61665   0.00000  Uiso   1.00
C2993  C     0.90561   0.95814   0.63766   0.00000  Uiso   1.00
C2994  C     0.91085   0.94715   0.66024   0.00000  Uiso   1.00
C2995  C     0.91397   0.92189   0.66145   0.00000  Uiso   1.00
C2996  C     0.91233   0.90770   0.64045   0.00000  Uiso   1.00
C2997  C     0.16013   0.68686   0.69556   0.00000  Uiso   1.00
C2998  C     0.13844   0.68980   0.68229   0.00000  Uiso   1.00
C2999  C     0.11603   0.68977   0.69413   0.00000  Uiso   1.00
C3000  C     0.11467   0.68703   0.71940   0.00000  Uiso   1.00
C3001  C     0.13629   0.68486   0.73302   0.00000  Uiso   1.00
C3002  C     0.15890   0.68467   0.72108   0.00000  Uiso   1.00
N316   N     0.09080   0.81429   0.77015   0.00000  Uiso   1.00
H1873  H     0.49571   0.83277   0.08007   0.00000  Uiso   1.00
H1874  H     0.28501   0.71192   0.01362   0.00000  Uiso   1.00
H1875  H     0.27333   0.69666   0.05569   0.00000  Uiso   1.00
H1876  H     0.21954   0.64729   0.02265   0.00000  Uiso   1.00
H1877  H     0.23295   0.66090   0.98064   0.00000  Uiso   1.00
H1878  H     0.73312   0.33249   0.95020   0.00000  Uiso   1.00
H1879  H     0.73633   0.31071   0.90935   0.00000  Uiso   1.00
H1880  H     0.74526   0.27259   0.88607   0.00000  Uiso   1.00
H1881  H     0.35191   0.00948   0.97889   0.00000  Uiso   1.00
H1882  H     0.32786   0.02548   0.94263   0.00000  Uiso   1.00
H1883  H     0.28662   0.03172   0.92216   0.00000  Uiso   1.00
H1884  H     0.24510   0.02734   0.04944   0.00000  Uiso   1.00
H1885  H     0.18922   0.21495   0.04856   0.00000  Uiso   1.00
H1886  H     0.17593   0.29337   0.05915   0.00000  Uiso   1.00
H1887  H     0.18674   0.30094   0.01474   0.00000  Uiso   1.00
H1888  H     0.89928   0.95288   0.59845   0.00000  Uiso   1.00
H1889  H     0.90299   0.97872   0.63648   0.00000  Uiso   1.00
H1890  H     0.91788   0.91277   0.67970   0.00000  Uiso   1.00
H1891  H     0.91537   0.88717   0.64153   0.00000  Uiso   1.00
H1892  H     0.13912   0.69223   0.66166   0.00000  Uiso   1.00
H1893  H     0.09865   0.69201   0.68296   0.00000  Uiso   1.00
H1894  H     0.13541   0.68327   0.75372   0.00000  Uiso   1.00
H1895  H     0.17643   0.68274   0.73206   0.00000  Uiso   1.00
F157   F     0.13826   0.23324   0.99357   0.00000  Uiso   1.00
F158   F     0.10894   0.25633   0.97443   0.00000  Uiso   1.00
H1896  H     0.17086   0.26550   0.09270   0.00000  Uiso   1.00
O79    O     0.77046   0.10091   0.41708   0.00000  Uiso   1.00
C3003  C     0.48376   0.31583   0.58155   0.00000  Uiso   1.00
C3004  C     0.26991   0.19780   0.51573   0.00000  Uiso   1.00
C3005  C     0.26329   0.18961   0.53892   0.00000  Uiso   1.00
C3006  C     0.24432   0.17273   0.54157   0.00000  Uiso   1.00
C3007  C     0.23388   0.16219   0.52070   0.00000  Uiso   1.00
C3008  C     0.24101   0.16991   0.49754   0.00000  Uiso   1.00
C3009  C     0.25811   0.18877   0.49496   0.00000  Uiso   1.00
C3010  C     0.73931   0.79876   0.47131   0.00000  Uiso   1.00
C3011  C     0.73681   0.81205   0.44953   0.00000  Uiso   1.00
C3012  C     0.73889   0.80009   0.42703   0.00000  Uiso   1.00
C3013  C     0.74660   0.76245   0.44835   0.00000  Uiso   1.00
C3014  C     0.74410   0.77508   0.42623   0.00000  Uiso   1.00
C3015  C     0.74722   0.76250   0.40413   0.00000  Uiso   1.00
C3016  C     0.33384   0.50518   0.48821   0.00000  Uiso   1.00
C3017  C     0.31169   0.51021   0.47623   0.00000  Uiso   1.00
C3018  C     0.28980   0.50490   0.48815   0.00000  Uiso   1.00
C3019  C     0.31042   0.52026   0.45265   0.00000  Uiso   1.00
C3020  C     0.28759   0.52388   0.44138   0.00000  Uiso   1.00
C3021  C     0.26616   0.51774   0.45404   0.00000  Uiso   1.00
C3022  C     0.24231   0.48765   0.55463   0.00000  Uiso   1.00
C3023  C     0.23289   0.51131   0.55452   0.00000  Uiso   1.00
C3024  C     0.42951   0.83099   0.49933   0.00000  Uiso   1.00
C3025  C     0.18945   0.73443   0.54133   0.00000  Uiso   1.00
C3026  C     0.18365   0.75394   0.55689   0.00000  Uiso   1.00
C3027  C     0.18204   0.77756   0.54713   0.00000  Uiso   1.00
C3028  C     0.18795   0.78174   0.52260   0.00000  Uiso   1.00
N317   N     0.74308   0.77428   0.46991   0.00000  Uiso   1.00
N318   N     0.26815   0.50897   0.47692   0.00000  Uiso   1.00
N319   N     0.91300   0.46082   0.18239   0.00000  Uiso   1.00
C3029  C     0.90694   0.41847   0.11788   0.00000  Uiso   1.00
C3030  C     0.90362   0.44383   0.11665   0.00000  Uiso   1.00
C3031  C     0.90561   0.45814   0.13766   0.00000  Uiso   1.00
C3032  C     0.91085   0.44715   0.16024   0.00000  Uiso   1.00
C3033  C     0.91397   0.42189   0.16145   0.00000  Uiso   1.00
C3034  C     0.91233   0.40770   0.14045   0.00000  Uiso   1.00
C3035  C     0.16013   0.18686   0.19556   0.00000  Uiso   1.00
C3036  C     0.13844   0.18980   0.18229   0.00000  Uiso   1.00
C3037  C     0.11603   0.18977   0.19413   0.00000  Uiso   1.00
C3038  C     0.11467   0.18703   0.21940   0.00000  Uiso   1.00
C3039  C     0.13629   0.18486   0.23302   0.00000  Uiso   1.00
C3040  C     0.15890   0.18467   0.22108   0.00000  Uiso   1.00
N320   N     0.09080   0.31429   0.27015   0.00000  Uiso   1.00
H1897  H     0.49571   0.33277   0.58007   0.00000  Uiso   1.00
H1898  H     0.28501   0.21192   0.51362   0.00000  Uiso   1.00
H1899  H     0.27333   0.19666   0.55569   0.00000  Uiso   1.00
H1900  H     0.21954   0.14729   0.52265   0.00000  Uiso   1.00
H1901  H     0.23295   0.16090   0.48064   0.00000  Uiso   1.00
H1902  H     0.73312   0.83249   0.45020   0.00000  Uiso   1.00
H1903  H     0.73633   0.81071   0.40935   0.00000  Uiso   1.00
H1904  H     0.74526   0.77259   0.38607   0.00000  Uiso   1.00
H1905  H     0.35191   0.50948   0.47889   0.00000  Uiso   1.00
H1906  H     0.32786   0.52548   0.44263   0.00000  Uiso   1.00
H1907  H     0.28662   0.53172   0.42216   0.00000  Uiso   1.00
H1908  H     0.24510   0.52734   0.54944   0.00000  Uiso   1.00
H1909  H     0.18922   0.71495   0.54856   0.00000  Uiso   1.00
H1910  H     0.17593   0.79337   0.55915   0.00000  Uiso   1.00
H1911  H     0.18674   0.80094   0.51474   0.00000  Uiso   1.00
H1912  H     0.89928   0.45288   0.09845   0.00000  Uiso   1.00
H1913  H     0.90299   0.47872   0.13648   0.00000  Uiso   1.00
H1914  H     0.91788   0.41277   0.17970   0.00000  Uiso   1.00
H1915  H     0.91537   0.38717   0.14153   0.00000  Uiso   1.00
H1916  H     0.13912   0.19223   0.16166   0.00000  Uiso   1.00
H1917  H     0.09865   0.19201   0.18296   0.00000  Uiso   1.00
H1918  H     0.13541   0.18327   0.25372   0.00000  Uiso   1.00
H1919  H     0.17643   0.18274   0.23206   0.00000  Uiso   1.00
F159   F     0.13826   0.73324   0.49357   0.00000  Uiso   1.00
F160   F     0.10894   0.75633   0.47443   0.00000  Uiso   1.00
H1920  H     0.17086   0.76550   0.59270   0.00000  Uiso   1.00
O80    O     0.77046   0.60091   0.91708   0.00000  Uiso   1.00
C3041  C     0.68417   0.08155   0.01624   0.00000  Uiso   1.00
C3042  C     0.80220   0.01573   0.23009   0.00000  Uiso   1.00
C3043  C     0.81039   0.03892   0.23671   0.00000  Uiso   1.00
C3044  C     0.82727   0.04157   0.25568   0.00000  Uiso   1.00
C3045  C     0.83781   0.02070   0.26612   0.00000  Uiso   1.00
C3046  C     0.83009   0.99754   0.25899   0.00000  Uiso   1.00
C3047  C     0.81123   0.99496   0.24189   0.00000  Uiso   1.00
C3048  C     0.20124   0.97131   0.76069   0.00000  Uiso   1.00
C3049  C     0.18795   0.94953   0.76319   0.00000  Uiso   1.00
C3050  C     0.19991   0.92703   0.76111   0.00000  Uiso   1.00
C3051  C     0.23755   0.94835   0.75340   0.00000  Uiso   1.00
C3052  C     0.22492   0.92623   0.75590   0.00000  Uiso   1.00
C3053  C     0.23750   0.90413   0.75278   0.00000  Uiso   1.00
C3054  C     0.49482   0.98821   0.16616   0.00000  Uiso   1.00
C3055  C     0.48979   0.97623   0.18831   0.00000  Uiso   1.00
C3056  C     0.49510   0.98815   0.21020   0.00000  Uiso   1.00
C3057  C     0.47974   0.95265   0.18958   0.00000  Uiso   1.00
C3058  C     0.47612   0.94138   0.21241   0.00000  Uiso   1.00
C3059  C     0.48226   0.95404   0.23384   0.00000  Uiso   1.00
C3060  C     0.51235   0.05463   0.25769   0.00000  Uiso   1.00
C3061  C     0.48869   0.05452   0.26711   0.00000  Uiso   1.00
C3062  C     0.16901   0.99933   0.07049   0.00000  Uiso   1.00
C3063  C     0.26557   0.04133   0.31055   0.00000  Uiso   1.00
C3064  C     0.24606   0.05689   0.31635   0.00000  Uiso   1.00
C3065  C     0.22244   0.04713   0.31796   0.00000  Uiso   1.00
C3066  C     0.21826   0.02260   0.31205   0.00000  Uiso   1.00
N321   N     0.22572   0.96991   0.75692   0.00000  Uiso   1.00
N322   N     0.49103   0.97692   0.23185   0.00000  Uiso   1.00
N323   N     0.53918   0.68239   0.58700   0.00000  Uiso   1.00
C3067  C     0.58153   0.61788   0.59306   0.00000  Uiso   1.00
C3068  C     0.55617   0.61665   0.59638   0.00000  Uiso   1.00
C3069  C     0.54186   0.63766   0.59439   0.00000  Uiso   1.00
C3070  C     0.55285   0.66024   0.58915   0.00000  Uiso   1.00
C3071  C     0.57811   0.66145   0.58603   0.00000  Uiso   1.00
C3072  C     0.59230   0.64045   0.58767   0.00000  Uiso   1.00
C3073  C     0.81314   0.69556   0.33987   0.00000  Uiso   1.00
C3074  C     0.81020   0.68229   0.36156   0.00000  Uiso   1.00
C3075  C     0.81023   0.69413   0.38397   0.00000  Uiso   1.00
C3076  C     0.81297   0.71940   0.38533   0.00000  Uiso   1.00
C3077  C     0.81514   0.73302   0.36371   0.00000  Uiso   1.00
C3078  C     0.81533   0.72108   0.34110   0.00000  Uiso   1.00
N324   N     0.68571   0.77015   0.40920   0.00000  Uiso   1.00
H1921  H     0.66723   0.08007   0.00429   0.00000  Uiso   1.00
H1922  H     0.78808   0.01362   0.21499   0.00000  Uiso   1.00
H1923  H     0.80334   0.05569   0.22667   0.00000  Uiso   1.00
H1924  H     0.85271   0.02265   0.28046   0.00000  Uiso   1.00
H1925  H     0.83910   0.98064   0.26705   0.00000  Uiso   1.00
H1926  H     0.16751   0.95020   0.76688   0.00000  Uiso   1.00
H1927  H     0.18929   0.90935   0.76367   0.00000  Uiso   1.00
H1928  H     0.22741   0.88607   0.75474   0.00000  Uiso   1.00
H1929  H     0.49052   0.97889   0.14809   0.00000  Uiso   1.00
H1930  H     0.47452   0.94263   0.17214   0.00000  Uiso   1.00
H1931  H     0.46828   0.92216   0.21338   0.00000  Uiso   1.00
H1932  H     0.47266   0.04944   0.25490   0.00000  Uiso   1.00
H1933  H     0.28505   0.04856   0.31078   0.00000  Uiso   1.00
H1934  H     0.20663   0.05915   0.32407   0.00000  Uiso   1.00
H1935  H     0.19906   0.01474   0.31326   0.00000  Uiso   1.00
H1936  H     0.54712   0.59845   0.60072   0.00000  Uiso   1.00
H1937  H     0.52128   0.63648   0.59701   0.00000  Uiso   1.00
H1938  H     0.58723   0.67970   0.58212   0.00000  Uiso   1.00
H1939  H     0.61283   0.64153   0.58463   0.00000  Uiso   1.00
H1940  H     0.80777   0.66166   0.36088   0.00000  Uiso   1.00
H1941  H     0.80799   0.68296   0.40135   0.00000  Uiso   1.00
H1942  H     0.81673   0.75372   0.36459   0.00000  Uiso   1.00
H1943  H     0.81726   0.73206   0.32357   0.00000  Uiso   1.00
F161   F     0.26676   0.99357   0.36174   0.00000  Uiso   1.00
F162   F     0.24367   0.97443   0.39106   0.00000  Uiso   1.00
H1944  H     0.23450   0.09270   0.32914   0.00000  Uiso   1.00
O81    O     0.39909   0.41708   0.72954   0.00000  Uiso   1.00
C3079  C     0.68417   0.58155   0.51624   0.00000  Uiso   1.00
C3080  C     0.80220   0.51573   0.73009   0.00000  Uiso   1.00
C3081  C     0.81039   0.53892   0.73671   0.00000  Uiso   1.00
C3082  C     0.82727   0.54157   0.75568   0.00000  Uiso   1.00
C3083  C     0.83781   0.52070   0.76612   0.00000  Uiso   1.00
C3084  C     0.83009   0.49754   0.75899   0.00000  Uiso   1.00
C3085  C     0.81123   0.49496   0.74189   0.00000  Uiso   1.00
C3086  C     0.20124   0.47131   0.26069   0.00000  Uiso   1.00
C3087  C     0.18795   0.44953   0.26319   0.00000  Uiso   1.00
C3088  C     0.19991   0.42703   0.26111   0.00000  Uiso   1.00
C3089  C     0.23755   0.44835   0.25340   0.00000  Uiso   1.00
C3090  C     0.22492   0.42623   0.25590   0.00000  Uiso   1.00
C3091  C     0.23750   0.40413   0.25278   0.00000  Uiso   1.00
C3092  C     0.49482   0.48821   0.66616   0.00000  Uiso   1.00
C3093  C     0.48979   0.47623   0.68831   0.00000  Uiso   1.00
C3094  C     0.49510   0.48815   0.71020   0.00000  Uiso   1.00
C3095  C     0.47974   0.45265   0.68958   0.00000  Uiso   1.00
C3096  C     0.47612   0.44138   0.71241   0.00000  Uiso   1.00
C3097  C     0.48226   0.45404   0.73384   0.00000  Uiso   1.00
C3098  C     0.51235   0.55463   0.75769   0.00000  Uiso   1.00
C3099  C     0.48869   0.55452   0.76711   0.00000  Uiso   1.00
C3100  C     0.16901   0.49933   0.57049   0.00000  Uiso   1.00
C3101  C     0.26557   0.54133   0.81055   0.00000  Uiso   1.00
C3102  C     0.24606   0.55689   0.81635   0.00000  Uiso   1.00
C3103  C     0.22244   0.54713   0.81796   0.00000  Uiso   1.00
C3104  C     0.21826   0.52260   0.81205   0.00000  Uiso   1.00
N325   N     0.22572   0.46991   0.25692   0.00000  Uiso   1.00
N326   N     0.49103   0.47692   0.73185   0.00000  Uiso   1.00
N327   N     0.53918   0.18239   0.08700   0.00000  Uiso   1.00
C3105  C     0.58153   0.11788   0.09306   0.00000  Uiso   1.00
C3106  C     0.55617   0.11665   0.09638   0.00000  Uiso   1.00
C3107  C     0.54186   0.13766   0.09439   0.00000  Uiso   1.00
C3108  C     0.55285   0.16024   0.08915   0.00000  Uiso   1.00
C3109  C     0.57811   0.16145   0.08603   0.00000  Uiso   1.00
C3110  C     0.59230   0.14045   0.08767   0.00000  Uiso   1.00
C3111  C     0.81314   0.19556   0.83987   0.00000  Uiso   1.00
C3112  C     0.81020   0.18229   0.86156   0.00000  Uiso   1.00
C3113  C     0.81023   0.19413   0.88397   0.00000  Uiso   1.00
C3114  C     0.81297   0.21940   0.88533   0.00000  Uiso   1.00
C3115  C     0.81514   0.23302   0.86371   0.00000  Uiso   1.00
C3116  C     0.81533   0.22108   0.84110   0.00000  Uiso   1.00
N328   N     0.68571   0.27015   0.90920   0.00000  Uiso   1.00
H1945  H     0.66723   0.58007   0.50429   0.00000  Uiso   1.00
H1946  H     0.78808   0.51362   0.71499   0.00000  Uiso   1.00
H1947  H     0.80334   0.55569   0.72667   0.00000  Uiso   1.00
H1948  H     0.85271   0.52265   0.78046   0.00000  Uiso   1.00
H1949  H     0.83910   0.48064   0.76705   0.00000  Uiso   1.00
H1950  H     0.16751   0.45020   0.26688   0.00000  Uiso   1.00
H1951  H     0.18929   0.40935   0.26367   0.00000  Uiso   1.00
H1952  H     0.22741   0.38607   0.25474   0.00000  Uiso   1.00
H1953  H     0.49052   0.47889   0.64809   0.00000  Uiso   1.00
H1954  H     0.47452   0.44263   0.67214   0.00000  Uiso   1.00
H1955  H     0.46828   0.42216   0.71338   0.00000  Uiso   1.00
H1956  H     0.47266   0.54944   0.75490   0.00000  Uiso   1.00
H1957  H     0.28505   0.54856   0.81078   0.00000  Uiso   1.00
H1958  H     0.20663   0.55915   0.82407   0.00000  Uiso   1.00
H1959  H     0.19906   0.51474   0.81326   0.00000  Uiso   1.00
H1960  H     0.54712   0.09845   0.10072   0.00000  Uiso   1.00
H1961  H     0.52128   0.13648   0.09701   0.00000  Uiso   1.00
H1962  H     0.58723   0.17970   0.08212   0.00000  Uiso   1.00
H1963  H     0.61283   0.14153   0.08463   0.00000  Uiso   1.00
H1964  H     0.80777   0.16166   0.86088   0.00000  Uiso   1.00
H1965  H     0.80799   0.18296   0.90135   0.00000  Uiso   1.00
H1966  H     0.81673   0.25372   0.86459   0.00000  Uiso   1.00
H1967  H     0.81726   0.23206   0.82357   0.00000  Uiso   1.00
F163   F     0.26676   0.49357   0.86174   0.00000  Uiso   1.00
F164   F     0.24367   0.47443   0.89106   0.00000  Uiso   1.00
H1968  H     0.23450   0.59270   0.82914   0.00000  Uiso   1.00
O82    O     0.39909   0.91708   0.22954   0.00000  Uiso   1.00
C3117  C     0.18417   0.08155   0.51624   0.00000  Uiso   1.00
C3118  C     0.30220   0.01573   0.73009   0.00000  Uiso   1.00
C3119  C     0.31039   0.03892   0.73671   0.00000  Uiso   1.00
C3120  C     0.32727   0.04157   0.75568   0.00000  Uiso   1.00
C3121  C     0.33781   0.02070   0.76612   0.00000  Uiso   1.00
C3122  C     0.33009   0.99754   0.75899   0.00000  Uiso   1.00
C3123  C     0.31123   0.99496   0.74189   0.00000  Uiso   1.00
C3124  C     0.70124   0.97131   0.26069   0.00000  Uiso   1.00
C3125  C     0.68795   0.94953   0.26319   0.00000  Uiso   1.00
C3126  C     0.69991   0.92703   0.26111   0.00000  Uiso   1.00
C3127  C     0.73755   0.94835   0.25340   0.00000  Uiso   1.00
C3128  C     0.72492   0.92623   0.25590   0.00000  Uiso   1.00
C3129  C     0.73750   0.90413   0.25278   0.00000  Uiso   1.00
C3130  C     0.99482   0.98821   0.66616   0.00000  Uiso   1.00
C3131  C     0.98979   0.97623   0.68831   0.00000  Uiso   1.00
C3132  C     0.99510   0.98815   0.71020   0.00000  Uiso   1.00
C3133  C     0.97974   0.95265   0.68958   0.00000  Uiso   1.00
C3134  C     0.97612   0.94138   0.71241   0.00000  Uiso   1.00
C3135  C     0.98226   0.95404   0.73384   0.00000  Uiso   1.00
C3136  C     0.01235   0.05463   0.75769   0.00000  Uiso   1.00
C3137  C     0.98869   0.05452   0.76711   0.00000  Uiso   1.00
C3138  C     0.66901   0.99933   0.57049   0.00000  Uiso   1.00
C3139  C     0.76557   0.04133   0.81055   0.00000  Uiso   1.00
C3140  C     0.74606   0.05689   0.81635   0.00000  Uiso   1.00
C3141  C     0.72244   0.04713   0.81796   0.00000  Uiso   1.00
C3142  C     0.71826   0.02260   0.81205   0.00000  Uiso   1.00
N329   N     0.72572   0.96991   0.25692   0.00000  Uiso   1.00
N330   N     0.99103   0.97692   0.73185   0.00000  Uiso   1.00
N331   N     0.03918   0.68239   0.08700   0.00000  Uiso   1.00
C3143  C     0.08153   0.61788   0.09306   0.00000  Uiso   1.00
C3144  C     0.05617   0.61665   0.09638   0.00000  Uiso   1.00
C3145  C     0.04186   0.63766   0.09439   0.00000  Uiso   1.00
C3146  C     0.05285   0.66024   0.08915   0.00000  Uiso   1.00
C3147  C     0.07811   0.66145   0.08603   0.00000  Uiso   1.00
C3148  C     0.09230   0.64045   0.08767   0.00000  Uiso   1.00
C3149  C     0.31314   0.69556   0.83987   0.00000  Uiso   1.00
C3150  C     0.31020   0.68229   0.86156   0.00000  Uiso   1.00
C3151  C     0.31023   0.69413   0.88397   0.00000  Uiso   1.00
C3152  C     0.31297   0.71940   0.88533   0.00000  Uiso   1.00
C3153  C     0.31514   0.73302   0.86371   0.00000  Uiso   1.00
C3154  C     0.31533   0.72108   0.84110   0.00000  Uiso   1.00
N332   N     0.18571   0.77015   0.90920   0.00000  Uiso   1.00
H1969  H     0.16723   0.08007   0.50429   0.00000  Uiso   1.00
H1970  H     0.28808   0.01362   0.71499   0.00000  Uiso   1.00
H1971  H     0.30334   0.05569   0.72667   0.00000  Uiso   1.00
H1972  H     0.35271   0.02265   0.78046   0.00000  Uiso   1.00
H1973  H     0.33910   0.98064   0.76705   0.00000  Uiso   1.00
H1974  H     0.66751   0.95020   0.26688   0.00000  Uiso   1.00
H1975  H     0.68929   0.90935   0.26367   0.00000  Uiso   1.00
H1976  H     0.72741   0.88607   0.25474   0.00000  Uiso   1.00
H1977  H     0.99052   0.97889   0.64809   0.00000  Uiso   1.00
H1978  H     0.97452   0.94263   0.67214   0.00000  Uiso   1.00
H1979  H     0.96828   0.92216   0.71338   0.00000  Uiso   1.00
H1980  H     0.97266   0.04944   0.75490   0.00000  Uiso   1.00
H1981  H     0.78505   0.04856   0.81078   0.00000  Uiso   1.00
H1982  H     0.70663   0.05915   0.82407   0.00000  Uiso   1.00
H1983  H     0.69906   0.01474   0.81326   0.00000  Uiso   1.00
H1984  H     0.04712   0.59845   0.10072   0.00000  Uiso   1.00
H1985  H     0.02128   0.63648   0.09701   0.00000  Uiso   1.00
H1986  H     0.08723   0.67970   0.08212   0.00000  Uiso   1.00
H1987  H     0.11283   0.64153   0.08463   0.00000  Uiso   1.00
H1988  H     0.30777   0.66166   0.86088   0.00000  Uiso   1.00
H1989  H     0.30799   0.68296   0.90135   0.00000  Uiso   1.00
H1990  H     0.31673   0.75372   0.86459   0.00000  Uiso   1.00
H1991  H     0.31726   0.73206   0.82357   0.00000  Uiso   1.00
F165   F     0.76676   0.99357   0.86174   0.00000  Uiso   1.00
F166   F     0.74367   0.97443   0.89106   0.00000  Uiso   1.00
H1992  H     0.73450   0.09270   0.82914   0.00000  Uiso   1.00
O83    O     0.89909   0.41708   0.22954   0.00000  Uiso   1.00
C3155  C     0.18417   0.58155   0.01624   0.00000  Uiso   1.00
C3156  C     0.30220   0.51573   0.23009   0.00000  Uiso   1.00
C3157  C     0.31039   0.53892   0.23671   0.00000  Uiso   1.00
C3158  C     0.32727   0.54157   0.25568   0.00000  Uiso   1.00
C3159  C     0.33781   0.52070   0.26612   0.00000  Uiso   1.00
C3160  C     0.33009   0.49754   0.25899   0.00000  Uiso   1.00
C3161  C     0.31123   0.49496   0.24189   0.00000  Uiso   1.00
C3162  C     0.70124   0.47131   0.76069   0.00000  Uiso   1.00
C3163  C     0.68795   0.44953   0.76319   0.00000  Uiso   1.00
C3164  C     0.69991   0.42703   0.76111   0.00000  Uiso   1.00
C3165  C     0.73755   0.44835   0.75340   0.00000  Uiso   1.00
C3166  C     0.72492   0.42623   0.75590   0.00000  Uiso   1.00
C3167  C     0.73750   0.40413   0.75278   0.00000  Uiso   1.00
C3168  C     0.99482   0.48821   0.16616   0.00000  Uiso   1.00
C3169  C     0.98979   0.47623   0.18831   0.00000  Uiso   1.00
C3170  C     0.99510   0.48815   0.21020   0.00000  Uiso   1.00
C3171  C     0.97974   0.45265   0.18958   0.00000  Uiso   1.00
C3172  C     0.97612   0.44138   0.21241   0.00000  Uiso   1.00
C3173  C     0.98226   0.45404   0.23384   0.00000  Uiso   1.00
C3174  C     0.01235   0.55463   0.25769   0.00000  Uiso   1.00
C3175  C     0.98869   0.55452   0.26711   0.00000  Uiso   1.00
C3176  C     0.66901   0.49933   0.07049   0.00000  Uiso   1.00
C3177  C     0.76557   0.54133   0.31055   0.00000  Uiso   1.00
C3178  C     0.74606   0.55689   0.31635   0.00000  Uiso   1.00
C3179  C     0.72244   0.54713   0.31796   0.00000  Uiso   1.00
C3180  C     0.71826   0.52260   0.31205   0.00000  Uiso   1.00
N333   N     0.72572   0.46991   0.75692   0.00000  Uiso   1.00
N334   N     0.99103   0.47692   0.23185   0.00000  Uiso   1.00
N335   N     0.03918   0.18239   0.58700   0.00000  Uiso   1.00
C3181  C     0.08153   0.11788   0.59306   0.00000  Uiso   1.00
C3182  C     0.05617   0.11665   0.59638   0.00000  Uiso   1.00
C3183  C     0.04186   0.13766   0.59439   0.00000  Uiso   1.00
C3184  C     0.05285   0.16024   0.58915   0.00000  Uiso   1.00
C3185  C     0.07811   0.16145   0.58603   0.00000  Uiso   1.00
C3186  C     0.09230   0.14045   0.58767   0.00000  Uiso   1.00
C3187  C     0.31314   0.19556   0.33987   0.00000  Uiso   1.00
C3188  C     0.31020   0.18229   0.36156   0.00000  Uiso   1.00
C3189  C     0.31023   0.19413   0.38397   0.00000  Uiso   1.00
C3190  C     0.31297   0.21940   0.38533   0.00000  Uiso   1.00
C3191  C     0.31514   0.23302   0.36371   0.00000  Uiso   1.00
C3192  C     0.31533   0.22108   0.34110   0.00000  Uiso   1.00
N336   N     0.18571   0.27015   0.40920   0.00000  Uiso   1.00
H1993  H     0.16723   0.58007   0.00429   0.00000  Uiso   1.00
H1994  H     0.28808   0.51362   0.21499   0.00000  Uiso   1.00
H1995  H     0.30334   0.55569   0.22667   0.00000  Uiso   1.00
H1996  H     0.35271   0.52265   0.28046   0.00000  Uiso   1.00
H1997  H     0.33910   0.48064   0.26705   0.00000  Uiso   1.00
H1998  H     0.66751   0.45020   0.76688   0.00000  Uiso   1.00
H1999  H     0.68929   0.40935   0.76367   0.00000  Uiso   1.00
H2000  H     0.72741   0.38607   0.75474   0.00000  Uiso   1.00
H2001  H     0.99052   0.47889   0.14809   0.00000  Uiso   1.00
H2002  H     0.97452   0.44263   0.17214   0.00000  Uiso   1.00
H2003  H     0.96828   0.42216   0.21338   0.00000  Uiso   1.00
H2004  H     0.97266   0.54944   0.25490   0.00000  Uiso   1.00
H2005  H     0.78505   0.54856   0.31078   0.00000  Uiso   1.00
H2006  H     0.70663   0.55915   0.32407   0.00000  Uiso   1.00
H2007  H     0.69906   0.51474   0.31326   0.00000  Uiso   1.00
H2008  H     0.04712   0.09845   0.60072   0.00000  Uiso   1.00
H2009  H     0.02128   0.13648   0.59701   0.00000  Uiso   1.00
H2010  H     0.08723   0.17970   0.58212   0.00000  Uiso   1.00
H2011  H     0.11283   0.14153   0.58463   0.00000  Uiso   1.00
H2012  H     0.30777   0.16166   0.36088   0.00000  Uiso   1.00
H2013  H     0.30799   0.18296   0.40135   0.00000  Uiso   1.00
H2014  H     0.31673   0.25372   0.36459   0.00000  Uiso   1.00
H2015  H     0.31726   0.23206   0.32357   0.00000  Uiso   1.00
F167   F     0.76676   0.49357   0.36174   0.00000  Uiso   1.00
F168   F     0.74367   0.47443   0.39106   0.00000  Uiso   1.00
H2016  H     0.73450   0.59270   0.32914   0.00000  Uiso   1.00
O84    O     0.89909   0.91708   0.72954   0.00000  Uiso   1.00
C3193  C     0.18417   0.91845   0.48376   0.00000  Uiso   1.00
C3194  C     0.30220   0.98427   0.26991   0.00000  Uiso   1.00
C3195  C     0.31039   0.96108   0.26329   0.00000  Uiso   1.00
C3196  C     0.32727   0.95843   0.24432   0.00000  Uiso   1.00
C3197  C     0.33781   0.97930   0.23388   0.00000  Uiso   1.00
C3198  C     0.33009   0.00246   0.24101   0.00000  Uiso   1.00
C3199  C     0.31123   0.00504   0.25811   0.00000  Uiso   1.00
C3200  C     0.70124   0.02869   0.73931   0.00000  Uiso   1.00
C3201  C     0.68795   0.05047   0.73681   0.00000  Uiso   1.00
C3202  C     0.69991   0.07297   0.73889   0.00000  Uiso   1.00
C3203  C     0.73755   0.05165   0.74660   0.00000  Uiso   1.00
C3204  C     0.72492   0.07377   0.74410   0.00000  Uiso   1.00
C3205  C     0.73750   0.09587   0.74722   0.00000  Uiso   1.00
C3206  C     0.99482   0.01179   0.33384   0.00000  Uiso   1.00
C3207  C     0.98979   0.02377   0.31169   0.00000  Uiso   1.00
C3208  C     0.99510   0.01185   0.28980   0.00000  Uiso   1.00
C3209  C     0.97974   0.04735   0.31042   0.00000  Uiso   1.00
C3210  C     0.97612   0.05862   0.28759   0.00000  Uiso   1.00
C3211  C     0.98226   0.04596   0.26616   0.00000  Uiso   1.00
C3212  C     0.01235   0.94537   0.24231   0.00000  Uiso   1.00
C3213  C     0.98869   0.94548   0.23289   0.00000  Uiso   1.00
C3214  C     0.66901   0.00067   0.42951   0.00000  Uiso   1.00
C3215  C     0.76557   0.95867   0.18945   0.00000  Uiso   1.00
C3216  C     0.74606   0.94311   0.18365   0.00000  Uiso   1.00
C3217  C     0.72244   0.95287   0.18204   0.00000  Uiso   1.00
C3218  C     0.71826   0.97740   0.18795   0.00000  Uiso   1.00
N337   N     0.72572   0.03009   0.74308   0.00000  Uiso   1.00
N338   N     0.99103   0.02308   0.26815   0.00000  Uiso   1.00
N339   N     0.03918   0.31761   0.91300   0.00000  Uiso   1.00
C3219  C     0.08153   0.38212   0.90694   0.00000  Uiso   1.00
C3220  C     0.05617   0.38335   0.90362   0.00000  Uiso   1.00
C3221  C     0.04186   0.36234   0.90561   0.00000  Uiso   1.00
C3222  C     0.05285   0.33976   0.91085   0.00000  Uiso   1.00
C3223  C     0.07811   0.33855   0.91397   0.00000  Uiso   1.00
C3224  C     0.09230   0.35955   0.91233   0.00000  Uiso   1.00
C3225  C     0.31314   0.30444   0.16013   0.00000  Uiso   1.00
C3226  C     0.31020   0.31771   0.13844   0.00000  Uiso   1.00
C3227  C     0.31023   0.30587   0.11603   0.00000  Uiso   1.00
C3228  C     0.31297   0.28060   0.11467   0.00000  Uiso   1.00
C3229  C     0.31514   0.26698   0.13629   0.00000  Uiso   1.00
C3230  C     0.31533   0.27892   0.15890   0.00000  Uiso   1.00
N340   N     0.18571   0.22985   0.09080   0.00000  Uiso   1.00
H2017  H     0.16723   0.91993   0.49571   0.00000  Uiso   1.00
H2018  H     0.28808   0.98638   0.28501   0.00000  Uiso   1.00
H2019  H     0.30334   0.94431   0.27333   0.00000  Uiso   1.00
H2020  H     0.35271   0.97735   0.21954   0.00000  Uiso   1.00
H2021  H     0.33910   0.01936   0.23295   0.00000  Uiso   1.00
H2022  H     0.66751   0.04980   0.73312   0.00000  Uiso   1.00
H2023  H     0.68929   0.09065   0.73633   0.00000  Uiso   1.00
H2024  H     0.72741   0.11393   0.74526   0.00000  Uiso   1.00
H2025  H     0.99052   0.02111   0.35191   0.00000  Uiso   1.00
H2026  H     0.97452   0.05737   0.32786   0.00000  Uiso   1.00
H2027  H     0.96828   0.07784   0.28662   0.00000  Uiso   1.00
H2028  H     0.97266   0.95056   0.24510   0.00000  Uiso   1.00
H2029  H     0.78505   0.95144   0.18922   0.00000  Uiso   1.00
H2030  H     0.70663   0.94085   0.17593   0.00000  Uiso   1.00
H2031  H     0.69906   0.98526   0.18674   0.00000  Uiso   1.00
H2032  H     0.04712   0.40155   0.89928   0.00000  Uiso   1.00
H2033  H     0.02128   0.36352   0.90299   0.00000  Uiso   1.00
H2034  H     0.08723   0.32030   0.91788   0.00000  Uiso   1.00
H2035  H     0.11283   0.35847   0.91537   0.00000  Uiso   1.00
H2036  H     0.30777   0.33834   0.13912   0.00000  Uiso   1.00
H2037  H     0.30799   0.31704   0.09865   0.00000  Uiso   1.00
H2038  H     0.31673   0.24628   0.13541   0.00000  Uiso   1.00
H2039  H     0.31726   0.26794   0.17643   0.00000  Uiso   1.00
F169   F     0.76676   0.00643   0.13826   0.00000  Uiso   1.00
F170   F     0.74367   0.02557   0.10894   0.00000  Uiso   1.00
H2040  H     0.73450   0.90730   0.17086   0.00000  Uiso   1.00
O85    O     0.89909   0.58292   0.77046   0.00000  Uiso   1.00
C3231  C     0.18417   0.41845   0.98376   0.00000  Uiso   1.00
C3232  C     0.30220   0.48427   0.76991   0.00000  Uiso   1.00
C3233  C     0.31039   0.46108   0.76329   0.00000  Uiso   1.00
C3234  C     0.32727   0.45843   0.74432   0.00000  Uiso   1.00
C3235  C     0.33781   0.47930   0.73388   0.00000  Uiso   1.00
C3236  C     0.33009   0.50246   0.74101   0.00000  Uiso   1.00
C3237  C     0.31123   0.50504   0.75811   0.00000  Uiso   1.00
C3238  C     0.70124   0.52869   0.23931   0.00000  Uiso   1.00
C3239  C     0.68795   0.55047   0.23681   0.00000  Uiso   1.00
C3240  C     0.69991   0.57297   0.23889   0.00000  Uiso   1.00
C3241  C     0.73755   0.55165   0.24660   0.00000  Uiso   1.00
C3242  C     0.72492   0.57377   0.24410   0.00000  Uiso   1.00
C3243  C     0.73750   0.59587   0.24722   0.00000  Uiso   1.00
C3244  C     0.99482   0.51179   0.83384   0.00000  Uiso   1.00
C3245  C     0.98979   0.52377   0.81169   0.00000  Uiso   1.00
C3246  C     0.99510   0.51185   0.78980   0.00000  Uiso   1.00
C3247  C     0.97974   0.54735   0.81042   0.00000  Uiso   1.00
C3248  C     0.97612   0.55862   0.78759   0.00000  Uiso   1.00
C3249  C     0.98226   0.54596   0.76616   0.00000  Uiso   1.00
C3250  C     0.01235   0.44537   0.74231   0.00000  Uiso   1.00
C3251  C     0.98869   0.44548   0.73289   0.00000  Uiso   1.00
C3252  C     0.66901   0.50067   0.92951   0.00000  Uiso   1.00
C3253  C     0.76557   0.45867   0.68945   0.00000  Uiso   1.00
C3254  C     0.74606   0.44311   0.68365   0.00000  Uiso   1.00
C3255  C     0.72244   0.45287   0.68204   0.00000  Uiso   1.00
C3256  C     0.71826   0.47740   0.68795   0.00000  Uiso   1.00
N341   N     0.72572   0.53009   0.24308   0.00000  Uiso   1.00
N342   N     0.99103   0.52308   0.76815   0.00000  Uiso   1.00
N343   N     0.03918   0.81761   0.41300   0.00000  Uiso   1.00
C3257  C     0.08153   0.88212   0.40694   0.00000  Uiso   1.00
C3258  C     0.05617   0.88335   0.40362   0.00000  Uiso   1.00
C3259  C     0.04186   0.86234   0.40561   0.00000  Uiso   1.00
C3260  C     0.05285   0.83976   0.41085   0.00000  Uiso   1.00
C3261  C     0.07811   0.83855   0.41397   0.00000  Uiso   1.00
C3262  C     0.09230   0.85955   0.41233   0.00000  Uiso   1.00
C3263  C     0.31314   0.80444   0.66013   0.00000  Uiso   1.00
C3264  C     0.31020   0.81771   0.63844   0.00000  Uiso   1.00
C3265  C     0.31023   0.80587   0.61603   0.00000  Uiso   1.00
C3266  C     0.31297   0.78060   0.61467   0.00000  Uiso   1.00
C3267  C     0.31514   0.76698   0.63629   0.00000  Uiso   1.00
C3268  C     0.31533   0.77892   0.65890   0.00000  Uiso   1.00
N344   N     0.18571   0.72985   0.59080   0.00000  Uiso   1.00
H2041  H     0.16723   0.41993   0.99571   0.00000  Uiso   1.00
H2042  H     0.28808   0.48638   0.78501   0.00000  Uiso   1.00
H2043  H     0.30334   0.44431   0.77333   0.00000  Uiso   1.00
H2044  H     0.35271   0.47735   0.71954   0.00000  Uiso   1.00
H2045  H     0.33910   0.51936   0.73295   0.00000  Uiso   1.00
H2046  H     0.66751   0.54980   0.23312   0.00000  Uiso   1.00
H2047  H     0.68929   0.59065   0.23633   0.00000  Uiso   1.00
H2048  H     0.72741   0.61393   0.24526   0.00000  Uiso   1.00
H2049  H     0.99052   0.52111   0.85191   0.00000  Uiso   1.00
H2050  H     0.97452   0.55737   0.82786   0.00000  Uiso   1.00
H2051  H     0.96828   0.57784   0.78662   0.00000  Uiso   1.00
H2052  H     0.97266   0.45056   0.74510   0.00000  Uiso   1.00
H2053  H     0.78505   0.45144   0.68922   0.00000  Uiso   1.00
H2054  H     0.70663   0.44085   0.67593   0.00000  Uiso   1.00
H2055  H     0.69906   0.48526   0.68674   0.00000  Uiso   1.00
H2056  H     0.04712   0.90155   0.39928   0.00000  Uiso   1.00
H2057  H     0.02128   0.86352   0.40299   0.00000  Uiso   1.00
H2058  H     0.08723   0.82030   0.41788   0.00000  Uiso   1.00
H2059  H     0.11283   0.85847   0.41537   0.00000  Uiso   1.00
H2060  H     0.30777   0.83834   0.63912   0.00000  Uiso   1.00
H2061  H     0.30799   0.81704   0.59865   0.00000  Uiso   1.00
H2062  H     0.31673   0.74628   0.63541   0.00000  Uiso   1.00
H2063  H     0.31726   0.76794   0.67643   0.00000  Uiso   1.00
F171   F     0.76676   0.50643   0.63826   0.00000  Uiso   1.00
F172   F     0.74367   0.52557   0.60894   0.00000  Uiso   1.00
H2064  H     0.73450   0.40730   0.67086   0.00000  Uiso   1.00
O86    O     0.89909   0.08292   0.27046   0.00000  Uiso   1.00
C3269  C     0.68417   0.91845   0.98376   0.00000  Uiso   1.00
C3270  C     0.80220   0.98427   0.76991   0.00000  Uiso   1.00
C3271  C     0.81039   0.96108   0.76329   0.00000  Uiso   1.00
C3272  C     0.82727   0.95843   0.74432   0.00000  Uiso   1.00
C3273  C     0.83781   0.97930   0.73388   0.00000  Uiso   1.00
C3274  C     0.83009   0.00246   0.74101   0.00000  Uiso   1.00
C3275  C     0.81123   0.00504   0.75811   0.00000  Uiso   1.00
C3276  C     0.20124   0.02869   0.23931   0.00000  Uiso   1.00
C3277  C     0.18795   0.05047   0.23681   0.00000  Uiso   1.00
C3278  C     0.19991   0.07297   0.23889   0.00000  Uiso   1.00
C3279  C     0.23755   0.05165   0.24660   0.00000  Uiso   1.00
C3280  C     0.22492   0.07377   0.24410   0.00000  Uiso   1.00
C3281  C     0.23750   0.09587   0.24722   0.00000  Uiso   1.00
C3282  C     0.49482   0.01179   0.83384   0.00000  Uiso   1.00
C3283  C     0.48979   0.02377   0.81169   0.00000  Uiso   1.00
C3284  C     0.49510   0.01185   0.78980   0.00000  Uiso   1.00
C3285  C     0.47974   0.04735   0.81042   0.00000  Uiso   1.00
C3286  C     0.47612   0.05862   0.78759   0.00000  Uiso   1.00
C3287  C     0.48226   0.04596   0.76616   0.00000  Uiso   1.00
C3288  C     0.51235   0.94537   0.74231   0.00000  Uiso   1.00
C3289  C     0.48869   0.94548   0.73289   0.00000  Uiso   1.00
C3290  C     0.16901   0.00067   0.92951   0.00000  Uiso   1.00
C3291  C     0.26557   0.95867   0.68945   0.00000  Uiso   1.00
C3292  C     0.24606   0.94311   0.68365   0.00000  Uiso   1.00
C3293  C     0.22244   0.95287   0.68204   0.00000  Uiso   1.00
C3294  C     0.21826   0.97740   0.68795   0.00000  Uiso   1.00
N345   N     0.22572   0.03009   0.24308   0.00000  Uiso   1.00
N346   N     0.49103   0.02308   0.76815   0.00000  Uiso   1.00
N347   N     0.53918   0.31761   0.41300   0.00000  Uiso   1.00
C3295  C     0.58153   0.38212   0.40694   0.00000  Uiso   1.00
C3296  C     0.55617   0.38335   0.40362   0.00000  Uiso   1.00
C3297  C     0.54186   0.36234   0.40561   0.00000  Uiso   1.00
C3298  C     0.55285   0.33976   0.41085   0.00000  Uiso   1.00
C3299  C     0.57811   0.33855   0.41397   0.00000  Uiso   1.00
C3300  C     0.59230   0.35955   0.41233   0.00000  Uiso   1.00
C3301  C     0.81314   0.30444   0.66013   0.00000  Uiso   1.00
C3302  C     0.81020   0.31771   0.63844   0.00000  Uiso   1.00
C3303  C     0.81023   0.30587   0.61603   0.00000  Uiso   1.00
C3304  C     0.81297   0.28060   0.61467   0.00000  Uiso   1.00
C3305  C     0.81514   0.26698   0.63629   0.00000  Uiso   1.00
C3306  C     0.81533   0.27892   0.65890   0.00000  Uiso   1.00
N348   N     0.68571   0.22985   0.59080   0.00000  Uiso   1.00
H2065  H     0.66723   0.91993   0.99571   0.00000  Uiso   1.00
H2066  H     0.78808   0.98638   0.78501   0.00000  Uiso   1.00
H2067  H     0.80334   0.94431   0.77333   0.00000  Uiso   1.00
H2068  H     0.85271   0.97735   0.71954   0.00000  Uiso   1.00
H2069  H     0.83910   0.01936   0.73295   0.00000  Uiso   1.00
H2070  H     0.16751   0.04980   0.23312   0.00000  Uiso   1.00
H2071  H     0.18929   0.09065   0.23633   0.00000  Uiso   1.00
H2072  H     0.22741   0.11393   0.24526   0.00000  Uiso   1.00
H2073  H     0.49052   0.02111   0.85191   0.00000  Uiso   1.00
H2074  H     0.47452   0.05737   0.82786   0.00000  Uiso   1.00
H2075  H     0.46828   0.07784   0.78662   0.00000  Uiso   1.00
H2076  H     0.47266   0.95056   0.74510   0.00000  Uiso   1.00
H2077  H     0.28505   0.95144   0.68922   0.00000  Uiso   1.00
H2078  H     0.20663   0.94085   0.67593   0.00000  Uiso   1.00
H2079  H     0.19906   0.98526   0.68674   0.00000  Uiso   1.00
H2080  H     0.54712   0.40155   0.39928   0.00000  Uiso   1.00
H2081  H     0.52128   0.36352   0.40299   0.00000  Uiso   1.00
H2082  H     0.58723   0.32030   0.41788   0.00000  Uiso   1.00
H2083  H     0.61283   0.35847   0.41537   0.00000  Uiso   1.00
H2084  H     0.80777   0.33834   0.63912   0.00000  Uiso   1.00
H2085  H     0.80799   0.31704   0.59865   0.00000  Uiso   1.00
H2086  H     0.81673   0.24628   0.63541   0.00000  Uiso   1.00
H2087  H     0.81726   0.26794   0.67643   0.00000  Uiso   1.00
F173   F     0.26676   0.00643   0.63826   0.00000  Uiso   1.00
F174   F     0.24367   0.02557   0.60894   0.00000  Uiso   1.00
H2088  H     0.23450   0.90730   0.67086   0.00000  Uiso   1.00
O87    O     0.39909   0.58292   0.27046   0.00000  Uiso   1.00
C3307  C     0.68417   0.41845   0.48376   0.00000  Uiso   1.00
C3308  C     0.80220   0.48427   0.26991   0.00000  Uiso   1.00
C3309  C     0.81039   0.46108   0.26329   0.00000  Uiso   1.00
C3310  C     0.82727   0.45843   0.24432   0.00000  Uiso   1.00
C3311  C     0.83781   0.47930   0.23388   0.00000  Uiso   1.00
C3312  C     0.83009   0.50246   0.24101   0.00000  Uiso   1.00
C3313  C     0.81123   0.50504   0.25811   0.00000  Uiso   1.00
C3314  C     0.20124   0.52869   0.73931   0.00000  Uiso   1.00
C3315  C     0.18795   0.55047   0.73681   0.00000  Uiso   1.00
C3316  C     0.19991   0.57297   0.73889   0.00000  Uiso   1.00
C3317  C     0.23755   0.55165   0.74660   0.00000  Uiso   1.00
C3318  C     0.22492   0.57377   0.74410   0.00000  Uiso   1.00
C3319  C     0.23750   0.59587   0.74722   0.00000  Uiso   1.00
C3320  C     0.49482   0.51179   0.33384   0.00000  Uiso   1.00
C3321  C     0.48979   0.52377   0.31169   0.00000  Uiso   1.00
C3322  C     0.49510   0.51185   0.28980   0.00000  Uiso   1.00
C3323  C     0.47974   0.54735   0.31042   0.00000  Uiso   1.00
C3324  C     0.47612   0.55862   0.28759   0.00000  Uiso   1.00
C3325  C     0.48226   0.54596   0.26616   0.00000  Uiso   1.00
C3326  C     0.51235   0.44537   0.24231   0.00000  Uiso   1.00
C3327  C     0.48869   0.44548   0.23289   0.00000  Uiso   1.00
C3328  C     0.16901   0.50067   0.42951   0.00000  Uiso   1.00
C3329  C     0.26557   0.45867   0.18945   0.00000  Uiso   1.00
C3330  C     0.24606   0.44311   0.18365   0.00000  Uiso   1.00
C3331  C     0.22244   0.45287   0.18204   0.00000  Uiso   1.00
C3332  C     0.21826   0.47740   0.18795   0.00000  Uiso   1.00
N349   N     0.22572   0.53009   0.74308   0.00000  Uiso   1.00
N350   N     0.49103   0.52308   0.26815   0.00000  Uiso   1.00
N351   N     0.53918   0.81761   0.91300   0.00000  Uiso   1.00
C3333  C     0.58153   0.88212   0.90694   0.00000  Uiso   1.00
C3334  C     0.55617   0.88335   0.90362   0.00000  Uiso   1.00
C3335  C     0.54186   0.86234   0.90561   0.00000  Uiso   1.00
C3336  C     0.55285   0.83976   0.91085   0.00000  Uiso   1.00
C3337  C     0.57811   0.83855   0.91397   0.00000  Uiso   1.00
C3338  C     0.59230   0.85955   0.91233   0.00000  Uiso   1.00
C3339  C     0.81314   0.80444   0.16013   0.00000  Uiso   1.00
C3340  C     0.81020   0.81771   0.13844   0.00000  Uiso   1.00
C3341  C     0.81023   0.80587   0.11603   0.00000  Uiso   1.00
C3342  C     0.81297   0.78060   0.11467   0.00000  Uiso   1.00
C3343  C     0.81514   0.76698   0.13629   0.00000  Uiso   1.00
C3344  C     0.81533   0.77892   0.15890   0.00000  Uiso   1.00
N352   N     0.68571   0.72985   0.09080   0.00000  Uiso   1.00
H2089  H     0.66723   0.41993   0.49571   0.00000  Uiso   1.00
H2090  H     0.78808   0.48638   0.28501   0.00000  Uiso   1.00
H2091  H     0.80334   0.44431   0.27333   0.00000  Uiso   1.00
H2092  H     0.85271   0.47735   0.21954   0.00000  Uiso   1.00
H2093  H     0.83910   0.51936   0.23295   0.00000  Uiso   1.00
H2094  H     0.16751   0.54980   0.73312   0.00000  Uiso   1.00
H2095  H     0.18929   0.59065   0.73633   0.00000  Uiso   1.00
H2096  H     0.22741   0.61393   0.74526   0.00000  Uiso   1.00
H2097  H     0.49052   0.52111   0.35191   0.00000  Uiso   1.00
H2098  H     0.47452   0.55737   0.32786   0.00000  Uiso   1.00
H2099  H     0.46828   0.57784   0.28662   0.00000  Uiso   1.00
H2100  H     0.47266   0.45056   0.24510   0.00000  Uiso   1.00
H2101  H     0.28505   0.45144   0.18922   0.00000  Uiso   1.00
H2102  H     0.20663   0.44085   0.17593   0.00000  Uiso   1.00
H2103  H     0.19906   0.48526   0.18674   0.00000  Uiso   1.00
H2104  H     0.54712   0.90155   0.89928   0.00000  Uiso   1.00
H2105  H     0.52128   0.86352   0.90299   0.00000  Uiso   1.00
H2106  H     0.58723   0.82030   0.91788   0.00000  Uiso   1.00
H2107  H     0.61283   0.85847   0.91537   0.00000  Uiso   1.00
H2108  H     0.80777   0.83834   0.13912   0.00000  Uiso   1.00
H2109  H     0.80799   0.81704   0.09865   0.00000  Uiso   1.00
H2110  H     0.81673   0.74628   0.13541   0.00000  Uiso   1.00
H2111  H     0.81726   0.76794   0.17643   0.00000  Uiso   1.00
F175   F     0.26676   0.50643   0.13826   0.00000  Uiso   1.00
F176   F     0.24367   0.52557   0.10894   0.00000  Uiso   1.00
H2112  H     0.23450   0.40730   0.17086   0.00000  Uiso   1.00
O88    O     0.39909   0.08292   0.77046   0.00000  Uiso   1.00
C3345  C     0.81583   0.58155   0.98376   0.00000  Uiso   1.00
C3346  C     0.69780   0.51573   0.76991   0.00000  Uiso   1.00
C3347  C     0.68961   0.53892   0.76329   0.00000  Uiso   1.00
C3348  C     0.67273   0.54157   0.74432   0.00000  Uiso   1.00
C3349  C     0.66219   0.52070   0.73388   0.00000  Uiso   1.00
C3350  C     0.66991   0.49754   0.74101   0.00000  Uiso   1.00
C3351  C     0.68877   0.49496   0.75811   0.00000  Uiso   1.00
C3352  C     0.29876   0.47131   0.23931   0.00000  Uiso   1.00
C3353  C     0.31205   0.44953   0.23681   0.00000  Uiso   1.00
C3354  C     0.30009   0.42703   0.23889   0.00000  Uiso   1.00
C3355  C     0.26245   0.44835   0.24660   0.00000  Uiso   1.00
C3356  C     0.27508   0.42623   0.24410   0.00000  Uiso   1.00
C3357  C     0.26250   0.40413   0.24722   0.00000  Uiso   1.00
C3358  C     0.00518   0.48821   0.83384   0.00000  Uiso   1.00
C3359  C     0.01021   0.47623   0.81169   0.00000  Uiso   1.00
C3360  C     0.00490   0.48815   0.78980   0.00000  Uiso   1.00
C3361  C     0.02026   0.45265   0.81042   0.00000  Uiso   1.00
C3362  C     0.02388   0.44138   0.78759   0.00000  Uiso   1.00
C3363  C     0.01774   0.45404   0.76616   0.00000  Uiso   1.00
C3364  C     0.98765   0.55463   0.74231   0.00000  Uiso   1.00
C3365  C     0.01131   0.55452   0.73289   0.00000  Uiso   1.00
C3366  C     0.33099   0.49933   0.92951   0.00000  Uiso   1.00
C3367  C     0.23443   0.54133   0.68945   0.00000  Uiso   1.00
C3368  C     0.25394   0.55689   0.68365   0.00000  Uiso   1.00
C3369  C     0.27756   0.54713   0.68204   0.00000  Uiso   1.00
C3370  C     0.28174   0.52260   0.68795   0.00000  Uiso   1.00
N353   N     0.27428   0.46991   0.24308   0.00000  Uiso   1.00
N354   N     0.00897   0.47692   0.76815   0.00000  Uiso   1.00
N355   N     0.96082   0.18239   0.41300   0.00000  Uiso   1.00
C3371  C     0.91847   0.11788   0.40694   0.00000  Uiso   1.00
C3372  C     0.94383   0.11665   0.40362   0.00000  Uiso   1.00
C3373  C     0.95814   0.13766   0.40561   0.00000  Uiso   1.00
C3374  C     0.94715   0.16024   0.41085   0.00000  Uiso   1.00
C3375  C     0.92189   0.16145   0.41397   0.00000  Uiso   1.00
C3376  C     0.90770   0.14045   0.41233   0.00000  Uiso   1.00
C3377  C     0.68686   0.19556   0.66013   0.00000  Uiso   1.00
C3378  C     0.68980   0.18229   0.63844   0.00000  Uiso   1.00
C3379  C     0.68977   0.19413   0.61603   0.00000  Uiso   1.00
C3380  C     0.68703   0.21940   0.61467   0.00000  Uiso   1.00
C3381  C     0.68486   0.23302   0.63629   0.00000  Uiso   1.00
C3382  C     0.68467   0.22108   0.65890   0.00000  Uiso   1.00
N356   N     0.81429   0.27015   0.59080   0.00000  Uiso   1.00
H2113  H     0.83277   0.58007   0.99571   0.00000  Uiso   1.00
H2114  H     0.71192   0.51362   0.78501   0.00000  Uiso   1.00
H2115  H     0.69666   0.55569   0.77333   0.00000  Uiso   1.00
H2116  H     0.64729   0.52265   0.71954   0.00000  Uiso   1.00
H2117  H     0.66090   0.48064   0.73295   0.00000  Uiso   1.00
H2118  H     0.33249   0.45020   0.23312   0.00000  Uiso   1.00
H2119  H     0.31071   0.40935   0.23633   0.00000  Uiso   1.00
H2120  H     0.27259   0.38607   0.24526   0.00000  Uiso   1.00
H2121  H     0.00948   0.47889   0.85191   0.00000  Uiso   1.00
H2122  H     0.02548   0.44263   0.82786   0.00000  Uiso   1.00
H2123  H     0.03172   0.42216   0.78662   0.00000  Uiso   1.00
H2124  H     0.02734   0.54944   0.74510   0.00000  Uiso   1.00
H2125  H     0.21495   0.54856   0.68922   0.00000  Uiso   1.00
H2126  H     0.29337   0.55915   0.67593   0.00000  Uiso   1.00
H2127  H     0.30094   0.51474   0.68674   0.00000  Uiso   1.00
H2128  H     0.95288   0.09845   0.39928   0.00000  Uiso   1.00
H2129  H     0.97872   0.13648   0.40299   0.00000  Uiso   1.00
H2130  H     0.91277   0.17970   0.41788   0.00000  Uiso   1.00
H2131  H     0.88717   0.14153   0.41537   0.00000  Uiso   1.00
H2132  H     0.69223   0.16166   0.63912   0.00000  Uiso   1.00
H2133  H     0.69201   0.18296   0.59865   0.00000  Uiso   1.00
H2134  H     0.68327   0.25372   0.63541   0.00000  Uiso   1.00
H2135  H     0.68274   0.23206   0.67643   0.00000  Uiso   1.00
F177   F     0.23324   0.49357   0.63826   0.00000  Uiso   1.00
F178   F     0.25633   0.47443   0.60894   0.00000  Uiso   1.00
H2136  H     0.26550   0.59270   0.67086   0.00000  Uiso   1.00
O89    O     0.10091   0.91708   0.27046   0.00000  Uiso   1.00
C3383  C     0.81583   0.08155   0.48376   0.00000  Uiso   1.00
C3384  C     0.69780   0.01573   0.26991   0.00000  Uiso   1.00
C3385  C     0.68961   0.03892   0.26329   0.00000  Uiso   1.00
C3386  C     0.67273   0.04157   0.24432   0.00000  Uiso   1.00
C3387  C     0.66219   0.02070   0.23388   0.00000  Uiso   1.00
C3388  C     0.66991   0.99754   0.24101   0.00000  Uiso   1.00
C3389  C     0.68877   0.99496   0.25811   0.00000  Uiso   1.00
C3390  C     0.29876   0.97131   0.73931   0.00000  Uiso   1.00
C3391  C     0.31205   0.94953   0.73681   0.00000  Uiso   1.00
C3392  C     0.30009   0.92703   0.73889   0.00000  Uiso   1.00
C3393  C     0.26245   0.94835   0.74660   0.00000  Uiso   1.00
C3394  C     0.27508   0.92623   0.74410   0.00000  Uiso   1.00
C3395  C     0.26250   0.90413   0.74722   0.00000  Uiso   1.00
C3396  C     0.00518   0.98821   0.33384   0.00000  Uiso   1.00
C3397  C     0.01021   0.97623   0.31169   0.00000  Uiso   1.00
C3398  C     0.00490   0.98815   0.28980   0.00000  Uiso   1.00
C3399  C     0.02026   0.95265   0.31042   0.00000  Uiso   1.00
C3400  C     0.02388   0.94138   0.28759   0.00000  Uiso   1.00
C3401  C     0.01774   0.95404   0.26616   0.00000  Uiso   1.00
C3402  C     0.98765   0.05463   0.24231   0.00000  Uiso   1.00
C3403  C     0.01131   0.05452   0.23289   0.00000  Uiso   1.00
C3404  C     0.33099   0.99933   0.42951   0.00000  Uiso   1.00
C3405  C     0.23443   0.04133   0.18945   0.00000  Uiso   1.00
C3406  C     0.25394   0.05689   0.18365   0.00000  Uiso   1.00
C3407  C     0.27756   0.04713   0.18204   0.00000  Uiso   1.00
C3408  C     0.28174   0.02260   0.18795   0.00000  Uiso   1.00
N357   N     0.27428   0.96991   0.74308   0.00000  Uiso   1.00
N358   N     0.00897   0.97692   0.26815   0.00000  Uiso   1.00
N359   N     0.96082   0.68239   0.91300   0.00000  Uiso   1.00
C3409  C     0.91847   0.61788   0.90694   0.00000  Uiso   1.00
C3410  C     0.94383   0.61665   0.90362   0.00000  Uiso   1.00
C3411  C     0.95814   0.63766   0.90561   0.00000  Uiso   1.00
C3412  C     0.94715   0.66024   0.91085   0.00000  Uiso   1.00
C3413  C     0.92189   0.66145   0.91397   0.00000  Uiso   1.00
C3414  C     0.90770   0.64045   0.91233   0.00000  Uiso   1.00
C3415  C     0.68686   0.69556   0.16013   0.00000  Uiso   1.00
C3416  C     0.68980   0.68229   0.13844   0.00000  Uiso   1.00
C3417  C     0.68977   0.69413   0.11603   0.00000  Uiso   1.00
C3418  C     0.68703   0.71940   0.11467   0.00000  Uiso   1.00
C3419  C     0.68486   0.73302   0.13629   0.00000  Uiso   1.00
C3420  C     0.68467   0.72108   0.15890   0.00000  Uiso   1.00
N360   N     0.81429   0.77015   0.09080   0.00000  Uiso   1.00
H2137  H     0.83277   0.08007   0.49571   0.00000  Uiso   1.00
H2138  H     0.71192   0.01362   0.28501   0.00000  Uiso   1.00
H2139  H     0.69666   0.05569   0.27333   0.00000  Uiso   1.00
H2140  H     0.64729   0.02265   0.21954   0.00000  Uiso   1.00
H2141  H     0.66090   0.98064   0.23295   0.00000  Uiso   1.00
H2142  H     0.33249   0.95020   0.73312   0.00000  Uiso   1.00
H2143  H     0.31071   0.90935   0.73633   0.00000  Uiso   1.00
H2144  H     0.27259   0.88607   0.74526   0.00000  Uiso   1.00
H2145  H     0.00948   0.97889   0.35191   0.00000  Uiso   1.00
H2146  H     0.02548   0.94263   0.32786   0.00000  Uiso   1.00
H2147  H     0.03172   0.92216   0.28662   0.00000  Uiso   1.00
H2148  H     0.02734   0.04944   0.24510   0.00000  Uiso   1.00
H2149  H     0.21495   0.04856   0.18922   0.00000  Uiso   1.00
H2150  H     0.29337   0.05915   0.17593   0.00000  Uiso   1.00
H2151  H     0.30094   0.01474   0.18674   0.00000  Uiso   1.00
H2152  H     0.95288   0.59845   0.89928   0.00000  Uiso   1.00
H2153  H     0.97872   0.63648   0.90299   0.00000  Uiso   1.00
H2154  H     0.91277   0.67970   0.91788   0.00000  Uiso   1.00
H2155  H     0.88717   0.64153   0.91537   0.00000  Uiso   1.00
H2156  H     0.69223   0.66166   0.13912   0.00000  Uiso   1.00
H2157  H     0.69201   0.68296   0.09865   0.00000  Uiso   1.00
H2158  H     0.68327   0.75372   0.13541   0.00000  Uiso   1.00
H2159  H     0.68274   0.73206   0.17643   0.00000  Uiso   1.00
F179   F     0.23324   0.99357   0.13826   0.00000  Uiso   1.00
F180   F     0.25633   0.97443   0.10894   0.00000  Uiso   1.00
H2160  H     0.26550   0.09270   0.17086   0.00000  Uiso   1.00
O90    O     0.10091   0.41708   0.77046   0.00000  Uiso   1.00
C3421  C     0.31583   0.58155   0.48376   0.00000  Uiso   1.00
C3422  C     0.19780   0.51573   0.26991   0.00000  Uiso   1.00
C3423  C     0.18961   0.53892   0.26329   0.00000  Uiso   1.00
C3424  C     0.17273   0.54157   0.24432   0.00000  Uiso   1.00
C3425  C     0.16219   0.52070   0.23388   0.00000  Uiso   1.00
C3426  C     0.16991   0.49754   0.24101   0.00000  Uiso   1.00
C3427  C     0.18877   0.49496   0.25811   0.00000  Uiso   1.00
C3428  C     0.79876   0.47131   0.73931   0.00000  Uiso   1.00
C3429  C     0.81205   0.44953   0.73681   0.00000  Uiso   1.00
C3430  C     0.80009   0.42703   0.73889   0.00000  Uiso   1.00
C3431  C     0.76245   0.44835   0.74660   0.00000  Uiso   1.00
C3432  C     0.77508   0.42623   0.74410   0.00000  Uiso   1.00
C3433  C     0.76250   0.40413   0.74722   0.00000  Uiso   1.00
C3434  C     0.50518   0.48821   0.33384   0.00000  Uiso   1.00
C3435  C     0.51021   0.47623   0.31169   0.00000  Uiso   1.00
C3436  C     0.50490   0.48815   0.28980   0.00000  Uiso   1.00
C3437  C     0.52026   0.45265   0.31042   0.00000  Uiso   1.00
C3438  C     0.52388   0.44138   0.28759   0.00000  Uiso   1.00
C3439  C     0.51774   0.45404   0.26616   0.00000  Uiso   1.00
C3440  C     0.48765   0.55463   0.24231   0.00000  Uiso   1.00
C3441  C     0.51131   0.55452   0.23289   0.00000  Uiso   1.00
C3442  C     0.83099   0.49933   0.42951   0.00000  Uiso   1.00
C3443  C     0.73443   0.54133   0.18945   0.00000  Uiso   1.00
C3444  C     0.75394   0.55689   0.18365   0.00000  Uiso   1.00
C3445  C     0.77756   0.54713   0.18204   0.00000  Uiso   1.00
C3446  C     0.78174   0.52260   0.18795   0.00000  Uiso   1.00
N361   N     0.77428   0.46991   0.74308   0.00000  Uiso   1.00
N362   N     0.50897   0.47692   0.26815   0.00000  Uiso   1.00
N363   N     0.46082   0.18239   0.91300   0.00000  Uiso   1.00
C3447  C     0.41847   0.11788   0.90694   0.00000  Uiso   1.00
C3448  C     0.44383   0.11665   0.90362   0.00000  Uiso   1.00
C3449  C     0.45814   0.13766   0.90561   0.00000  Uiso   1.00
C3450  C     0.44715   0.16024   0.91085   0.00000  Uiso   1.00
C3451  C     0.42189   0.16145   0.91397   0.00000  Uiso   1.00
C3452  C     0.40770   0.14045   0.91233   0.00000  Uiso   1.00
C3453  C     0.18686   0.19556   0.16013   0.00000  Uiso   1.00
C3454  C     0.18980   0.18229   0.13844   0.00000  Uiso   1.00
C3455  C     0.18977   0.19413   0.11603   0.00000  Uiso   1.00
C3456  C     0.18703   0.21940   0.11467   0.00000  Uiso   1.00
C3457  C     0.18486   0.23302   0.13629   0.00000  Uiso   1.00
C3458  C     0.18467   0.22108   0.15890   0.00000  Uiso   1.00
N364   N     0.31429   0.27015   0.09080   0.00000  Uiso   1.00
H2161  H     0.33277   0.58007   0.49571   0.00000  Uiso   1.00
H2162  H     0.21192   0.51362   0.28501   0.00000  Uiso   1.00
H2163  H     0.19666   0.55569   0.27333   0.00000  Uiso   1.00
H2164  H     0.14729   0.52265   0.21954   0.00000  Uiso   1.00
H2165  H     0.16090   0.48064   0.23295   0.00000  Uiso   1.00
H2166  H     0.83249   0.45020   0.73312   0.00000  Uiso   1.00
H2167  H     0.81071   0.40935   0.73633   0.00000  Uiso   1.00
H2168  H     0.77259   0.38607   0.74526   0.00000  Uiso   1.00
H2169  H     0.50948   0.47889   0.35191   0.00000  Uiso   1.00
H2170  H     0.52548   0.44263   0.32786   0.00000  Uiso   1.00
H2171  H     0.53172   0.42216   0.28662   0.00000  Uiso   1.00
H2172  H     0.52734   0.54944   0.24510   0.00000  Uiso   1.00
H2173  H     0.71495   0.54856   0.18922   0.00000  Uiso   1.00
H2174  H     0.79337   0.55915   0.17593   0.00000  Uiso   1.00
H2175  H     0.80094   0.51474   0.18674   0.00000  Uiso   1.00
H2176  H     0.45288   0.09845   0.89928   0.00000  Uiso   1.00
H2177  H     0.47872   0.13648   0.90299   0.00000  Uiso   1.00
H2178  H     0.41277   0.17970   0.91788   0.00000  Uiso   1.00
H2179  H     0.38717   0.14153   0.91537   0.00000  Uiso   1.00
H2180  H     0.19223   0.16166   0.13912   0.00000  Uiso   1.00
H2181  H     0.19201   0.18296   0.09865   0.00000  Uiso   1.00
H2182  H     0.18327   0.25372   0.13541   0.00000  Uiso   1.00
H2183  H     0.18274   0.23206   0.17643   0.00000  Uiso   1.00
F181   F     0.73324   0.49357   0.13826   0.00000  Uiso   1.00
F182   F     0.75633   0.47443   0.10894   0.00000  Uiso   1.00
H2184  H     0.76550   0.59270   0.17086   0.00000  Uiso   1.00
O91    O     0.60091   0.91708   0.77046   0.00000  Uiso   1.00
C3459  C     0.31583   0.08155   0.98376   0.00000  Uiso   1.00
C3460  C     0.19780   0.01573   0.76991   0.00000  Uiso   1.00
C3461  C     0.18961   0.03892   0.76329   0.00000  Uiso   1.00
C3462  C     0.17273   0.04157   0.74432   0.00000  Uiso   1.00
C3463  C     0.16219   0.02070   0.73388   0.00000  Uiso   1.00
C3464  C     0.16991   0.99754   0.74101   0.00000  Uiso   1.00
C3465  C     0.18877   0.99496   0.75811   0.00000  Uiso   1.00
C3466  C     0.79876   0.97131   0.23931   0.00000  Uiso   1.00
C3467  C     0.81205   0.94953   0.23681   0.00000  Uiso   1.00
C3468  C     0.80009   0.92703   0.23889   0.00000  Uiso   1.00
C3469  C     0.76245   0.94835   0.24660   0.00000  Uiso   1.00
C3470  C     0.77508   0.92623   0.24410   0.00000  Uiso   1.00
C3471  C     0.76250   0.90413   0.24722   0.00000  Uiso   1.00
C3472  C     0.50518   0.98821   0.83384   0.00000  Uiso   1.00
C3473  C     0.51021   0.97623   0.81169   0.00000  Uiso   1.00
C3474  C     0.50490   0.98815   0.78980   0.00000  Uiso   1.00
C3475  C     0.52026   0.95265   0.81042   0.00000  Uiso   1.00
C3476  C     0.52388   0.94138   0.78759   0.00000  Uiso   1.00
C3477  C     0.51774   0.95404   0.76616   0.00000  Uiso   1.00
C3478  C     0.48765   0.05463   0.74231   0.00000  Uiso   1.00
C3479  C     0.51131   0.05452   0.73289   0.00000  Uiso   1.00
C3480  C     0.83099   0.99933   0.92951   0.00000  Uiso   1.00
C3481  C     0.73443   0.04133   0.68945   0.00000  Uiso   1.00
C3482  C     0.75394   0.05689   0.68365   0.00000  Uiso   1.00
C3483  C     0.77756   0.04713   0.68204   0.00000  Uiso   1.00
C3484  C     0.78174   0.02260   0.68795   0.00000  Uiso   1.00
N365   N     0.77428   0.96991   0.24308   0.00000  Uiso   1.00
N366   N     0.50897   0.97692   0.76815   0.00000  Uiso   1.00
N367   N     0.46082   0.68239   0.41300   0.00000  Uiso   1.00
C3485  C     0.41847   0.61788   0.40694   0.00000  Uiso   1.00
C3486  C     0.44383   0.61665   0.40362   0.00000  Uiso   1.00
C3487  C     0.45814   0.63766   0.40561   0.00000  Uiso   1.00
C3488  C     0.44715   0.66024   0.41085   0.00000  Uiso   1.00
C3489  C     0.42189   0.66145   0.41397   0.00000  Uiso   1.00
C3490  C     0.40770   0.64045   0.41233   0.00000  Uiso   1.00
C3491  C     0.18686   0.69556   0.66013   0.00000  Uiso   1.00
C3492  C     0.18980   0.68229   0.63844   0.00000  Uiso   1.00
C3493  C     0.18977   0.69413   0.61603   0.00000  Uiso   1.00
C3494  C     0.18703   0.71940   0.61467   0.00000  Uiso   1.00
C3495  C     0.18486   0.73302   0.63629   0.00000  Uiso   1.00
C3496  C     0.18467   0.72108   0.65890   0.00000  Uiso   1.00
N368   N     0.31429   0.77015   0.59080   0.00000  Uiso   1.00
H2185  H     0.33277   0.08007   0.99571   0.00000  Uiso   1.00
H2186  H     0.21192   0.01362   0.78501   0.00000  Uiso   1.00
H2187  H     0.19666   0.05569   0.77333   0.00000  Uiso   1.00
H2188  H     0.14729   0.02265   0.71954   0.00000  Uiso   1.00
H2189  H     0.16090   0.98064   0.73295   0.00000  Uiso   1.00
H2190  H     0.83249   0.95020   0.23312   0.00000  Uiso   1.00
H2191  H     0.81071   0.90935   0.23633   0.00000  Uiso   1.00
H2192  H     0.77259   0.88607   0.24526   0.00000  Uiso   1.00
H2193  H     0.50948   0.97889   0.85191   0.00000  Uiso   1.00
H2194  H     0.52548   0.94263   0.82786   0.00000  Uiso   1.00
H2195  H     0.53172   0.92216   0.78662   0.00000  Uiso   1.00
H2196  H     0.52734   0.04944   0.74510   0.00000  Uiso   1.00
H2197  H     0.71495   0.04856   0.68922   0.00000  Uiso   1.00
H2198  H     0.79337   0.05915   0.67593   0.00000  Uiso   1.00
H2199  H     0.80094   0.01474   0.68674   0.00000  Uiso   1.00
H2200  H     0.45288   0.59845   0.39928   0.00000  Uiso   1.00
H2201  H     0.47872   0.63648   0.40299   0.00000  Uiso   1.00
H2202  H     0.41277   0.67970   0.41788   0.00000  Uiso   1.00
H2203  H     0.38717   0.64153   0.41537   0.00000  Uiso   1.00
H2204  H     0.19223   0.66166   0.63912   0.00000  Uiso   1.00
H2205  H     0.19201   0.68296   0.59865   0.00000  Uiso   1.00
H2206  H     0.18327   0.75372   0.63541   0.00000  Uiso   1.00
H2207  H     0.18274   0.73206   0.67643   0.00000  Uiso   1.00
F183   F     0.73324   0.99357   0.63826   0.00000  Uiso   1.00
F184   F     0.75633   0.97443   0.60894   0.00000  Uiso   1.00
H2208  H     0.76550   0.09270   0.67086   0.00000  Uiso   1.00
O92    O     0.60091   0.41708   0.27046   0.00000  Uiso   1.00
C3497  C     0.31583   0.41845   0.51624   0.00000  Uiso   1.00
C3498  C     0.19780   0.48427   0.73009   0.00000  Uiso   1.00
C3499  C     0.18961   0.46108   0.73671   0.00000  Uiso   1.00
C3500  C     0.17273   0.45843   0.75568   0.00000  Uiso   1.00
C3501  C     0.16219   0.47930   0.76612   0.00000  Uiso   1.00
C3502  C     0.16991   0.50246   0.75899   0.00000  Uiso   1.00
C3503  C     0.18877   0.50504   0.74189   0.00000  Uiso   1.00
C3504  C     0.79876   0.52869   0.26069   0.00000  Uiso   1.00
C3505  C     0.81205   0.55047   0.26319   0.00000  Uiso   1.00
C3506  C     0.80009   0.57297   0.26111   0.00000  Uiso   1.00
C3507  C     0.76245   0.55165   0.25340   0.00000  Uiso   1.00
C3508  C     0.77508   0.57377   0.25590   0.00000  Uiso   1.00
C3509  C     0.76250   0.59587   0.25278   0.00000  Uiso   1.00
C3510  C     0.50518   0.51179   0.66616   0.00000  Uiso   1.00
C3511  C     0.51021   0.52377   0.68831   0.00000  Uiso   1.00
C3512  C     0.50490   0.51185   0.71020   0.00000  Uiso   1.00
C3513  C     0.52026   0.54735   0.68958   0.00000  Uiso   1.00
C3514  C     0.52388   0.55862   0.71241   0.00000  Uiso   1.00
C3515  C     0.51774   0.54596   0.73384   0.00000  Uiso   1.00
C3516  C     0.48765   0.44537   0.75769   0.00000  Uiso   1.00
C3517  C     0.51131   0.44548   0.76711   0.00000  Uiso   1.00
C3518  C     0.83099   0.50067   0.57049   0.00000  Uiso   1.00
C3519  C     0.73443   0.45867   0.81055   0.00000  Uiso   1.00
C3520  C     0.75394   0.44311   0.81635   0.00000  Uiso   1.00
C3521  C     0.77756   0.45287   0.81796   0.00000  Uiso   1.00
C3522  C     0.78174   0.47740   0.81205   0.00000  Uiso   1.00
N369   N     0.77428   0.53009   0.25692   0.00000  Uiso   1.00
N370   N     0.50897   0.52308   0.73185   0.00000  Uiso   1.00
N371   N     0.46082   0.81761   0.08700   0.00000  Uiso   1.00
C3523  C     0.41847   0.88212   0.09306   0.00000  Uiso   1.00
C3524  C     0.44383   0.88335   0.09638   0.00000  Uiso   1.00
C3525  C     0.45814   0.86234   0.09439   0.00000  Uiso   1.00
C3526  C     0.44715   0.83976   0.08915   0.00000  Uiso   1.00
C3527  C     0.42189   0.83855   0.08603   0.00000  Uiso   1.00
C3528  C     0.40770   0.85955   0.08767   0.00000  Uiso   1.00
C3529  C     0.18686   0.80444   0.83987   0.00000  Uiso   1.00
C3530  C     0.18980   0.81771   0.86156   0.00000  Uiso   1.00
C3531  C     0.18977   0.80587   0.88397   0.00000  Uiso   1.00
C3532  C     0.18703   0.78060   0.88533   0.00000  Uiso   1.00
C3533  C     0.18486   0.76698   0.86371   0.00000  Uiso   1.00
C3534  C     0.18467   0.77892   0.84110   0.00000  Uiso   1.00
N372   N     0.31429   0.72985   0.90920   0.00000  Uiso   1.00
H2209  H     0.33277   0.41993   0.50429   0.00000  Uiso   1.00
H2210  H     0.21192   0.48638   0.71499   0.00000  Uiso   1.00
H2211  H     0.19666   0.44431   0.72667   0.00000  Uiso   1.00
H2212  H     0.14729   0.47735   0.78046   0.00000  Uiso   1.00
H2213  H     0.16090   0.51936   0.76705   0.00000  Uiso   1.00
H2214  H     0.83249   0.54980   0.26688   0.00000  Uiso   1.00
H2215  H     0.81071   0.59065   0.26367   0.00000  Uiso   1.00
H2216  H     0.77259   0.61393   0.25474   0.00000  Uiso   1.00
H2217  H     0.50948   0.52111   0.64809   0.00000  Uiso   1.00
H2218  H     0.52548   0.55737   0.67214   0.00000  Uiso   1.00
H2219  H     0.53172   0.57784   0.71338   0.00000  Uiso   1.00
H2220  H     0.52734   0.45056   0.75490   0.00000  Uiso   1.00
H2221  H     0.71495   0.45144   0.81078   0.00000  Uiso   1.00
H2222  H     0.79337   0.44085   0.82407   0.00000  Uiso   1.00
H2223  H     0.80094   0.48526   0.81326   0.00000  Uiso   1.00
H2224  H     0.45288   0.90155   0.10072   0.00000  Uiso   1.00
H2225  H     0.47872   0.86352   0.09701   0.00000  Uiso   1.00
H2226  H     0.41277   0.82030   0.08212   0.00000  Uiso   1.00
H2227  H     0.38717   0.85847   0.08463   0.00000  Uiso   1.00
H2228  H     0.19223   0.83834   0.86088   0.00000  Uiso   1.00
H2229  H     0.19201   0.81704   0.90135   0.00000  Uiso   1.00
H2230  H     0.18327   0.74628   0.86459   0.00000  Uiso   1.00
H2231  H     0.18274   0.76794   0.82357   0.00000  Uiso   1.00
F185   F     0.73324   0.50643   0.86174   0.00000  Uiso   1.00
F186   F     0.75633   0.52557   0.89106   0.00000  Uiso   1.00
H2232  H     0.76550   0.40730   0.82914   0.00000  Uiso   1.00
O93    O     0.60091   0.08292   0.22954   0.00000  Uiso   1.00
C3535  C     0.31583   0.91845   0.01624   0.00000  Uiso   1.00
C3536  C     0.19780   0.98427   0.23009   0.00000  Uiso   1.00
C3537  C     0.18961   0.96108   0.23671   0.00000  Uiso   1.00
C3538  C     0.17273   0.95843   0.25568   0.00000  Uiso   1.00
C3539  C     0.16219   0.97930   0.26612   0.00000  Uiso   1.00
C3540  C     0.16991   0.00246   0.25899   0.00000  Uiso   1.00
C3541  C     0.18877   0.00504   0.24189   0.00000  Uiso   1.00
C3542  C     0.79876   0.02869   0.76069   0.00000  Uiso   1.00
C3543  C     0.81205   0.05047   0.76319   0.00000  Uiso   1.00
C3544  C     0.80009   0.07297   0.76111   0.00000  Uiso   1.00
C3545  C     0.76245   0.05165   0.75340   0.00000  Uiso   1.00
C3546  C     0.77508   0.07377   0.75590   0.00000  Uiso   1.00
C3547  C     0.76250   0.09587   0.75278   0.00000  Uiso   1.00
C3548  C     0.50518   0.01179   0.16616   0.00000  Uiso   1.00
C3549  C     0.51021   0.02377   0.18831   0.00000  Uiso   1.00
C3550  C     0.50490   0.01185   0.21020   0.00000  Uiso   1.00
C3551  C     0.52026   0.04735   0.18958   0.00000  Uiso   1.00
C3552  C     0.52388   0.05862   0.21241   0.00000  Uiso   1.00
C3553  C     0.51774   0.04596   0.23384   0.00000  Uiso   1.00
C3554  C     0.48765   0.94537   0.25769   0.00000  Uiso   1.00
C3555  C     0.51131   0.94548   0.26711   0.00000  Uiso   1.00
C3556  C     0.83099   0.00067   0.07049   0.00000  Uiso   1.00
C3557  C     0.73443   0.95867   0.31055   0.00000  Uiso   1.00
C3558  C     0.75394   0.94311   0.31635   0.00000  Uiso   1.00
C3559  C     0.77756   0.95287   0.31796   0.00000  Uiso   1.00
C3560  C     0.78174   0.97740   0.31205   0.00000  Uiso   1.00
N373   N     0.77428   0.03009   0.75692   0.00000  Uiso   1.00
N374   N     0.50897   0.02308   0.23185   0.00000  Uiso   1.00
N375   N     0.46082   0.31761   0.58700   0.00000  Uiso   1.00
C3561  C     0.41847   0.38212   0.59306   0.00000  Uiso   1.00
C3562  C     0.44383   0.38335   0.59638   0.00000  Uiso   1.00
C3563  C     0.45814   0.36234   0.59439   0.00000  Uiso   1.00
C3564  C     0.44715   0.33976   0.58915   0.00000  Uiso   1.00
C3565  C     0.42189   0.33855   0.58603   0.00000  Uiso   1.00
C3566  C     0.40770   0.35955   0.58767   0.00000  Uiso   1.00
C3567  C     0.18686   0.30444   0.33987   0.00000  Uiso   1.00
C3568  C     0.18980   0.31771   0.36156   0.00000  Uiso   1.00
C3569  C     0.18977   0.30587   0.38397   0.00000  Uiso   1.00
C3570  C     0.18703   0.28060   0.38533   0.00000  Uiso   1.00
C3571  C     0.18486   0.26698   0.36371   0.00000  Uiso   1.00
C3572  C     0.18467   0.27892   0.34110   0.00000  Uiso   1.00
N376   N     0.31429   0.22985   0.40920   0.00000  Uiso   1.00
H2233  H     0.33277   0.91993   0.00429   0.00000  Uiso   1.00
H2234  H     0.21192   0.98638   0.21499   0.00000  Uiso   1.00
H2235  H     0.19666   0.94431   0.22667   0.00000  Uiso   1.00
H2236  H     0.14729   0.97735   0.28046   0.00000  Uiso   1.00
H2237  H     0.16090   0.01936   0.26705   0.00000  Uiso   1.00
H2238  H     0.83249   0.04980   0.76688   0.00000  Uiso   1.00
H2239  H     0.81071   0.09065   0.76367   0.00000  Uiso   1.00
H2240  H     0.77259   0.11393   0.75474   0.00000  Uiso   1.00
H2241  H     0.50948   0.02111   0.14809   0.00000  Uiso   1.00
H2242  H     0.52548   0.05737   0.17214   0.00000  Uiso   1.00
H2243  H     0.53172   0.07784   0.21338   0.00000  Uiso   1.00
H2244  H     0.52734   0.95056   0.25490   0.00000  Uiso   1.00
H2245  H     0.71495   0.95144   0.31078   0.00000  Uiso   1.00
H2246  H     0.79337   0.94085   0.32407   0.00000  Uiso   1.00
H2247  H     0.80094   0.98526   0.31326   0.00000  Uiso   1.00
H2248  H     0.45288   0.40155   0.60072   0.00000  Uiso   1.00
H2249  H     0.47872   0.36352   0.59701   0.00000  Uiso   1.00
H2250  H     0.41277   0.32030   0.58212   0.00000  Uiso   1.00
H2251  H     0.38717   0.35847   0.58463   0.00000  Uiso   1.00
H2252  H     0.19223   0.33834   0.36088   0.00000  Uiso   1.00
H2253  H     0.19201   0.31704   0.40135   0.00000  Uiso   1.00
H2254  H     0.18327   0.24628   0.36459   0.00000  Uiso   1.00
H2255  H     0.18274   0.26794   0.32357   0.00000  Uiso   1.00
F187   F     0.73324   0.00643   0.36174   0.00000  Uiso   1.00
F188   F     0.75633   0.02557   0.39106   0.00000  Uiso   1.00
H2256  H     0.76550   0.90730   0.32914   0.00000  Uiso   1.00
O94    O     0.60091   0.58292   0.72954   0.00000  Uiso   1.00
C3573  C     0.81583   0.41845   0.01624   0.00000  Uiso   1.00
C3574  C     0.69780   0.48427   0.23009   0.00000  Uiso   1.00
C3575  C     0.68961   0.46108   0.23671   0.00000  Uiso   1.00
C3576  C     0.67273   0.45843   0.25568   0.00000  Uiso   1.00
C3577  C     0.66219   0.47930   0.26612   0.00000  Uiso   1.00
C3578  C     0.66991   0.50246   0.25899   0.00000  Uiso   1.00
C3579  C     0.68877   0.50504   0.24189   0.00000  Uiso   1.00
C3580  C     0.29876   0.52869   0.76069   0.00000  Uiso   1.00
C3581  C     0.31205   0.55047   0.76319   0.00000  Uiso   1.00
C3582  C     0.30009   0.57297   0.76111   0.00000  Uiso   1.00
C3583  C     0.26245   0.55165   0.75340   0.00000  Uiso   1.00
C3584  C     0.27508   0.57377   0.75590   0.00000  Uiso   1.00
C3585  C     0.26250   0.59587   0.75278   0.00000  Uiso   1.00
C3586  C     0.00518   0.51179   0.16616   0.00000  Uiso   1.00
C3587  C     0.01021   0.52377   0.18831   0.00000  Uiso   1.00
C3588  C     0.00490   0.51185   0.21020   0.00000  Uiso   1.00
C3589  C     0.02026   0.54735   0.18958   0.00000  Uiso   1.00
C3590  C     0.02388   0.55862   0.21241   0.00000  Uiso   1.00
C3591  C     0.01774   0.54596   0.23384   0.00000  Uiso   1.00
C3592  C     0.98765   0.44537   0.25769   0.00000  Uiso   1.00
C3593  C     0.01131   0.44548   0.26711   0.00000  Uiso   1.00
C3594  C     0.33099   0.50067   0.07049   0.00000  Uiso   1.00
C3595  C     0.23443   0.45867   0.31055   0.00000  Uiso   1.00
C3596  C     0.25394   0.44311   0.31635   0.00000  Uiso   1.00
C3597  C     0.27756   0.45287   0.31796   0.00000  Uiso   1.00
C3598  C     0.28174   0.47740   0.31205   0.00000  Uiso   1.00
N377   N     0.27428   0.53009   0.75692   0.00000  Uiso   1.00
N378   N     0.00897   0.52308   0.23185   0.00000  Uiso   1.00
N379   N     0.96082   0.81761   0.58700   0.00000  Uiso   1.00
C3599  C     0.91847   0.88212   0.59306   0.00000  Uiso   1.00
C3600  C     0.94383   0.88335   0.59638   0.00000  Uiso   1.00
C3601  C     0.95814   0.86234   0.59439   0.00000  Uiso   1.00
C3602  C     0.94715   0.83976   0.58915   0.00000  Uiso   1.00
C3603  C     0.92189   0.83855   0.58603   0.00000  Uiso   1.00
C3604  C     0.90770   0.85955   0.58767   0.00000  Uiso   1.00
C3605  C     0.68686   0.80444   0.33987   0.00000  Uiso   1.00
C3606  C     0.68980   0.81771   0.36156   0.00000  Uiso   1.00
C3607  C     0.68977   0.80587   0.38397   0.00000  Uiso   1.00
C3608  C     0.68703   0.78060   0.38533   0.00000  Uiso   1.00
C3609  C     0.68486   0.76698   0.36371   0.00000  Uiso   1.00
C3610  C     0.68467   0.77892   0.34110   0.00000  Uiso   1.00
N380   N     0.81429   0.72985   0.40920   0.00000  Uiso   1.00
H2257  H     0.83277   0.41993   0.00429   0.00000  Uiso   1.00
H2258  H     0.71192   0.48638   0.21499   0.00000  Uiso   1.00
H2259  H     0.69666   0.44431   0.22667   0.00000  Uiso   1.00
H2260  H     0.64729   0.47735   0.28046   0.00000  Uiso   1.00
H2261  H     0.66090   0.51936   0.26705   0.00000  Uiso   1.00
H2262  H     0.33249   0.54980   0.76688   0.00000  Uiso   1.00
H2263  H     0.31071   0.59065   0.76367   0.00000  Uiso   1.00
H2264  H     0.27259   0.61393   0.75474   0.00000  Uiso   1.00
H2265  H     0.00948   0.52111   0.14809   0.00000  Uiso   1.00
H2266  H     0.02548   0.55737   0.17214   0.00000  Uiso   1.00
H2267  H     0.03172   0.57784   0.21338   0.00000  Uiso   1.00
H2268  H     0.02734   0.45056   0.25490   0.00000  Uiso   1.00
H2269  H     0.21495   0.45144   0.31078   0.00000  Uiso   1.00
H2270  H     0.29337   0.44085   0.32407   0.00000  Uiso   1.00
H2271  H     0.30094   0.48526   0.31326   0.00000  Uiso   1.00
H2272  H     0.95288   0.90155   0.60072   0.00000  Uiso   1.00
H2273  H     0.97872   0.86352   0.59701   0.00000  Uiso   1.00
H2274  H     0.91277   0.82030   0.58212   0.00000  Uiso   1.00
H2275  H     0.88717   0.85847   0.58463   0.00000  Uiso   1.00
H2276  H     0.69223   0.83834   0.36088   0.00000  Uiso   1.00
H2277  H     0.69201   0.81704   0.40135   0.00000  Uiso   1.00
H2278  H     0.68327   0.74628   0.36459   0.00000  Uiso   1.00
H2279  H     0.68274   0.76794   0.32357   0.00000  Uiso   1.00
F189   F     0.23324   0.50643   0.36174   0.00000  Uiso   1.00
F190   F     0.25633   0.52557   0.39106   0.00000  Uiso   1.00
H2280  H     0.26550   0.40730   0.32914   0.00000  Uiso   1.00
O95    O     0.10091   0.08292   0.72954   0.00000  Uiso   1.00
C3611  C     0.81583   0.91845   0.51624   0.00000  Uiso   1.00
C3612  C     0.69780   0.98427   0.73009   0.00000  Uiso   1.00
C3613  C     0.68961   0.96108   0.73671   0.00000  Uiso   1.00
C3614  C     0.67273   0.95843   0.75568   0.00000  Uiso   1.00
C3615  C     0.66219   0.97930   0.76612   0.00000  Uiso   1.00
C3616  C     0.66991   0.00246   0.75899   0.00000  Uiso   1.00
C3617  C     0.68877   0.00504   0.74189   0.00000  Uiso   1.00
C3618  C     0.29876   0.02869   0.26069   0.00000  Uiso   1.00
C3619  C     0.31205   0.05047   0.26319   0.00000  Uiso   1.00
C3620  C     0.30009   0.07297   0.26111   0.00000  Uiso   1.00
C3621  C     0.26245   0.05165   0.25340   0.00000  Uiso   1.00
C3622  C     0.27508   0.07377   0.25590   0.00000  Uiso   1.00
C3623  C     0.26250   0.09587   0.25278   0.00000  Uiso   1.00
C3624  C     0.00518   0.01179   0.66616   0.00000  Uiso   1.00
C3625  C     0.01021   0.02377   0.68831   0.00000  Uiso   1.00
C3626  C     0.00490   0.01185   0.71020   0.00000  Uiso   1.00
C3627  C     0.02026   0.04735   0.68958   0.00000  Uiso   1.00
C3628  C     0.02388   0.05862   0.71241   0.00000  Uiso   1.00
C3629  C     0.01774   0.04596   0.73384   0.00000  Uiso   1.00
C3630  C     0.98765   0.94537   0.75769   0.00000  Uiso   1.00
C3631  C     0.01131   0.94548   0.76711   0.00000  Uiso   1.00
C3632  C     0.33099   0.00067   0.57049   0.00000  Uiso   1.00
C3633  C     0.23443   0.95867   0.81055   0.00000  Uiso   1.00
C3634  C     0.25394   0.94311   0.81635   0.00000  Uiso   1.00
C3635  C     0.27756   0.95287   0.81796   0.00000  Uiso   1.00
C3636  C     0.28174   0.97740   0.81205   0.00000  Uiso   1.00
N381   N     0.27428   0.03009   0.25692   0.00000  Uiso   1.00
N382   N     0.00897   0.02308   0.73185   0.00000  Uiso   1.00
N383   N     0.96082   0.31761   0.08700   0.00000  Uiso   1.00
C3637  C     0.91847   0.38212   0.09306   0.00000  Uiso   1.00
C3638  C     0.94383   0.38335   0.09638   0.00000  Uiso   1.00
C3639  C     0.95814   0.36234   0.09439   0.00000  Uiso   1.00
C3640  C     0.94715   0.33976   0.08915   0.00000  Uiso   1.00
C3641  C     0.92189   0.33855   0.08603   0.00000  Uiso   1.00
C3642  C     0.90770   0.35955   0.08767   0.00000  Uiso   1.00
C3643  C     0.68686   0.30444   0.83987   0.00000  Uiso   1.00
C3644  C     0.68980   0.31771   0.86156   0.00000  Uiso   1.00
C3645  C     0.68977   0.30587   0.88397   0.00000  Uiso   1.00
C3646  C     0.68703   0.28060   0.88533   0.00000  Uiso   1.00
C3647  C     0.68486   0.26698   0.86371   0.00000  Uiso   1.00
C3648  C     0.68467   0.27892   0.84110   0.00000  Uiso   1.00
N384   N     0.81429   0.22985   0.90920   0.00000  Uiso   1.00
H2281  H     0.83277   0.91993   0.50429   0.00000  Uiso   1.00
H2282  H     0.71192   0.98638   0.71499   0.00000  Uiso   1.00
H2283  H     0.69666   0.94431   0.72667   0.00000  Uiso   1.00
H2284  H     0.64729   0.97735   0.78046   0.00000  Uiso   1.00
H2285  H     0.66090   0.01936   0.76705   0.00000  Uiso   1.00
H2286  H     0.33249   0.04980   0.26688   0.00000  Uiso   1.00
H2287  H     0.31071   0.09065   0.26367   0.00000  Uiso   1.00
H2288  H     0.27259   0.11393   0.25474   0.00000  Uiso   1.00
H2289  H     0.00948   0.02111   0.64809   0.00000  Uiso   1.00
H2290  H     0.02548   0.05737   0.67214   0.00000  Uiso   1.00
H2291  H     0.03172   0.07784   0.71338   0.00000  Uiso   1.00
H2292  H     0.02734   0.95056   0.75490   0.00000  Uiso   1.00
H2293  H     0.21495   0.95144   0.81078   0.00000  Uiso   1.00
H2294  H     0.29337   0.94085   0.82407   0.00000  Uiso   1.00
H2295  H     0.30094   0.98526   0.81326   0.00000  Uiso   1.00
H2296  H     0.95288   0.40155   0.10072   0.00000  Uiso   1.00
H2297  H     0.97872   0.36352   0.09701   0.00000  Uiso   1.00
H2298  H     0.91277   0.32030   0.08212   0.00000  Uiso   1.00
H2299  H     0.88717   0.35847   0.08463   0.00000  Uiso   1.00
H2300  H     0.69223   0.33834   0.86088   0.00000  Uiso   1.00
H2301  H     0.69201   0.31704   0.90135   0.00000  Uiso   1.00
H2302  H     0.68327   0.24628   0.86459   0.00000  Uiso   1.00
H2303  H     0.68274   0.26794   0.82357   0.00000  Uiso   1.00
F191   F     0.23324   0.00643   0.86174   0.00000  Uiso   1.00
F192   F     0.25633   0.02557   0.89106   0.00000  Uiso   1.00
H2304  H     0.26550   0.90730   0.82914   0.00000  Uiso   1.00
O96    O     0.10091   0.58292   0.22954   0.00000  Uiso   1.00
N385   N     0.59750   0.59750   0.59750   0.00000  Uiso   1.00
N386   N     0.59750   0.09750   0.09750   0.00000  Uiso   1.00
N387   N     0.09750   0.59750   0.09750   0.00000  Uiso   1.00
N388   N     0.09750   0.09750   0.59750   0.00000  Uiso   1.00
N389   N     0.40250   0.90250   0.09750   0.00000  Uiso   1.00
N390   N     0.40250   0.40250   0.59750   0.00000  Uiso   1.00
N391   N     0.90250   0.90250   0.59750   0.00000  Uiso   1.00
N392   N     0.90250   0.40250   0.09750   0.00000  Uiso   1.00
N393   N     0.90250   0.09750   0.40250   0.00000  Uiso   1.00
N394   N     0.90250   0.59750   0.90250   0.00000  Uiso   1.00
N395   N     0.40250   0.09750   0.90250   0.00000  Uiso   1.00
N396   N     0.40250   0.59750   0.40250   0.00000  Uiso   1.00
N397   N     0.09750   0.40250   0.90250   0.00000  Uiso   1.00
N398   N     0.09750   0.90250   0.40250   0.00000  Uiso   1.00
N399   N     0.59750   0.40250   0.40250   0.00000  Uiso   1.00
N400   N     0.59750   0.90250   0.90250   0.00000  Uiso   1.00
N401   N     0.34750   0.84750   0.15250   0.00000  Uiso   1.00
N402   N     0.34750   0.34750   0.65250   0.00000  Uiso   1.00
N403   N     0.84750   0.84750   0.65250   0.00000  Uiso   1.00
N404   N     0.84750   0.34750   0.15250   0.00000  Uiso   1.00
N405   N     0.65250   0.65250   0.65250   0.00000  Uiso   1.00
N406   N     0.65250   0.15250   0.15250   0.00000  Uiso   1.00
N407   N     0.15250   0.65250   0.15250   0.00000  Uiso   1.00
N408   N     0.15250   0.15250   0.65250   0.00000  Uiso   1.00
N409   N     0.84750   0.15250   0.34750   0.00000  Uiso   1.00
N410   N     0.84750   0.65250   0.84750   0.00000  Uiso   1.00
N411   N     0.34750   0.15250   0.84750   0.00000  Uiso   1.00
N412   N     0.34750   0.65250   0.34750   0.00000  Uiso   1.00
N413   N     0.15250   0.34750   0.84750   0.00000  Uiso   1.00
N414   N     0.15250   0.84750   0.34750   0.00000  Uiso   1.00
N415   N     0.65250   0.34750   0.34750   0.00000  Uiso   1.00
N416   N     0.65250   0.84750   0.84750   0.00000  Uiso   1.00
N417   N     0.56716   0.56716   0.06716   0.00000  Uiso   1.00
N418   N     0.43284   0.93284   0.56716   0.00000  Uiso   1.00
N419   N     0.43284   0.43284   0.06716   0.00000  Uiso   1.00
N420   N     0.93284   0.93284   0.06716   0.00000  Uiso   1.00
N421   N     0.93284   0.06716   0.93284   0.00000  Uiso   1.00
N422   N     0.43284   0.56716   0.93284   0.00000  Uiso   1.00
N423   N     0.06716   0.43284   0.43284   0.00000  Uiso   1.00
N424   N     0.06716   0.56716   0.56716   0.00000  Uiso   1.00
N425   N     0.06716   0.06716   0.06716   0.00000  Uiso   1.00
N426   N     0.56716   0.43284   0.93284   0.00000  Uiso   1.00
N427   N     0.56716   0.93284   0.43284   0.00000  Uiso   1.00
N428   N     0.06716   0.93284   0.93284   0.00000  Uiso   1.00
N429   N     0.93284   0.43284   0.56716   0.00000  Uiso   1.00
N430   N     0.43284   0.06716   0.43284   0.00000  Uiso   1.00
N431   N     0.56716   0.06716   0.56716   0.00000  Uiso   1.00
N432   N     0.93284   0.56716   0.43284   0.00000  Uiso   1.00
N433   N     0.31716   0.81716   0.68284   0.00000  Uiso   1.00
N434   N     0.68284   0.68284   0.18284   0.00000  Uiso   1.00
N435   N     0.18284   0.18284   0.18284   0.00000  Uiso   1.00
N436   N     0.81716   0.18284   0.81716   0.00000  Uiso   1.00
N437   N     0.81716   0.68284   0.31716   0.00000  Uiso   1.00
N438   N     0.18284   0.31716   0.31716   0.00000  Uiso   1.00
N439   N     0.68284   0.31716   0.81716   0.00000  Uiso   1.00
N440   N     0.31716   0.31716   0.18284   0.00000  Uiso   1.00
N441   N     0.18284   0.81716   0.81716   0.00000  Uiso   1.00
N442   N     0.68284   0.18284   0.68284   0.00000  Uiso   1.00
N443   N     0.81716   0.81716   0.18284   0.00000  Uiso   1.00
N444   N     0.81716   0.31716   0.68284   0.00000  Uiso   1.00
N445   N     0.31716   0.18284   0.31716   0.00000  Uiso   1.00
N446   N     0.31716   0.68284   0.81716   0.00000  Uiso   1.00
N447   N     0.68284   0.81716   0.31716   0.00000  Uiso   1.00
N448   N     0.18284   0.68284   0.68284   0.00000  Uiso   1.00
B1     B     0.37500   0.74461   0.49461   0.00000  Uiso   1.00
B2     B     0.37500   0.24461   0.99461   0.00000  Uiso   1.00
B3     B     0.87500   0.74461   0.99461   0.00000  Uiso   1.00
B4     B     0.62500   0.75539   0.99461   0.00000  Uiso   1.00
B5     B     0.12500   0.75539   0.49461   0.00000  Uiso   1.00
B6     B     0.12500   0.24461   0.50539   0.00000  Uiso   1.00
B7     B     0.62500   0.24461   0.00539   0.00000  Uiso   1.00
B8     B     0.87500   0.25539   0.00539   0.00000  Uiso   1.00
B9     B     0.37500   0.25539   0.50539   0.00000  Uiso   1.00
B10    B     0.49461   0.37500   0.74461   0.00000  Uiso   1.00
B11    B     0.49461   0.87500   0.24461   0.00000  Uiso   1.00
B12    B     0.99461   0.37500   0.24461   0.00000  Uiso   1.00
B13    B     0.99461   0.62500   0.75539   0.00000  Uiso   1.00
B14    B     0.99461   0.12500   0.25539   0.00000  Uiso   1.00
B15    B     0.50539   0.12500   0.24461   0.00000  Uiso   1.00
B16    B     0.50539   0.62500   0.74461   0.00000  Uiso   1.00
B17    B     0.00539   0.87500   0.25539   0.00000  Uiso   1.00
B18    B     0.00539   0.37500   0.75539   0.00000  Uiso   1.00
B19    B     0.74461   0.49461   0.37500   0.00000  Uiso   1.00
B20    B     0.74461   0.99461   0.87500   0.00000  Uiso   1.00
B21    B     0.24461   0.99461   0.37500   0.00000  Uiso   1.00
B22    B     0.75539   0.99461   0.62500   0.00000  Uiso   1.00
B23    B     0.75539   0.49461   0.12500   0.00000  Uiso   1.00
B24    B     0.24461   0.50539   0.12500   0.00000  Uiso   1.00
B25    B     0.24461   0.00539   0.62500   0.00000  Uiso   1.00
B26    B     0.25539   0.00539   0.87500   0.00000  Uiso   1.00
B27    B     0.25539   0.50539   0.37500   0.00000  Uiso   1.00
B28    B     0.49461   0.62500   0.25539   0.00000  Uiso   1.00
B29    B     0.49461   0.12500   0.75539   0.00000  Uiso   1.00
B30    B     0.50539   0.87500   0.75539   0.00000  Uiso   1.00
B31    B     0.50539   0.37500   0.25539   0.00000  Uiso   1.00
B32    B     0.99461   0.87500   0.74461   0.00000  Uiso   1.00
B33    B     0.00539   0.12500   0.74461   0.00000  Uiso   1.00
B34    B     0.00539   0.62500   0.24461   0.00000  Uiso   1.00
B35    B     0.12500   0.74461   0.00539   0.00000  Uiso   1.00
B36    B     0.62500   0.74461   0.50539   0.00000  Uiso   1.00
B37    B     0.87500   0.24461   0.49461   0.00000  Uiso   1.00
B38    B     0.87500   0.75539   0.50539   0.00000  Uiso   1.00
B39    B     0.37500   0.75539   0.00539   0.00000  Uiso   1.00
B40    B     0.62500   0.25539   0.49461   0.00000  Uiso   1.00
B41    B     0.12500   0.25539   0.99461   0.00000  Uiso   1.00
B42    B     0.24461   0.49461   0.87500   0.00000  Uiso   1.00
B43    B     0.74461   0.00539   0.12500   0.00000  Uiso   1.00
B44    B     0.74461   0.50539   0.62500   0.00000  Uiso   1.00
B45    B     0.25539   0.49461   0.62500   0.00000  Uiso   1.00
B46    B     0.25539   0.99461   0.12500   0.00000  Uiso   1.00
B47    B     0.75539   0.50539   0.87500   0.00000  Uiso   1.00
B48    B     0.75539   0.00539   0.37500   0.00000  Uiso   1.00
Cu1    Cu    0.75597   0.50000   0.50000   0.00000  Uiso   1.00
Cu2    Cu    0.75597   0.00000   0.00000   0.00000  Uiso   1.00
Cu3    Cu    0.24403   0.00000   0.00000   0.00000  Uiso   1.00
Cu4    Cu    0.24403   0.50000   0.50000   0.00000  Uiso   1.00
Cu5    Cu    0.74403   0.00000   0.50000   0.00000  Uiso   1.00
Cu6    Cu    0.74403   0.50000   0.00000   0.00000  Uiso   1.00
Cu7    Cu    0.25597   0.50000   0.00000   0.00000  Uiso   1.00
Cu8    Cu    0.25597   0.00000   0.50000   0.00000  Uiso   1.00
Cu9    Cu    0.50000   0.75597   0.50000   0.00000  Uiso   1.00
Cu10   Cu    0.50000   0.25597   0.00000   0.00000  Uiso   1.00
Cu11   Cu    0.00000   0.24403   0.00000   0.00000  Uiso   1.00
Cu12   Cu    0.00000   0.74403   0.50000   0.00000  Uiso   1.00
Cu13   Cu    0.50000   0.74403   0.00000   0.00000  Uiso   1.00
Cu14   Cu    0.50000   0.24403   0.50000   0.00000  Uiso   1.00
Cu15   Cu    0.00000   0.25597   0.50000   0.00000  Uiso   1.00
Cu16   Cu    0.00000   0.75597   0.00000   0.00000  Uiso   1.00
Cu17   Cu    0.50000   0.50000   0.75597   0.00000  Uiso   1.00
Cu18   Cu    0.00000   0.50000   0.25597   0.00000  Uiso   1.00
Cu19   Cu    0.00000   0.00000   0.24403   0.00000  Uiso   1.00
Cu20   Cu    0.50000   0.00000   0.74403   0.00000  Uiso   1.00
Cu21   Cu    0.00000   0.50000   0.74403   0.00000  Uiso   1.00
Cu22   Cu    0.50000   0.50000   0.24403   0.00000  Uiso   1.00
Cu23   Cu    0.50000   0.00000   0.25597   0.00000  Uiso   1.00
Cu24   Cu    0.00000   0.00000   0.75597   0.00000  Uiso   1.00
Cu25   Cu    0.25000   0.00597   0.25000   0.00000  Uiso   1.00
Cu26   Cu    0.75000   0.00597   0.75000   0.00000  Uiso   1.00
Cu27   Cu    0.75000   0.49403   0.75000   0.00000  Uiso   1.00
Cu28   Cu    0.25000   0.49403   0.25000   0.00000  Uiso   1.00
Cu29   Cu    0.75000   0.99403   0.25000   0.00000  Uiso   1.00
Cu30   Cu    0.25000   0.99403   0.75000   0.00000  Uiso   1.00
Cu31   Cu    0.25000   0.50597   0.75000   0.00000  Uiso   1.00
Cu32   Cu    0.75000   0.50597   0.25000   0.00000  Uiso   1.00
Cu33   Cu    0.50597   0.75000   0.25000   0.00000  Uiso   1.00
Cu34   Cu    0.50597   0.25000   0.75000   0.00000  Uiso   1.00
Cu35   Cu    0.99403   0.25000   0.75000   0.00000  Uiso   1.00
Cu36   Cu    0.99403   0.75000   0.25000   0.00000  Uiso   1.00
Cu37   Cu    0.49403   0.75000   0.75000   0.00000  Uiso   1.00
Cu38   Cu    0.49403   0.25000   0.25000   0.00000  Uiso   1.00
Cu39   Cu    0.00597   0.25000   0.25000   0.00000  Uiso   1.00
Cu40   Cu    0.00597   0.75000   0.75000   0.00000  Uiso   1.00
Cu41   Cu    0.25000   0.75000   0.99403   0.00000  Uiso   1.00
Cu42   Cu    0.25000   0.25000   0.49403   0.00000  Uiso   1.00
Cu43   Cu    0.75000   0.25000   0.50597   0.00000  Uiso   1.00
Cu44   Cu    0.75000   0.75000   0.00597   0.00000  Uiso   1.00
Cu45   Cu    0.25000   0.25000   0.00597   0.00000  Uiso   1.00
Cu46   Cu    0.25000   0.75000   0.50597   0.00000  Uiso   1.00
Cu47   Cu    0.75000   0.75000   0.49403   0.00000  Uiso   1.00
Cu48   Cu    0.75000   0.25000   0.99403   0.00000  Uiso   1.00
loop_
_geom_bond_atom_site_label_1
_geom_bond_atom_site_label_2
_geom_bond_distance
_geom_bond_site_symmetry_2
_ccdc_geom_bond_type
C1     H1      1.140   .     S
C1     N111    1.297   .     D
C1     C2550   1.470   .     S
C2     C3      1.397   .     S
C2     C7      1.401   .     D
C2     H2      1.140   .     S
C3     H3      1.140   .     S
C3     C4      1.401   .     D
C4     C5      1.405   .     S
C4     C2965   1.470   .     S
C5     C6      1.395   .     D
C5     H4      1.139   .     S
C6     H5      1.140   .     S
C6     C7      1.404   .     S
C7     C350    1.474   .     S
C8     C349    1.474   .     S
C8     C9      1.406   .     S
C8     N1      1.361   .     D
C9     C10     1.403   .     D
C9     H6      1.140   .     S
C10    H7      1.140   .     S
C10    C12     1.402   .     S
C11    C12     1.404   .     D
C11    N1      1.363   .     S
C11    C429    1.416   1_655 S
C12    C13     1.406   .     S
C13    H8      1.140   .     S
C13    C431    1.405   1_655 D
C14    C15     1.409   .     S
C14    H9      1.140   .     S
C14    C584    1.413   .     D
C15    C16     1.398   .     D
C15    C17     1.408   .     S
C16    N2      1.356   .     S
C16    C586    1.407   .     S
C17    H10     1.140   .     S
C17    C18     1.411   .     D
C18    C19     1.406   .     S
C18    H11     1.140   .     S
C19    C590    1.423   .     S
C19    N2      1.349   .     D
C20    C589    1.423   .     S
C20    C2002   1.402   .     S
C20    C21     1.397   .     D
C21    H12     1.140   .     S
C21    C1999   1.389   .     S
C22    C2532   1.353   .     S
C22    H1608   1.140   .     S
C22    N324    1.308   .     D
C23    H13     1.140   .     S
C23    C1997   1.389   .     D
C23    C24     1.405   .     S
C24    C25     1.405   .     D
C24    C3024   1.353   .     S
C25    C26     1.403   .     S
C25    H14     1.140   .     S
C26    C1996   1.402   .     D
C26    H15     1.140   .     S
N1     Cu12    1.915   1_655 S
N2     Cu37    1.896   .     S
N3     C30     1.433   .     S
N3     C1445   1.297   .     D
C27    C32     1.403   .     S
C27    N413    1.441   .     S
C27    C28     1.405   .     D
C28    C29     1.399   .     S
C28    H16     1.140   .     S
C29    H17     1.140   .     S
C29    C30     1.407   .     D
C30    C31     1.398   .     S
C31    H18     1.140   .     S
C31    C32     1.393   .     D
C32    H19     1.140   .     S
C33    N419    1.445   .     S
C33    C34     1.404   .     D
C33    C38     1.407   .     S
C34    C35     1.390   .     S
C34    H20     1.140   .     S
C35    H21     1.140   .     S
C35    C36     1.396   .     D
C36    C37     1.407   .     S
C36    N60     1.431   .     S
C37    H22     1.140   .     S
C37    C38     1.403   .     D
C38    H23     1.140   .     S
N4     C568    1.431   .     S
N4     C3366   1.308   .     D
F1     B1      1.417   .     S
F2     B1      1.416   .     S
H24    C3024   1.140   .     S
C39    H25     1.140   .     S
C39    N107    1.297   .     D
C39    C2512   1.470   .     S
C40    H26     1.140   .     S
C40    C41     1.397   .     S
C40    C45     1.401   .     D
C41    C42     1.401   .     D
C41    H27     1.140   .     S
C42    C43     1.405   .     S
C42    C3003   1.470   .     S
C43    H28     1.139   .     S
C43    C44     1.395   .     D
C44    H29     1.140   .     S
C44    C45     1.404   .     S
C45    C312    1.474   .     S
C46    C311    1.474   .     S
C46    C47     1.406   .     S
C46    N5      1.361   .     D
C47    C48     1.403   .     D
C47    H30     1.140   .     S
C48    H31     1.140   .     S
C48    C50     1.402   .     S
C49    C50     1.404   .     D
C49    N5      1.363   .     S
C49    C391    1.416   1_656 S
C50    C51     1.406   .     S
C51    H32     1.140   .     S
C51    C393    1.405   1_656 D
C52    C53     1.409   .     S
C52    H33     1.140   .     S
C52    C546    1.413   .     D
C53    C54     1.398   .     D
C53    C55     1.408   .     S
C54    N6      1.356   .     S
C54    C548    1.407   .     S
C55    H34     1.140   .     S
C55    C56     1.411   .     D
C56    H35     1.140   .     S
C56    C57     1.406   .     S
C57    N6      1.349   .     D
C57    C552    1.423   .     S
C58    C2040   1.402   .     S
C58    C551    1.423   .     S
C58    C59     1.397   .     D
C59    C2037   1.389   .     S
C59    H36     1.140   .     S
C60    C2570   1.353   .     S
C60    N328    1.308   .     D
C60    H1632   1.140   .     S
C61    H37     1.140   .     S
C61    C2035   1.389   .     D
C61    C62     1.405   1_554 S
C62    C2986   1.353   .     S
C62    C63     1.405   .     D
C62    C61     1.405   1_556 S
C63    C64     1.403   .     S
C63    H38     1.140   .     S
C64    C2034   1.402   .     D
C64    H39     1.140   .     S
N5     Cu11    1.915   1_656 S
N6     Cu38    1.896   .     S
N7     C1483   1.297   .     D
N7     C68     1.433   .     S
C65    C66     1.405   .     D
C65    C70     1.403   .     S
C65    N414    1.441   .     S
C66    C67     1.399   .     S
C66    H40     1.140   .     S
C67    C68     1.407   .     D
C67    H41     1.140   .     S
C68    C69     1.398   .     S
C69    C70     1.393   .     D
C69    H42     1.140   .     S
C70    H43     1.140   .     S
C71    N418    1.445   .     S
C71    C72     1.404   .     D
C71    C76     1.407   .     S
C72    C73     1.390   .     S
C72    H44     1.140   .     S
C73    C74     1.396   .     D
C73    H45     1.140   .     S
C74    C75     1.407   .     S
C74    N64     1.431   .     S
C75    C76     1.403   .     D
C75    H46     1.140   1_565 S
C76    H47     1.140   .     S
N8     C606    1.431   .     S
N8     C3404   1.308   1_545 D
H46    C75     1.140   1_545 S
F3     B2      1.417   .     S
F4     B2      1.416   .     S
H48    C2986   1.140   .     S
C77    H49     1.140   .     S
C77    N103    1.297   .     D
C77    C2474   1.470   .     S
C78    H50     1.140   .     S
C78    C79     1.397   .     D
C78    C83     1.401   .     S
C79    H51     1.140   .     S
C79    C80     1.401   1_455 S
C80    C81     1.405   .     D
C80    C2889   1.470   .     S
C80    C79     1.401   1_655 S
C81    H52     1.139   .     S
C81    C82     1.395   .     S
C82    H53     1.140   .     S
C82    C83     1.404   1_655 D
C83    C426    1.474   .     S
C83    C82     1.404   1_455 D
C84    C425    1.474   .     S
C84    C85     1.406   .     S
C84    N9      1.361   .     D
C85    C86     1.403   .     D
C85    H54     1.140   .     S
C86    H55     1.140   .     S
C86    C88     1.402   .     S
C87    C88     1.404   .     D
C87    N9      1.363   .     S
C87    C353    1.416   1_556 S
C88    C89     1.406   .     S
C89    H56     1.140   .     S
C89    C355    1.405   1_556 D
C90    C91     1.409   .     S
C90    H57     1.140   .     S
C90    C508    1.413   .     D
C91    C92     1.398   .     S
C91    C93     1.408   .     D
C92    N10     1.356   .     D
C92    C510    1.407   .     S
C93    H58     1.140   .     S
C93    C94     1.411   .     S
C94    C95     1.406   .     D
C94    H59     1.140   .     S
C95    N10     1.349   .     S
C95    C514    1.423   1_455 S
C96    C2078   1.402   .     S
C96    C97     1.397   .     D
C96    C513    1.423   1_655 S
C97    H60     1.140   .     S
C97    C2075   1.389   .     S
C98    C2456   1.353   .     S
C98    N332    1.308   .     D
C98    H1560   1.140   .     S
C99    H61     1.140   .     S
C99    C2073   1.389   .     D
C99    C100    1.405   1_554 S
C100   C101    1.405   .     D
C100   C2948   1.353   .     S
C100   C99     1.405   1_556 S
C101   C102    1.403   .     S
C101   H62     1.140   .     S
C102   C2072   1.402   .     D
C102   H63     1.140   .     S
N9     Cu13    1.915   1_556 S
N10    Cu36    1.896   1_455 S
N11    C106    1.433   .     S
N11    C1369   1.297   .     D
C103   C104    1.405   .     S
C103   C108    1.403   .     D
C103   N415    1.441   .     S
C104   C105    1.399   .     D
C104   H64     1.140   .     S
C105   H65     1.140   .     S
C105   C106    1.407   .     S
C106   C107    1.398   .     D
C107   H66     1.140   .     S
C107   C108    1.393   .     S
C108   H67     1.140   .     S
C109   C110    1.404   .     D
C109   N429    1.445   .     S
C109   C114    1.407   .     S
C110   C111    1.390   .     S
C110   H68     1.140   .     S
C111   C112    1.396   .     D
C111   H69     1.140   .     S
C112   C113    1.407   .     S
C112   N52     1.431   .     S
C113   C114    1.403   .     D
C113   H70     1.140   .     S
C114   H71     1.140   .     S
N12    C492    1.431   .     S
N12    C3442   1.308   .     D
F5     B3      1.417   .     S
F6     B3      1.416   .     S
H72    C2948   1.140   .     S
C115   H73     1.140   .     S
C115   N99     1.297   .     D
C115   C2436   1.470   .     S
C116   C117    1.397   .     D
C116   C121    1.401   .     S
C116   H74     1.140   .     S
C117   H75     1.140   .     S
C117   C118    1.401   1_455 S
C118   C119    1.405   .     D
C118   C2927   1.470   .     S
C118   C117    1.401   1_655 S
C119   C120    1.395   .     S
C119   H76     1.139   .     S
C120   H77     1.140   .     S
C120   C121    1.404   1_655 D
C121   C388    1.474   .     S
C121   C120    1.404   1_455 D
C122   C387    1.474   .     S
C122   C123    1.406   .     D
C122   N13     1.361   .     S
C123   C124    1.403   .     S
C123   H78     1.140   .     S
C124   H79     1.140   .     S
C124   C126    1.402   .     D
C125   C126    1.404   .     S
C125   N13     1.363   .     D
C125   C315    1.416   .     S
C126   C127    1.406   .     S
C127   H80     1.140   .     S
C127   C317    1.405   .     D
C128   C129    1.409   .     S
C128   H81     1.140   .     S
C128   C470    1.413   .     D
C129   C130    1.398   .     S
C129   C131    1.408   .     D
C130   N14     1.356   .     D
C130   C472    1.407   .     S
C131   H82     1.140   .     S
C131   C132    1.411   .     S
C132   H83     1.140   .     S
C132   C133    1.406   .     D
C133   N14     1.349   .     S
C133   C476    1.423   1_455 S
C134   C2116   1.402   .     S
C134   C135    1.397   .     D
C134   C475    1.423   1_655 S
C135   C2113   1.389   .     S
C135   H84     1.140   .     S
C136   C2494   1.353   .     S
C136   H1584   1.140   .     S
C136   N336    1.308   .     D
C137   H85     1.140   .     S
C137   C2111   1.389   .     D
C137   C138    1.405   .     S
C138   C2910   1.353   .     S
C138   C139    1.405   .     D
C139   C140    1.403   .     S
C139   H86     1.140   .     S
C140   C2110   1.402   .     D
C140   H87     1.140   .     S
N13    Cu14    1.915   .     S
N14    Cu35    1.896   1_455 S
N15    C1407   1.297   .     D
N15    C144    1.433   .     S
C141   C146    1.403   .     S
C141   N416    1.441   .     S
C141   C142    1.405   .     D
C142   C143    1.399   .     S
C142   H88     1.140   .     S
C143   H89     1.140   .     S
C143   C144    1.407   .     D
C144   C145    1.398   .     S
C145   C146    1.393   .     D
C145   H90     1.140   .     S
C146   H91     1.140   .     S
C147   C148    1.404   .     D
C147   N420    1.445   .     S
C147   C152    1.407   .     S
C148   C149    1.390   .     S
C148   H92     1.140   .     S
C149   H93     1.140   .     S
C149   C150    1.396   .     D
C150   C151    1.407   .     S
C150   N56     1.431   .     S
C151   C152    1.403   .     D
C151   H94     1.140   1_565 S
C152   H95     1.140   .     S
N16    C530    1.431   .     S
N16    C3480   1.308   1_545 D
H94    C151    1.140   1_545 S
F7     B37     1.417   .     S
F8     B37     1.416   .     S
H96    C2910   1.140   .     S
C153   H97     1.140   .     S
C153   N79     1.297   .     D
C153   C2854   1.470   .     S
C154   H98     1.140   .     S
C154   C155    1.397   .     S
C154   C159    1.401   .     D
C155   C156    1.401   .     D
C155   H99     1.140   .     S
C156   C2661   1.470   .     S
C156   C157    1.405   .     S
C157   C158    1.395   .     D
C157   H100    1.139   .     S
C158   C159    1.404   .     S
C158   H101    1.140   .     S
C159   C502    1.474   .     S
C160   C161    1.406   .     D
C160   C501    1.474   .     S
C160   N17     1.361   .     S
C161   H102    1.140   .     S
C161   C162    1.403   .     S
C162   H103    1.140   .     S
C162   C164    1.402   .     D
C163   N17     1.363   .     D
C163   C164    1.404   .     S
C163   C581    1.416   1_456 S
C164   C165    1.406   .     S
C165   H104    1.140   .     S
C165   C583    1.405   1_456 D
C166   C167    1.409   .     S
C166   H105    1.140   .     S
C166   C432    1.413   .     D
C167   C169    1.408   .     D
C167   C168    1.398   .     S
C168   N18     1.356   .     D
C168   C434    1.407   .     S
C169   H106    1.140   .     S
C169   C170    1.411   .     S
C170   C171    1.406   .     D
C170   H107    1.140   .     S
C171   N18     1.349   .     S
C171   C438    1.423   .     S
C172   C1850   1.402   .     D
C172   C437    1.423   .     S
C172   C173    1.397   .     S
C173   C1847   1.389   .     D
C173   H108    1.140   .     S
C174   C2836   1.353   .     S
C174   H1800   1.140   .     S
C174   N372    1.308   .     D
C175   H109    1.140   .     S
C175   C1845   1.389   .     D
C175   C176    1.405   1_554 S
C176   C177    1.405   .     D
C176   C2720   1.353   .     S
C176   C175    1.405   1_556 S
C177   C178    1.403   .     S
C177   H110    1.140   .     S
C178   C1844   1.402   .     D
C178   H111    1.140   .     S
N17    Cu16    1.915   1_556 S
N18    Cu33    1.896   .     S
N19    C182    1.433   .     S
N19    C1597   1.297   .     D
C179   C180    1.405   .     D
C179   C184    1.403   .     S
C179   N409    1.441   .     S
C180   C181    1.399   .     S
C180   H112    1.140   .     S
C181   H113    1.140   .     S
C181   C182    1.407   .     D
C182   C183    1.398   .     S
C183   H114    1.140   .     S
C183   C184    1.393   .     D
C184   H115    1.140   .     S
C185   N431    1.445   .     S
C185   C186    1.404   .     D
C185   C190    1.407   .     S
C186   C187    1.390   .     S
C186   H116    1.140   .     S
C187   C188    1.396   .     D
C187   H117    1.140   .     S
C188   C189    1.407   .     S
C188   N44     1.431   .     S
C189   C190    1.403   .     D
C189   H118    1.140   1_545 S
C190   H119    1.140   .     S
N20    C416    1.431   .     S
N20    C3214   1.308   1_565 D
H118   C189    1.140   1_565 S
F9     B4      1.417   .     S
F10    B4      1.416   .     S
H120   C2720   1.140   .     S
C191   H121    1.140   .     S
C191   N75     1.297   .     D
C191   C2816   1.470   .     S
C192   C193    1.397   .     S
C192   C197    1.401   .     D
C192   H122    1.140   .     S
C193   C194    1.401   .     D
C193   H123    1.140   .     S
C194   C195    1.405   .     S
C194   C2699   1.470   .     S
C195   C196    1.395   .     D
C195   H124    1.139   .     S
C196   H125    1.140   .     S
C196   C197    1.404   .     S
C197   C464    1.474   .     S
C198   C199    1.406   .     D
C198   C463    1.474   .     S
C198   N21     1.361   .     S
C199   H126    1.140   .     S
C199   C200    1.403   .     S
C200   H127    1.140   .     S
C200   C202    1.402   .     D
C201   N21     1.363   .     D
C201   C202    1.404   .     S
C201   C543    1.416   1_455 S
C202   C203    1.406   .     S
C203   H128    1.140   .     S
C203   C545    1.405   1_455 D
C204   C205    1.409   .     S
C204   H129    1.140   .     S
C204   C394    1.413   .     D
C205   C207    1.408   .     D
C205   C206    1.398   .     S
C206   N22     1.356   .     D
C206   C396    1.407   .     S
C207   H130    1.140   .     S
C207   C208    1.411   .     S
C208   H131    1.140   .     S
C208   C209    1.406   .     D
C209   N22     1.349   .     S
C209   C400    1.423   .     S
C210   C1888   1.402   .     D
C210   C399    1.423   .     S
C210   C211    1.397   .     S
C211   C1885   1.389   .     D
C211   H132    1.140   .     S
C212   N376    1.308   .     D
C212   C2874   1.353   .     S
C212   H1824   1.140   .     S
C213   C1883   1.389   .     D
C213   H133    1.140   .     S
C213   C214    1.405   .     S
C214   C215    1.405   .     D
C214   C2682   1.353   .     S
C215   H134    1.140   .     S
C215   C216    1.403   .     S
C216   C1882   1.402   .     D
C216   H135    1.140   .     S
N21    Cu15    1.915   .     S
N22    Cu34    1.896   .     S
N23    C220    1.433   .     S
N23    C1635   1.297   .     D
C217   C222    1.403   .     D
C217   N410    1.441   .     S
C217   C218    1.405   .     S
C218   C219    1.399   .     D
C218   H136    1.140   .     S
C219   H137    1.140   .     S
C219   C220    1.407   .     S
C220   C221    1.398   .     D
C221   H138    1.140   .     S
C221   C222    1.393   .     S
C222   H139    1.140   .     S
C223   C228    1.407   .     S
C223   N417    1.445   .     S
C223   C224    1.404   .     D
C224   H140    1.140   .     S
C224   C225    1.390   .     S
C225   C226    1.396   .     D
C225   H141    1.140   .     S
C226   C227    1.407   .     S
C226   N48     1.431   .     S
C227   C228    1.403   .     D
C227   H142    1.140   .     S
C228   H143    1.140   .     S
N24    C454    1.431   .     S
N24    C3252   1.308   .     D
F11    B40     1.417   .     S
F12    B40     1.416   .     S
H144   C2682   1.140   .     S
C229   N71     1.297   .     D
C229   H145    1.140   .     S
C229   C2778   1.470   .     S
C230   C231    1.397   .     D
C230   C235    1.401   .     S
C230   H146    1.140   .     S
C231   H147    1.140   .     S
C231   C232    1.401   1_655 S
C232   C2585   1.470   .     S
C232   C233    1.405   .     D
C232   C231    1.401   1_455 S
C233   C234    1.395   .     S
C233   H148    1.139   .     S
C234   H149    1.140   .     S
C234   C235    1.404   1_455 D
C235   C578    1.474   .     S
C235   C234    1.404   1_655 D
C236   C237    1.406   .     D
C236   C577    1.474   .     S
C236   N25     1.361   .     S
C237   H150    1.140   .     S
C237   C238    1.403   .     S
C238   H151    1.140   .     S
C238   C240    1.402   .     D
C239   N25     1.363   .     D
C239   C240    1.404   .     S
C239   C505    1.416   .     S
C240   C241    1.406   .     S
C241   H152    1.140   .     S
C241   C507    1.405   .     D
C242   C243    1.409   .     S
C242   H153    1.140   .     S
C242   C356    1.413   .     D
C243   C244    1.398   .     S
C243   C245    1.408   .     D
C244   N26     1.356   .     D
C244   C358    1.407   .     S
C245   C246    1.411   .     S
C245   H154    1.140   .     S
C246   C247    1.406   .     D
C246   H155    1.140   .     S
C247   N26     1.349   .     S
C247   C362    1.423   1_655 S
C248   C1926   1.402   .     D
C248   C249    1.397   .     S
C248   C361    1.423   1_455 S
C249   H156    1.140   .     S
C249   C1923   1.389   .     D
C250   C2760   1.353   .     S
C250   N380    1.308   .     D
C250   H1752   1.140   .     S
C251   H157    1.140   .     S
C251   C1921   1.389   .     D
C251   C252    1.405   .     S
C252   C253    1.405   .     D
C252   C2644   1.353   .     S
C253   H158    1.140   .     S
C253   C254    1.403   .     S
C254   C1920   1.402   .     D
C254   H159    1.140   .     S
N25    Cu9     1.915   .     S
N26    Cu40    1.896   1_655 S
N27    C258    1.433   .     S
N27    C1521   1.297   .     D
C255   C260    1.403   .     D
C255   N411    1.441   .     S
C255   C256    1.405   .     S
C256   C257    1.399   .     D
C256   H160    1.140   .     S
C257   H161    1.140   .     S
C257   C258    1.407   .     S
C258   C259    1.398   .     D
C259   H162    1.140   .     S
C259   C260    1.393   .     S
C260   H163    1.140   .     S
C261   N425    1.445   .     S
C261   C262    1.404   .     D
C261   C266    1.407   .     S
C262   C263    1.390   .     S
C262   H164    1.140   .     S
C263   H165    1.140   .     S
C263   C264    1.396   .     D
C264   C265    1.407   .     S
C264   N36     1.431   .     S
C265   C266    1.403   .     D
C265   H166    1.140   1_545 S
C266   H167    1.140   .     S
N28    C340    1.431   .     S
N28    C3290   1.308   1_565 D
H166   C265    1.140   1_565 S
F13    B5      1.417   .     S
F14    B5      1.416   .     S
H168   C2644   1.140   .     S
C267   N67     1.297   .     D
C267   H169    1.140   .     S
C267   C2740   1.470   .     S
C268   H170    1.140   .     S
C268   C273    1.401   .     S
C268   C269    1.397   .     D
C269   H171    1.140   .     S
C269   C270    1.401   1_655 S
C270   C271    1.405   .     D
C270   C2623   1.470   .     S
C270   C269    1.401   1_455 S
C271   C272    1.395   .     S
C271   H172    1.139   .     S
C272   H173    1.140   .     S
C272   C273    1.404   1_455 D
C273   C540    1.474   .     S
C273   C272    1.404   1_655 D
C274   C275    1.406   .     D
C274   C539    1.474   .     S
C274   N29     1.361   .     S
C275   H174    1.140   .     S
C275   C276    1.403   .     S
C276   H175    1.140   .     S
C276   C278    1.402   .     D
C277   N29     1.363   .     D
C277   C278    1.404   .     S
C277   C467    1.416   1_556 S
C278   C279    1.406   .     S
C279   H176    1.140   .     S
C279   C469    1.405   1_556 D
C280   C281    1.409   .     S
C280   H177    1.140   .     S
C280   C318    1.413   .     D
C281   C282    1.398   .     S
C281   C283    1.408   .     D
C282   N30     1.356   .     D
C282   C320    1.407   .     S
C283   C284    1.411   .     S
C283   H178    1.140   .     S
C284   H179    1.140   .     S
C284   C285    1.406   .     D
C285   N30     1.349   .     S
C285   C324    1.423   1_655 S
C286   C1964   1.402   .     D
C286   C287    1.397   .     S
C286   C323    1.423   1_455 S
C287   H180    1.140   .     S
C287   C1961   1.389   .     D
C288   C2798   1.353   .     S
C288   H1776   1.140   .     S
C288   N384    1.308   .     D
C289   C1959   1.389   .     D
C289   H181    1.140   .     S
C289   C290    1.405   1_554 S
C290   C291    1.405   .     D
C290   C2606   1.353   .     S
C290   C289    1.405   1_556 S
C291   C292    1.403   .     S
C291   H182    1.140   .     S
C292   C1958   1.402   .     D
C292   H183    1.140   .     S
N29    Cu10    1.915   1_556 S
N30    Cu39    1.896   1_655 S
N31    C296    1.433   .     S
N31    C1559   1.297   .     D
C293   C294    1.405   .     D
C293   C298    1.403   .     S
C293   N412    1.441   .     S
C294   C295    1.399   .     S
C294   H184    1.140   .     S
C295   H185    1.140   .     S
C295   C296    1.407   .     D
C296   C297    1.398   .     S
C297   H186    1.140   .     S
C297   C298    1.393   .     D
C298   H187    1.140   .     S
C299   C304    1.407   .     S
C299   N424    1.445   .     S
C299   C300    1.404   .     D
C300   C301    1.390   .     S
C300   H188    1.140   .     S
C301   C302    1.396   .     D
C301   H189    1.140   .     S
C302   C303    1.407   .     S
C302   N40     1.431   .     S
C303   C304    1.403   .     D
C303   H190    1.140   .     S
C304   H191    1.140   .     S
N32    C3328   1.308   .     D
N32    C378    1.431   .     S
F15    B41     1.417   .     S
F16    B41     1.416   .     S
H192   C2606   1.140   .     S
C305   N95     1.297   .     D
C305   H193    1.140   .     S
C305   C2702   1.470   .     S
C306   C307    1.397   .     S
C306   H194    1.140   .     S
C306   C311    1.401   .     D
C307   H195    1.140   .     S
C307   C308    1.401   1_655 D
C308   C2813   1.470   .     S
C308   C309    1.405   .     S
C308   C307    1.401   1_455 D
C309   H196    1.139   .     S
C309   C310    1.395   .     D
C310   H197    1.140   .     S
C310   C311    1.404   1_455 S
C311   C310    1.404   1_655 S
C312   N33     1.361   .     D
C312   C313    1.406   .     S
C313   H198    1.140   .     S
C313   C314    1.403   .     D
C314   C316    1.402   .     S
C314   H199    1.140   .     S
C315   C316    1.404   .     D
C315   N33     1.363   .     S
C316   C317    1.406   .     S
C317   H200    1.140   .     S
C318   C319    1.409   .     S
C318   H201    1.140   .     S
C319   C320    1.398   .     D
C319   C321    1.408   .     S
C320   N34     1.356   .     S
C321   C322    1.411   .     D
C321   H202    1.140   .     S
C322   H203    1.140   .     S
C322   C323    1.406   .     S
C323   N34     1.349   .     D
C323   C286    1.423   1_655 S
C324   C2154   1.402   .     S
C324   C325    1.397   .     D
C324   C285    1.423   1_455 S
C325   C2151   1.389   .     S
C325   H204    1.140   .     S
C326   H1704   1.140   .     S
C326   N356    1.308   .     D
C326   C2684   1.353   .     S
C327   H205    1.140   .     S
C327   C2149   1.389   .     S
C327   C328    1.405   .     D
C328   C2872   1.353   .     S
C328   C329    1.405   .     S
C329   C330    1.403   .     D
C329   H206    1.140   .     S
C330   H207    1.140   .     S
C330   C2148   1.402   .     S
N33    Cu14    1.915   .     S
N34    Cu39    1.896   1_655 S
N35    C1293   1.297   .     D
N35    C334    1.433   .     S
C331   C332    1.405   .     D
C331   C336    1.403   .     S
C331   N401    1.441   .     S
C332   H208    1.140   .     S
C332   C333    1.399   .     S
C333   H209    1.140   .     S
C333   C334    1.407   .     D
C334   C335    1.398   .     S
C335   C336    1.393   .     D
C335   H210    1.140   .     S
C336   H211    1.140   .     S
C337   N428    1.445   .     S
C337   C338    1.404   .     D
C337   C342    1.407   .     S
C338   C339    1.390   .     S
C338   H212    1.140   .     S
C339   H213    1.140   .     S
C339   C340    1.396   .     D
C340   C341    1.407   .     S
C341   C342    1.403   .     D
C341   H214    1.140   1_565 S
C342   H215    1.140   .     S
N36    C3062   1.308   1_545 D
H214   C341    1.140   1_545 S
F17    B6      1.417   .     S
F18    B6      1.416   .     S
H216   C2872   1.140   .     S
C343   N91     1.297   .     D
C343   H217    1.140   .     S
C343   C2664   1.470   .     S
C344   C345    1.397   .     S
C344   C349    1.401   .     D
C344   H218    1.140   .     S
C345   H219    1.140   .     S
C345   C346    1.401   1_655 D
C346   C347    1.405   .     S
C346   C2851   1.470   .     S
C346   C345    1.401   1_455 D
C347   C348    1.395   .     D
C347   H220    1.139   .     S
C348   H221    1.140   .     S
C348   C349    1.404   1_455 S
C349   C348    1.404   1_655 S
C350   N37     1.361   .     D
C350   C351    1.406   .     S
C351   H222    1.140   .     S
C351   C352    1.403   .     D
C352   C354    1.402   .     S
C352   H223    1.140   .     S
C353   C354    1.404   .     D
C353   N37     1.363   .     S
C353   C87     1.416   1_554 S
C354   C355    1.406   .     S
C355   H224    1.140   .     S
C355   C89     1.405   1_554 D
C356   C357    1.409   .     S
C356   H225    1.140   .     S
C357   C358    1.398   .     D
C357   C359    1.408   .     S
C358   N38     1.356   .     S
C359   C360    1.411   .     D
C359   H226    1.140   .     S
C360   H227    1.140   .     S
C360   C361    1.406   .     S
C361   N38     1.349   .     D
C361   C248    1.423   1_655 S
C362   C2192   1.402   .     S
C362   C363    1.397   .     D
C362   C247    1.423   1_455 S
C363   H228    1.140   .     S
C363   C2189   1.389   .     S
C364   C2722   1.353   .     S
C364   H1728   1.140   .     S
C364   N360    1.308   .     D
C365   H229    1.140   .     S
C365   C2187   1.389   .     D
C365   C366    1.405   1_556 S
C366   C367    1.405   .     D
C366   C2834   1.353   .     S
C366   C365    1.405   1_554 S
C367   C368    1.403   .     S
C367   H230    1.140   .     S
C368   C2186   1.402   .     D
C368   H231    1.140   .     S
N37    Cu13    1.915   .     S
N38    Cu40    1.896   1_655 S
N39    C1331   1.297   .     D
N39    C372    1.433   .     S
C369   C370    1.405   .     D
C369   C374    1.403   .     S
C369   N402    1.441   .     S
C370   C371    1.399   .     S
C370   H232    1.140   .     S
C371   C372    1.407   .     D
C371   H233    1.140   .     S
C372   C373    1.398   .     S
C373   H234    1.140   .     S
C373   C374    1.393   .     D
C374   H235    1.140   .     S
C375   N423    1.445   .     S
C375   C376    1.404   .     D
C375   C380    1.407   .     S
C376   C377    1.390   .     S
C376   H236    1.140   .     S
C377   H237    1.140   .     S
C377   C378    1.396   .     D
C378   C379    1.407   .     S
C379   H238    1.140   .     S
C379   C380    1.403   .     D
C380   H239    1.140   .     S
N40    C3100   1.308   .     D
F19    B35     1.417   .     S
F20    B35     1.416   .     S
H240   C2834   1.140   .     S
C381   H241    1.140   .     S
C381   N87     1.297   .     D
C381   C2626   1.470   .     S
C382   C383    1.397   .     S
C382   C387    1.401   .     D
C382   H242    1.140   .     S
C383   C384    1.401   .     D
C383   H243    1.140   .     S
C384   C385    1.405   .     S
C384   C2737   1.470   .     S
C385   C386    1.395   .     D
C385   H244    1.139   .     S
C386   H245    1.140   .     S
C386   C387    1.404   .     S
C388   N41     1.361   .     D
C388   C389    1.406   .     S
C389   H246    1.140   .     S
C389   C390    1.403   .     D
C390   C392    1.402   .     S
C390   H247    1.140   .     S
C391   C392    1.404   .     D
C391   N41     1.363   .     S
C391   C49     1.416   1_454 S
C392   C393    1.406   .     S
C393   H248    1.140   .     S
C393   C51     1.405   1_454 D
C394   C395    1.409   .     S
C394   H249    1.140   .     S
C395   C396    1.398   .     D
C395   C397    1.408   .     S
C396   N42     1.356   .     S
C397   H250    1.140   .     S
C397   C398    1.411   .     D
C398   H251    1.140   .     S
C398   C399    1.406   .     S
C399   N42     1.349   .     D
C400   C2230   1.402   .     S
C400   C401    1.397   .     D
C401   C2227   1.389   .     S
C401   H252    1.140   .     S
C402   C2608   1.353   .     S
C402   H1656   1.140   .     S
C402   N364    1.308   .     D
C403   H253    1.140   .     S
C403   C2225   1.389   .     D
C403   C404    1.405   1_556 S
C404   C2796   1.353   .     S
C404   C405    1.405   .     D
C404   C403    1.405   1_554 S
C405   C406    1.403   .     S
C405   H254    1.140   .     S
C406   C2224   1.402   .     D
C406   H255    1.140   .     S
N41    Cu11    1.915   .     S
N42    Cu34    1.896   .     S
N43    C1217   1.297   .     D
N43    C410    1.433   .     S
C407   C408    1.405   .     D
C407   C412    1.403   .     S
C407   N403    1.441   .     S
C408   C409    1.399   .     S
C408   H256    1.140   .     S
C409   C410    1.407   .     D
C409   H257    1.140   .     S
C410   C411    1.398   .     S
C411   H258    1.140   .     S
C411   C412    1.393   .     D
C412   H259    1.140   .     S
C413   N427    1.445   .     S
C413   C414    1.404   .     D
C413   C418    1.407   .     S
C414   C415    1.390   .     S
C414   H260    1.140   .     S
C415   H261    1.140   .     S
C415   C416    1.396   .     D
C416   C417    1.407   .     S
C417   C418    1.403   .     D
C417   H262    1.140   1_565 S
C418   H263    1.140   .     S
N44    C3138   1.308   1_545 D
H262   C417    1.140   1_545 S
F21    B7      1.417   .     S
F22    B7      1.416   .     S
H264   C2796   1.140   .     S
C419   H265    1.140   .     S
C419   N83     1.297   .     D
C419   C2588   1.470   .     S
C420   C421    1.397   .     S
C420   H266    1.140   .     S
C420   C425    1.401   .     D
C421   C422    1.401   .     D
C421   H267    1.140   .     S
C422   C2775   1.470   .     S
C422   C423    1.405   .     S
C423   H268    1.139   .     S
C423   C424    1.395   .     D
C424   C425    1.404   .     S
C424   H269    1.140   .     S
C426   N45     1.361   .     D
C426   C427    1.406   .     S
C427   H270    1.140   .     S
C427   C428    1.403   .     D
C428   C430    1.402   .     S
C428   H271    1.140   .     S
C429   C430    1.404   .     D
C429   N45     1.363   .     S
C429   C11     1.416   1_455 S
C430   C431    1.406   .     S
C431   H272    1.140   .     S
C431   C13     1.405   1_455 D
C432   C433    1.409   .     S
C432   H273    1.140   .     S
C433   C434    1.398   .     D
C433   C435    1.408   .     S
C434   N46     1.356   .     S
C435   H274    1.140   .     S
C435   C436    1.411   .     D
C436   C437    1.406   .     S
C436   H275    1.140   .     S
C437   N46     1.349   .     D
C438   C2268   1.402   .     S
C438   C439    1.397   .     D
C439   C2265   1.389   .     S
C439   H276    1.140   .     S
C440   H1680   1.140   .     S
C440   N368    1.308   .     D
C440   C2646   1.353   .     S
C441   C442    1.405   .     D
C441   H277    1.140   .     S
C441   C2263   1.389   .     S
C442   C2758   1.353   .     S
C442   C443    1.405   .     S
C443   C444    1.403   .     D
C443   H278    1.140   .     S
C444   H279    1.140   .     S
C444   C2262   1.402   .     S
N45    Cu12    1.915   .     S
N46    Cu33    1.896   .     S
N47    C1255   1.297   .     D
N47    C448    1.433   .     S
C445   C446    1.405   .     D
C445   C450    1.403   .     S
C445   N404    1.441   .     S
C446   H280    1.140   .     S
C446   C447    1.399   .     S
C447   H281    1.140   .     S
C447   C448    1.407   .     D
C448   C449    1.398   .     S
C449   H282    1.140   .     S
C449   C450    1.393   .     D
C450   H283    1.140   .     S
C451   N426    1.445   .     S
C451   C452    1.404   .     D
C451   C456    1.407   .     S
C452   C453    1.390   .     S
C452   H284    1.140   .     S
C453   H285    1.140   .     S
C453   C454    1.396   .     D
C454   C455    1.407   .     S
C455   H286    1.140   .     S
C455   C456    1.403   .     D
C456   H287    1.140   .     S
N48    C3176   1.308   .     D
F23    B36     1.417   .     S
F24    B36     1.416   .     S
H288   C2758   1.140   .     S
C457   H289    1.140   .     S
C457   N127    1.297   .     D
C457   C3006   1.470   .     S
C458   C459    1.397   .     D
C458   C463    1.401   .     S
C458   H290    1.140   .     S
C459   H291    1.140   .     S
C459   C460    1.401   1_455 S
C460   C461    1.405   .     D
C460   C2509   1.470   .     S
C460   C459    1.401   1_655 S
C461   C462    1.395   .     S
C461   H292    1.139   .     S
C462   H293    1.140   .     S
C462   C463    1.404   1_655 D
C463   C462    1.404   1_455 D
C464   N49     1.361   .     D
C464   C465    1.406   .     S
C465   H294    1.140   .     S
C465   C466    1.403   .     D
C466   C468    1.402   .     S
C466   H295    1.140   .     S
C467   N49     1.363   .     S
C467   C468    1.404   .     D
C467   C277    1.416   1_554 S
C468   C469    1.406   .     S
C469   H296    1.140   .     S
C469   C279    1.405   1_554 D
C470   C471    1.409   .     S
C470   H297    1.140   .     S
C471   C472    1.398   .     D
C471   C473    1.408   .     S
C472   N50     1.356   .     S
C473   H298    1.140   .     S
C473   C474    1.411   .     D
C474   H299    1.140   .     S
C474   C475    1.406   .     S
C475   N50     1.349   .     D
C475   C134    1.423   1_455 S
C476   C2306   1.402   .     S
C476   C477    1.397   .     D
C476   C133    1.423   1_655 S
C477   H300    1.140   .     S
C477   C2303   1.389   .     S
C478   N340    1.308   .     D
C478   C2988   1.353   .     S
C478   H1896   1.140   .     S
C479   C2301   1.389   .     D
C479   H301    1.140   .     S
C479   C480    1.405   1_556 S
C480   C481    1.405   .     D
C480   C2568   1.353   .     S
C480   C479    1.405   1_554 S
C481   H302    1.140   .     S
C481   C482    1.403   .     S
C482   C2300   1.402   .     D
C482   H303    1.140   .     S
N49    Cu10    1.915   .     S
N50    Cu35    1.896   1_455 S
N51    C1749   1.297   .     D
N51    C486    1.433   .     S
C483   C484    1.405   .     D
C483   N405    1.441   .     S
C483   C488    1.403   .     S
C484   C485    1.399   .     S
C484   H304    1.140   .     S
C485   C486    1.407   .     D
C485   H305    1.140   .     S
C486   C487    1.398   .     S
C487   H306    1.140   .     S
C487   C488    1.393   .     D
C488   H307    1.140   .     S
C489   C494    1.407   .     D
C489   C490    1.404   .     S
C489   N432    1.445   .     S
C490   H308    1.140   .     S
C490   C491    1.390   .     D
C491   C492    1.396   .     S
C491   H309    1.140   .     S
C492   C493    1.407   .     D
C493   C494    1.403   .     S
C493   H310    1.140   .     S
C494   H311    1.140   .     S
N52    C3518   1.308   .     D
F25    B8      1.417   .     S
F26    B8      1.416   .     S
H312   C2568   1.140   .     S
C495   H313    1.140   .     S
C495   N123    1.297   .     D
C495   C2968   1.470   .     S
C496   C497    1.397   .     D
C496   C501    1.401   .     S
C496   H314    1.140   .     S
C497   H315    1.140   .     S
C497   C498    1.401   1_455 S
C498   C2547   1.470   .     S
C498   C499    1.405   .     D
C498   C497    1.401   1_655 S
C499   H316    1.139   .     S
C499   C500    1.395   .     S
C500   H317    1.140   .     S
C500   C501    1.404   1_655 D
C501   C500    1.404   1_455 D
C502   N53     1.361   .     D
C502   C503    1.406   .     S
C503   H318    1.140   .     S
C503   C504    1.403   .     D
C504   C506    1.402   .     S
C504   H319    1.140   .     S
C505   N53     1.363   .     S
C505   C506    1.404   .     D
C506   C507    1.406   .     S
C507   H320    1.140   .     S
C508   C509    1.409   .     S
C508   H321    1.140   .     S
C509   C511    1.408   .     S
C509   C510    1.398   .     D
C510   N54     1.356   .     S
C511   H322    1.140   .     S
C511   C512    1.411   .     D
C512   C513    1.406   .     S
C512   H323    1.140   .     S
C513   N54     1.349   .     D
C513   C96     1.423   1_455 S
C514   C2344   1.402   .     S
C514   C515    1.397   .     D
C514   C95     1.423   1_655 S
C515   H324    1.140   .     S
C515   C2341   1.389   .     S
C516   N344    1.308   .     D
C516   H1920   1.140   .     S
C516   C3026   1.353   .     S
C517   C518    1.405   .     D
C517   H325    1.140   .     S
C517   C2339   1.389   .     S
C518   C2530   1.353   .     S
C518   C519    1.405   .     S
C519   H326    1.140   .     S
C519   C520    1.403   .     D
C520   H327    1.140   .     S
C520   C2338   1.402   .     S
N53    Cu9     1.915   .     S
N54    Cu36    1.896   1_455 S
N55    C1787   1.297   .     D
N55    C524    1.433   .     S
C521   C522    1.405   .     D
C521   C526    1.403   .     S
C521   N406    1.441   .     S
C522   H328    1.140   .     S
C522   C523    1.399   .     S
C523   H329    1.140   .     S
C523   C524    1.407   .     D
C524   C525    1.398   .     S
C525   H330    1.140   .     S
C525   C526    1.393   .     D
C526   H331    1.140   .     S
C527   C528    1.404   .     D
C527   N421    1.445   .     S
C527   C532    1.407   .     S
C528   C529    1.390   .     S
C528   H332    1.140   .     S
C529   H333    1.140   .     S
C529   C530    1.396   .     D
C530   C531    1.407   .     S
C531   C532    1.403   .     D
C531   H334    1.140   1_545 S
C532   H335    1.140   .     S
N56    C3556   1.308   1_565 D
H334   C531    1.140   1_565 S
F27    B38     1.417   .     S
F28    B38     1.416   .     S
H336   C2530   1.140   .     S
C533   H337    1.140   .     S
C533   N119    1.297   .     D
C533   C2930   1.470   .     S
C534   C535    1.397   .     S
C534   H338    1.140   .     S
C534   C539    1.401   .     D
C535   C536    1.401   .     D
C535   H339    1.140   .     S
C536   C2433   1.470   .     S
C536   C537    1.405   .     S
C537   H340    1.139   .     S
C537   C538    1.395   .     D
C538   C539    1.404   .     S
C538   H341    1.140   .     S
C540   N57     1.361   .     D
C540   C541    1.406   .     S
C541   H342    1.140   .     S
C541   C542    1.403   .     D
C542   C544    1.402   .     S
C542   H343    1.140   .     S
C543   N57     1.363   .     S
C543   C544    1.404   .     D
C543   C201    1.416   1_655 S
C544   C545    1.406   .     S
C545   H344    1.140   .     S
C545   C203    1.405   1_655 D
C546   C547    1.409   .     S
C546   H345    1.140   .     S
C547   C549    1.408   .     D
C547   C548    1.398   .     S
C548   N58     1.356   .     D
C549   H346    1.140   .     S
C549   C550    1.411   .     S
C550   H347    1.140   .     S
C550   C551    1.406   .     D
C551   N58     1.349   .     S
C552   C2382   1.402   .     D
C552   C553    1.397   .     S
C553   H348    1.140   .     S
C553   C2379   1.389   .     D
C554   N348    1.308   .     D
C554   H1848   1.140   .     S
C554   C2912   1.353   .     S
C555   C2377   1.389   .     S
C555   C556    1.405   .     D
C555   H349    1.140   .     S
C556   C2492   1.353   .     S
C556   C557    1.405   .     S
C557   H350    1.140   .     S
C557   C558    1.403   .     D
C558   H351    1.140   .     S
C558   C2376   1.402   .     S
N57    Cu15    1.915   1_655 S
N58    Cu38    1.896   .     S
N59    C1673   1.297   .     D
N59    C562    1.433   .     S
C559   C560    1.405   .     D
C559   C564    1.403   .     S
C559   N407    1.441   .     S
C560   H352    1.140   .     S
C560   C561    1.399   .     S
C561   H353    1.140   .     S
C561   C562    1.407   .     D
C562   C563    1.398   .     S
C563   H354    1.140   .     S
C563   C564    1.393   .     D
C564   H355    1.140   .     S
C565   C570    1.407   .     D
C565   N422    1.445   .     S
C565   C566    1.404   .     S
C566   H356    1.140   .     S
C566   C567    1.390   .     D
C567   C568    1.396   .     S
C567   H357    1.140   .     S
C568   C569    1.407   .     D
C569   C570    1.403   .     S
C569   H358    1.140   .     S
C570   H359    1.140   .     S
N60    C3594   1.308   .     D
F29    B9      1.417   .     S
F30    B9      1.416   .     S
H360   C2492   1.140   .     S
C571   H361    1.140   .     S
C571   N115    1.297   .     D
C571   C2892   1.470   .     S
C572   C573    1.397   .     S
C572   C577    1.401   .     D
C572   H362    1.140   .     S
C573   H363    1.140   .     S
C573   C574    1.401   .     D
C574   C2471   1.470   .     S
C574   C575    1.405   .     S
C575   C576    1.395   .     D
C575   H364    1.139   .     S
C576   C577    1.404   .     S
C576   H365    1.140   .     S
C578   N61     1.361   .     D
C578   C579    1.406   .     S
C579   H366    1.140   .     S
C579   C580    1.403   .     D
C580   C582    1.402   .     S
C580   H367    1.140   .     S
C581   N61     1.363   .     S
C581   C582    1.404   .     D
C581   C163    1.416   1_654 S
C582   C583    1.406   .     S
C583   H368    1.140   .     S
C583   C165    1.405   1_654 D
C584   C585    1.409   .     S
C584   H369    1.140   .     S
C585   C586    1.398   .     S
C585   C587    1.408   .     D
C586   N62     1.356   .     D
C587   H370    1.140   .     S
C587   C588    1.411   .     S
C588   C589    1.406   .     D
C588   H371    1.140   .     S
C589   N62     1.349   .     S
C590   C2420   1.402   .     D
C590   C591    1.397   .     S
C591   H372    1.140   .     S
C591   C2417   1.389   .     D
C592   C2950   1.353   .     S
C592   N352    1.308   .     D
C592   H1872   1.140   .     S
C593   H373    1.140   .     S
C593   C2415   1.389   .     D
C593   C594    1.405   1_556 S
C594   C595    1.405   .     D
C594   C2454   1.353   .     S
C594   C593    1.405   1_554 S
C595   H374    1.140   .     S
C595   C596    1.403   .     S
C596   C2414   1.402   .     D
C596   H375    1.140   .     S
N61    Cu16    1.915   1_655 S
N62    Cu37    1.896   .     S
N63    C1711   1.297   .     D
N63    C600    1.433   .     S
C597   C598    1.405   .     D
C597   N408    1.441   .     S
C597   C602    1.403   .     S
C598   C599    1.399   .     S
C598   H376    1.140   .     S
C599   C600    1.407   .     D
C599   H377    1.140   .     S
C600   C601    1.398   .     S
C601   H378    1.140   .     S
C601   C602    1.393   .     D
C602   H379    1.140   .     S
C603   N430    1.445   .     S
C603   C604    1.404   .     D
C603   C608    1.407   .     S
C604   C605    1.390   .     S
C604   H380    1.140   .     S
C605   H381    1.140   .     S
C605   C606    1.396   .     D
C606   C607    1.407   .     S
C607   C608    1.403   .     D
C607   H382    1.140   1_545 S
C608   H383    1.140   .     S
N64    C3632   1.308   1_565 D
H382   C607    1.140   1_565 S
F31    B39     1.417   .     S
F32    B39     1.416   .     S
H384   C2454   1.140   .     S
C609   H385    1.140   .     S
C609   N167    1.297   .     D
C609   C2322   1.470   .     S
C610   C611    1.397   .     S
C610   H386    1.140   .     S
C610   C615    1.401   .     D
C611   H387    1.140   .     S
C611   C612    1.401   .     D
C612   C613    1.405   .     S
C612   C1939   1.470   .     S
C613   H388    1.139   .     S
C613   C614    1.395   .     D
C614   H389    1.140   .     S
C614   C615    1.404   .     S
C615   C996    1.474   .     S
C616   C995    1.474   .     S
C616   N65     1.361   .     D
C616   C617    1.406   .     S
C617   C618    1.403   .     D
C617   H390    1.140   .     S
C618   C620    1.402   .     S
C618   H391    1.140   .     S
C619   C620    1.404   .     D
C619   N65     1.363   .     S
C619   C961    1.416   1_565 S
C620   C621    1.406   .     S
C621   H392    1.140   .     S
C621   C963    1.405   1_565 D
C622   C623    1.409   .     S
C622   H393    1.140   .     S
C622   C1116   1.413   .     D
C623   C624    1.398   .     D
C623   C625    1.408   .     S
C624   N66     1.356   .     S
C624   C1118   1.407   .     S
C625   H394    1.140   .     S
C625   C626    1.411   .     D
C626   C627    1.406   .     S
C626   H395    1.140   .     S
C627   C1122   1.423   .     S
C627   N66     1.349   .     D
C628   C629    1.397   .     D
C628   C1121   1.423   .     S
C628   C3522   1.402   .     S
C629   H396    1.140   .     S
C629   C3519   1.389   .     S
C630   C2418   1.353   .     S
C630   H1536   1.140   .     S
C630   N276    1.308   .     D
C631   H397    1.140   .     S
C631   C3517   1.389   .     S
C631   C632    1.405   .     D
C632   C633    1.405   .     S
C632   C1884   1.353   .     S
C633   C634    1.403   .     D
C633   H398    1.140   .     S
C634   H399    1.140   .     S
C634   C3516   1.402   .     S
N65    Cu20    1.915   1_565 S
N66    Cu27    1.896   .     S
N67    C638    1.433   .     S
C635   C640    1.403   .     S
C635   C636    1.405   .     D
C635   N409    1.441   .     S
C636   C637    1.399   .     S
C636   H400    1.140   .     S
C637   H401    1.140   .     S
C637   C638    1.407   .     D
C638   C639    1.398   .     S
C639   H402    1.140   .     S
C639   C640    1.393   .     D
C640   H403    1.140   .     S
C641   N423    1.445   .     S
C641   C642    1.404   .     D
C641   C646    1.407   .     S
C642   C643    1.390   .     S
C642   H404    1.140   .     S
C643   H405    1.140   .     S
C643   C644    1.396   .     D
C644   C645    1.407   .     S
C644   N128    1.431   .     S
C645   H406    1.140   .     S
C645   C646    1.403   .     D
C646   H407    1.140   .     S
N68    C1214   1.431   .     S
N68    C2910   1.308   .     D
F33    B10     1.417   .     S
F34    B10     1.416   .     S
H408   C1884   1.140   .     S
C647   H409    1.140   .     S
C647   N163    1.297   .     D
C647   C2284   1.470   .     S
C648   C649    1.397   .     D
C648   H410    1.140   .     S
C648   C653    1.401   .     S
C649   H411    1.140   .     S
C649   C650    1.401   1_545 S
C650   C651    1.405   .     D
C650   C1901   1.470   .     S
C650   C649    1.401   1_565 S
C651   H412    1.139   .     S
C651   C652    1.395   .     S
C652   H413    1.140   .     S
C652   C653    1.404   1_565 D
C653   C1034   1.474   .     S
C653   C652    1.404   1_545 D
C654   C1033   1.474   .     S
C654   N69     1.361   .     S
C654   C655    1.406   .     D
C655   C656    1.403   .     S
C655   H414    1.140   .     S
C656   H415    1.140   .     S
C656   C658    1.402   .     D
C657   C658    1.404   .     S
C657   C923    1.416   .     S
C657   N69     1.363   .     D
C658   C659    1.406   .     S
C659   C925    1.405   .     D
C659   H416    1.140   .     S
C660   C661    1.409   .     S
C660   H417    1.140   .     S
C660   C1078   1.413   .     D
C661   C662    1.398   .     D
C661   C663    1.408   .     S
C662   N70     1.356   .     S
C662   C1080   1.407   .     S
C663   H418    1.140   .     S
C663   C664    1.411   .     D
C664   H419    1.140   .     S
C664   C665    1.406   .     S
C665   N70     1.349   .     D
C665   C1084   1.423   1_545 S
C666   C3560   1.402   .     S
C666   C667    1.397   .     D
C666   C1083   1.423   1_565 S
C667   C3557   1.389   .     S
C667   H420    1.140   .     S
C668   C2380   1.353   .     S
C668   H1512   1.140   .     S
C668   N280    1.308   .     D
C669   H421    1.140   .     S
C669   C3555   1.389   .     S
C669   C670    1.405   .     D
C670   C1846   1.353   .     S
C670   C671    1.405   .     S
C671   C672    1.403   .     D
C671   H422    1.140   .     S
C672   C3554   1.402   .     S
C672   H423    1.140   .     S
N69    Cu22    1.915   .     S
N70    Cu29    1.896   1_545 S
N71    C676    1.433   .     S
C673   C674    1.405   .     D
C673   C678    1.403   .     S
C673   N410    1.441   .     S
C674   C675    1.399   .     S
C674   H424    1.140   .     S
C675   H425    1.140   .     S
C675   C676    1.407   .     D
C676   C677    1.398   .     S
C677   C678    1.393   .     D
C677   H426    1.140   .     S
C678   H427    1.140   .     S
C679   C680    1.404   .     D
C679   N428    1.445   .     S
C679   C684    1.407   .     S
C680   C681    1.390   .     S
C680   H428    1.140   .     S
C681   H429    1.140   .     S
C681   C682    1.396   .     D
C682   C683    1.407   .     S
C682   N124    1.431   .     S
C683   C684    1.403   .     D
C683   H430    1.140   1_556 S
C684   H431    1.140   .     S
N72    C1176   1.431   .     S
N72    C2948   1.308   1_554 D
H430   C683    1.140   1_554 S
F35    B11     1.417   .     S
F36    B11     1.416   .     S
H432   C1846   1.140   .     S
C685   H433    1.140   .     S
C685   N175    1.297   .     D
C685   C2398   1.470   .     S
C686   H434    1.140   .     S
C686   C687    1.397   .     S
C686   C691    1.401   .     D
C687   C688    1.401   .     D
C687   H435    1.140   .     S
C688   C689    1.405   .     S
C688   C1863   1.470   .     S
C689   H436    1.139   .     S
C689   C690    1.395   .     D
C690   H437    1.140   .     S
C690   C691    1.404   .     S
C691   C920    1.474   .     S
C692   C919    1.474   .     S
C692   N73     1.361   .     D
C692   C693    1.406   .     S
C693   C694    1.403   .     D
C693   H438    1.140   .     S
C694   H439    1.140   .     S
C694   C696    1.402   .     S
C695   C696    1.404   .     D
C695   N73     1.363   .     S
C695   C1037   1.416   1_665 S
C696   C697    1.406   .     S
C697   H440    1.140   .     S
C697   C1039   1.405   1_665 D
C698   C699    1.409   .     S
C698   H441    1.140   .     S
C698   C1192   1.413   .     D
C699   C700    1.398   .     D
C699   C701    1.408   .     S
C700   N74     1.356   .     S
C700   C1194   1.407   .     S
C701   H442    1.140   .     S
C701   C702    1.411   .     D
C702   H443    1.140   .     S
C702   C703    1.406   .     S
C703   N74     1.349   .     D
C703   C1198   1.423   .     S
C704   C3598   1.402   .     D
C704   C705    1.397   .     S
C704   C1197   1.423   .     S
C705   C3595   1.389   .     D
C705   H444    1.140   .     S
C706   C2342   1.353   .     S
C706   H1488   1.140   .     S
C706   N284    1.308   .     D
C707   H445    1.140   .     S
C707   C3593   1.389   .     S
C707   C708    1.405   1_455 D
C708   C1960   1.353   .     S
C708   C709    1.405   .     S
C708   C707    1.405   1_655 D
C709   C710    1.403   .     D
C709   H446    1.140   .     S
C710   C3592   1.402   .     S
C710   H447    1.140   .     S
N73    Cu19    1.915   1_665 S
N74    Cu28    1.896   .     S
N75    C714    1.433   .     S
C711   C712    1.405   .     D
C711   C716    1.403   .     S
C711   N411    1.441   .     S
C712   C713    1.399   .     S
C712   H448    1.140   .     S
C713   C714    1.407   .     D
C713   H449    1.140   .     S
C714   C715    1.398   .     S
C715   C716    1.393   .     D
C715   H450    1.140   .     S
C716   H451    1.140   .     S
C717   N426    1.445   .     S
C717   C718    1.404   .     D
C717   C722    1.407   .     S
C718   C719    1.390   .     S
C718   H452    1.140   .     S
C719   H453    1.140   .     S
C719   C720    1.396   .     D
C720   C721    1.407   .     S
C720   N120    1.431   .     S
C721   C722    1.403   .     D
C721   H454    1.140   1_556 S
C722   H455    1.140   .     S
N76    C1138   1.431   .     S
N76    C2986   1.308   1_554 D
H454   C721    1.140   1_554 S
F37    B12     1.417   .     S
F38    B12     1.416   .     S
H456   C1960   1.140   .     S
C723   H457    1.140   .     S
C723   N171    1.297   .     D
C723   C2360   1.470   .     S
C724   H458    1.140   .     S
C724   C725    1.397   .     D
C724   C729    1.401   .     S
C725   H459    1.140   .     S
C725   C726    1.401   1_545 S
C726   C727    1.405   .     D
C726   C1825   1.470   .     S
C726   C725    1.401   1_565 S
C727   H460    1.139   .     S
C727   C728    1.395   .     S
C728   H461    1.140   .     S
C728   C729    1.404   1_565 D
C729   C958    1.474   .     S
C729   C728    1.404   1_545 D
C730   C957    1.474   .     S
C730   N77     1.361   .     D
C730   C731    1.406   .     S
C731   C732    1.403   .     D
C731   H462    1.140   .     S
C732   C734    1.402   .     S
C732   H463    1.140   .     S
C733   C734    1.404   .     D
C733   N77     1.363   .     S
C733   C999    1.416   1_655 S
C734   C735    1.406   .     S
C735   H464    1.140   .     S
C735   C1001   1.405   1_655 D
C736   C737    1.409   .     S
C736   H465    1.140   .     S
C736   C1154   1.413   .     D
C737   C738    1.398   .     D
C737   C739    1.408   .     S
C738   N78     1.356   .     S
C738   C1156   1.407   .     S
C739   H466    1.140   .     S
C739   C740    1.411   .     D
C740   C741    1.406   .     S
C740   H467    1.140   .     S
C741   N78     1.349   .     D
C741   C1160   1.423   1_545 S
C742   C743    1.397   .     S
C742   C3636   1.402   .     D
C742   C1159   1.423   1_565 S
C743   H468    1.140   .     S
C743   C3633   1.389   .     D
C744   C2304   1.353   .     S
C744   H1464   1.140   .     S
C744   N288    1.308   .     D
C745   H469    1.140   .     S
C745   C3631   1.389   .     S
C745   C746    1.405   1_455 D
C746   C747    1.405   .     S
C746   C1922   1.353   .     S
C746   C745    1.405   1_655 D
C747   C748    1.403   .     D
C747   H470    1.140   .     S
C748   H471    1.140   .     S
C748   C3630   1.402   .     S
N77    Cu21    1.915   1_655 S
N78    Cu30    1.896   1_545 S
N79    C752    1.433   .     S
C749   C750    1.405   .     D
C749   C754    1.403   .     S
C749   N412    1.441   .     S
C750   C751    1.399   .     S
C750   H472    1.140   .     S
C751   H473    1.140   .     S
C751   C752    1.407   .     D
C752   C753    1.398   .     S
C753   H474    1.140   .     S
C753   C754    1.393   .     D
C754   H475    1.140   .     S
C755   C756    1.404   .     D
C755   N427    1.445   .     S
C755   C760    1.407   .     S
C756   C757    1.390   .     S
C756   H476    1.140   .     S
C757   H477    1.140   .     S
C757   C758    1.396   .     D
C758   C759    1.407   .     S
C758   N116    1.431   .     S
C759   C760    1.403   .     D
C759   H478    1.140   .     S
C760   H479    1.140   .     S
N80    C1100   1.431   .     S
N80    C3024   1.308   .     D
F39    B32     1.417   .     S
F40    B32     1.416   .     S
H480   C1922   1.140   .     S
C761   H481    1.140   .     S
C761   N135    1.297   .     D
C761   C2018   1.470   .     S
C762   H482    1.140   .     S
C762   C763    1.397   .     D
C762   C767    1.401   .     S
C763   C764    1.401   .     S
C763   H483    1.140   .     S
C764   C2243   1.470   .     S
C764   C765    1.405   .     D
C765   C766    1.395   .     S
C765   H484    1.139   .     S
C766   C767    1.404   .     D
C766   H485    1.140   .     S
C767   C1148   1.474   .     S
C768   C769    1.406   .     S
C768   N81     1.361   .     D
C768   C1147   1.474   .     S
C769   H486    1.140   .     S
C769   C770    1.403   .     D
C770   H487    1.140   .     S
C770   C772    1.402   .     S
C771   N81     1.363   .     S
C771   C772    1.404   .     S
C771   C1113   1.416   1_645 D
C772   C773    1.406   .     D
C773   H488    1.140   .     S
C773   C1115   1.405   1_645 S
C774   C775    1.409   .     S
C774   H489    1.140   .     S
C774   C964    1.413   .     D
C775   C777    1.408   .     D
C775   C776    1.398   .     S
C776   N82     1.356   .     D
C776   C966    1.407   .     S
C777   H490    1.140   .     S
C777   C778    1.411   .     S
C778   C779    1.406   .     D
C778   H491    1.140   .     S
C779   N82     1.349   .     S
C779   C970    1.423   .     S
C780   C3370   1.402   .     S
C780   C781    1.397   .     D
C780   C969    1.423   .     S
C781   C3367   1.389   .     S
C781   H492    1.140   .     S
C782   C2114   1.353   .     S
C782   N292    1.308   .     D
C782   H1344   1.140   .     S
C783   H493    1.140   .     S
C783   C3365   1.389   .     D
C783   C784    1.405   1_455 S
C784   C785    1.405   .     D
C784   C2188   1.353   .     S
C784   C783    1.405   1_655 S
C785   H494    1.140   .     S
C785   C786    1.403   .     S
C786   H495    1.140   .     S
C786   C3364   1.402   .     D
N81    Cu24    1.915   1_655 S
N82    Cu31    1.896   .     S
N83    C790    1.433   .     S
C787   C788    1.405   .     D
C787   C792    1.403   .     S
C787   N401    1.441   .     S
C788   C789    1.399   .     S
C788   H496    1.140   .     S
C789   H497    1.140   .     S
C789   C790    1.407   .     D
C790   C791    1.398   .     S
C791   H498    1.140   .     S
C791   C792    1.393   .     D
C792   H499    1.140   .     S
C793   N417    1.445   .     S
C793   C794    1.404   .     D
C793   C798    1.407   .     S
C794   C795    1.390   .     S
C794   H500    1.140   .     S
C795   H501    1.140   .     S
C795   C796    1.396   .     D
C796   C797    1.407   .     S
C796   N112    1.431   .     S
C797   C798    1.403   .     D
C797   H502    1.140   1_554 S
C798   H503    1.140   .     S
N84    C1062   1.431   .     S
N84    C2454   1.308   1_556 D
H502   C797    1.140   1_556 S
F41    B13     1.417   .     S
F42    B13     1.416   .     S
H504   C2188   1.140   .     S
C799   N131    1.297   .     D
C799   H505    1.140   .     S
C799   C1980   1.470   .     S
C800   H506    1.140   .     S
C800   C801    1.397   .     D
C800   C805    1.401   .     S
C801   H507    1.140   .     S
C801   C802    1.401   1_565 S
C802   C803    1.405   .     D
C802   C2205   1.470   .     S
C802   C801    1.401   1_545 S
C803   C804    1.395   .     S
C803   H508    1.139   .     S
C804   H509    1.140   .     S
C804   C805    1.404   1_545 D
C805   C1186   1.474   .     S
C805   C804    1.404   1_565 D
C806   C807    1.406   .     S
C806   C1185   1.474   .     S
C806   N85     1.361   .     D
C807   H510    1.140   .     S
C807   C808    1.403   .     D
C808   H511    1.140   .     S
C808   C810    1.402   .     S
C809   N85     1.363   .     S
C809   C810    1.404   .     S
C809   C1075   1.416   1_655 D
C810   C811    1.406   .     D
C811   H512    1.140   .     S
C811   C1077   1.405   1_655 S
C812   C813    1.409   .     S
C812   H513    1.140   .     S
C812   C926    1.413   .     D
C813   C814    1.398   .     S
C813   C815    1.408   .     D
C814   N86     1.356   .     D
C814   C928    1.407   .     S
C815   C816    1.411   .     S
C815   H514    1.140   .     S
C816   H515    1.140   .     S
C816   C817    1.406   .     D
C817   N86     1.349   .     S
C817   C932    1.423   1_565 S
C818   C3408   1.402   .     S
C818   C819    1.397   .     D
C818   C931    1.423   1_545 S
C819   H516    1.140   .     S
C819   C3405   1.389   .     S
C820   N296    1.308   .     D
C820   C2076   1.353   .     S
C820   H1320   1.140   .     S
C821   C3403   1.389   .     D
C821   H517    1.140   .     S
C821   C822    1.405   1_455 S
C822   C823    1.405   .     D
C822   C2150   1.353   .     S
C822   C821    1.405   1_655 S
C823   H518    1.140   .     S
C823   C824    1.403   .     S
C824   C3402   1.402   .     D
C824   H519    1.140   .     S
N85    Cu18    1.915   1_655 S
N86    Cu25    1.896   1_565 S
N87    C828    1.433   .     S
C825   C826    1.405   .     D
C825   C830    1.403   .     S
C825   N402    1.441   .     S
C826   C827    1.399   .     S
C826   H520    1.140   .     S
C827   H521    1.140   .     S
C827   C828    1.407   .     D
C828   C829    1.398   .     S
C829   H522    1.140   .     S
C829   C830    1.393   .     D
C830   H523    1.140   .     S
C831   C836    1.407   .     S
C831   C832    1.404   .     D
C831   N431    1.445   .     S
C832   H524    1.140   .     S
C832   C833    1.390   .     S
C833   C834    1.396   .     D
C833   H525    1.140   .     S
C834   C835    1.407   .     S
C834   N108    1.431   .     S
C835   C836    1.403   .     D
C835   H526    1.140   .     S
C836   H527    1.140   .     S
N88    C2492   1.308   .     D
N88    C1024   1.431   .     S
F43    B14     1.417   .     S
F44    B14     1.416   .     S
H528   C2150   1.140   .     S
C837   H529    1.140   .     S
C837   N143    1.297   .     D
C837   C2094   1.470   .     S
C838   C839    1.397   .     D
C838   H530    1.140   .     S
C838   C843    1.401   .     S
C839   C840    1.401   .     S
C839   H531    1.140   .     S
C840   C841    1.405   .     D
C840   C2167   1.470   .     S
C841   C842    1.395   .     S
C841   H532    1.139   .     S
C842   H533    1.140   .     S
C842   C843    1.404   .     D
C843   C1072   1.474   .     S
C844   C845    1.406   .     S
C844   C1071   1.474   .     S
C844   N89     1.361   .     D
C845   H534    1.140   .     S
C845   C846    1.403   .     D
C846   H535    1.140   .     S
C846   C848    1.402   .     S
C847   N89     1.363   .     S
C847   C848    1.404   .     S
C847   C1189   1.416   1_545 D
C848   C849    1.406   .     D
C849   H536    1.140   .     S
C849   C1191   1.405   1_545 S
C850   C851    1.409   .     S
C850   H537    1.140   .     S
C850   C1040   1.413   .     D
C851   C853    1.408   .     D
C851   C852    1.398   .     S
C852   N90     1.356   .     D
C852   C1042   1.407   .     S
C853   C854    1.411   .     S
C853   H538    1.140   .     S
C854   H539    1.140   .     S
C854   C855    1.406   .     D
C855   N90     1.349   .     S
C855   C1046   1.423   .     S
C856   C3446   1.402   .     S
C856   C857    1.397   .     D
C856   C1045   1.423   .     S
C857   C3443   1.389   .     S
C857   H540    1.140   .     S
C858   N300    1.308   .     D
C858   C2038   1.353   .     S
C858   H1296   1.140   .     S
C859   C3441   1.389   .     S
C859   H541    1.140   .     S
C859   C860    1.405   .     D
C860   C861    1.405   .     S
C860   C2264   1.353   .     S
C861   H542    1.140   .     S
C861   C862    1.403   .     D
C862   H543    1.140   .     S
C862   C3440   1.402   .     S
N89    Cu23    1.915   .     S
N90    Cu32    1.896   .     S
N91    C866    1.433   .     S
C863   C868    1.403   .     D
C863   N403    1.441   .     S
C863   C864    1.405   .     S
C864   C865    1.399   .     D
C864   H544    1.140   .     S
C865   H545    1.140   .     S
C865   C866    1.407   .     S
C866   C867    1.398   .     D
C867   H546    1.140   .     S
C867   C868    1.393   .     S
C868   H547    1.140   .     S
C869   C874    1.407   .     S
C869   C870    1.404   .     D
C869   N424    1.445   .     S
C870   H548    1.140   .     S
C870   C871    1.390   .     S
C871   C872    1.396   .     D
C871   H549    1.140   .     S
C872   C873    1.407   .     S
C872   N104    1.431   .     S
C873   C874    1.403   .     D
C873   H550    1.140   .     S
C874   H551    1.140   .     S
N92    C986    1.431   .     S
N92    C2530   1.308   .     D
F45    B28     1.417   .     S
F46    B28     1.416   .     S
H552   C2264   1.140   .     S
C875   N139    1.297   .     D
C875   H553    1.140   .     S
C875   C2056   1.470   .     S
C876   C877    1.397   .     D
C876   C881    1.401   .     S
C876   H554    1.140   .     S
C877   H555    1.140   .     S
C877   C878    1.401   1_565 S
C878   C2129   1.470   .     S
C878   C879    1.405   .     D
C878   C877    1.401   1_545 S
C879   C880    1.395   .     S
C879   H556    1.139   .     S
C880   H557    1.140   .     S
C880   C881    1.404   1_545 D
C881   C1110   1.474   .     S
C881   C880    1.404   1_565 D
C882   C883    1.406   .     S
C882   N93     1.361   .     D
C882   C1109   1.474   .     S
C883   H558    1.140   .     S
C883   C884    1.403   .     D
C884   H559    1.140   .     S
C884   C886    1.402   .     S
C885   N93     1.363   .     S
C885   C1151   1.416   .     D
C885   C886    1.404   .     S
C886   C887    1.406   .     D
C887   C1153   1.405   .     S
C887   H560    1.140   .     S
C888   C889    1.409   .     S
C888   H561    1.140   .     S
C888   C1002   1.413   .     D
C889   C890    1.398   .     S
C889   C891    1.408   .     D
C890   N94     1.356   .     D
C890   C1004   1.407   .     S
C891   C892    1.411   .     S
C891   H562    1.140   .     S
C892   C893    1.406   .     D
C892   H563    1.140   .     S
C893   N94     1.349   .     S
C893   C1008   1.423   1_565 S
C894   C3484   1.402   .     S
C894   C895    1.397   .     D
C894   C1007   1.423   1_545 S
C895   H564    1.140   .     S
C895   C3481   1.389   .     S
C896   C2000   1.353   .     S
C896   N304    1.308   .     D
C896   H1272   1.140   .     S
C897   H565    1.140   .     S
C897   C898    1.405   .     D
C897   C3479   1.389   .     S
C898   C899    1.405   .     S
C898   C2226   1.353   .     S
C899   H566    1.140   .     S
C899   C900    1.403   .     D
C900   C3478   1.402   .     S
C900   H567    1.140   .     S
N93    Cu17    1.915   .     S
N94    Cu26    1.896   1_565 S
N95    C904    1.433   .     S
C901   C906    1.403   .     D
C901   C902    1.405   .     S
C901   N404    1.441   .     S
C902   C903    1.399   .     D
C902   H568    1.140   .     S
C903   H569    1.140   .     S
C903   C904    1.407   .     S
C904   C905    1.398   .     D
C905   H570    1.140   .     S
C905   C906    1.393   .     S
C906   H571    1.140   .     S
C907   N425    1.445   .     S
C907   C908    1.404   .     D
C907   C912    1.407   .     S
C908   C909    1.390   .     S
C908   H572    1.140   .     S
C909   H573    1.140   .     S
C909   C910    1.396   .     D
C910   C911    1.407   .     S
C910   N100    1.431   .     S
C911   C912    1.403   .     D
C911   H574    1.140   1_554 S
C912   H575    1.140   .     S
N96    C948    1.431   .     S
N96    C2568   1.308   1_556 D
H574   C911    1.140   1_556 S
F47    B29     1.417   .     S
F48    B29     1.416   .     S
H576   C2226   1.140   .     S
C913   N151    1.297   .     D
C913   H577    1.140   .     S
C913   C2170   1.470   .     S
C914   C915    1.397   .     D
C914   H578    1.140   .     S
C914   C919    1.401   .     S
C915   H579    1.140   .     S
C915   C916    1.401   1_565 S
C916   C917    1.405   .     D
C916   C2091   1.470   .     S
C916   C915    1.401   1_545 S
C917   H580    1.139   .     S
C917   C918    1.395   .     S
C918   H581    1.140   .     S
C918   C919    1.404   1_545 D
C919   C918    1.404   1_565 D
C920   N97     1.361   .     D
C920   C921    1.406   .     S
C921   H582    1.140   .     S
C921   C922    1.403   .     D
C922   H583    1.140   .     S
C922   C924    1.402   .     S
C923   C924    1.404   .     D
C923   N97     1.363   .     S
C924   C925    1.406   .     S
C925   H584    1.140   .     S
C926   C927    1.409   .     S
C926   H585    1.140   .     S
C927   C928    1.398   .     S
C927   C929    1.408   .     D
C928   N98     1.356   .     D
C929   C930    1.411   .     S
C929   H586    1.140   .     S
C930   H587    1.140   .     S
C930   C931    1.406   .     D
C931   N98     1.349   .     S
C931   C818    1.423   1_565 S
C932   C3066   1.402   .     S
C932   C933    1.397   .     D
C932   C817    1.423   1_545 S
C933   C3063   1.389   .     S
C933   H588    1.140   .     S
C934   H1440   1.140   .     S
C934   C2266   1.353   .     S
C934   N308    1.308   .     D
C935   H589    1.140   .     S
C935   C3061   1.389   .     D
C935   C936    1.405   .     S
C936   C2036   1.353   .     S
C936   C937    1.405   .     D
C937   C938    1.403   .     S
C937   H590    1.140   .     S
C938   H591    1.140   .     S
C938   C3060   1.402   .     D
N97    Cu22    1.915   .     S
N98    Cu25    1.896   1_565 S
N99    C942    1.433   .     S
C939   C940    1.405   .     D
C939   C944    1.403   .     S
C939   N413    1.441   .     S
C940   C941    1.399   .     S
C940   H592    1.140   .     S
C941   H593    1.140   .     S
C941   C942    1.407   .     D
C942   C943    1.398   .     S
C943   C944    1.393   .     D
C943   H594    1.140   .     S
C944   H595    1.140   .     S
C945   N421    1.445   .     S
C945   C946    1.404   .     D
C945   C950    1.407   .     S
C946   C947    1.390   .     S
C946   H596    1.140   .     S
C947   H597    1.140   .     S
C947   C948    1.396   .     D
C948   C949    1.407   .     S
C949   C950    1.403   .     D
C949   H598    1.140   1_556 S
C950   H599    1.140   .     S
N100   C2606   1.308   1_554 D
H598   C949    1.140   1_554 S
F49    B15     1.417   .     S
F50    B15     1.416   .     S
H600   C2036   1.140   .     S
C951   H601    1.140   .     S
C951   N147    1.297   .     D
C951   C2132   1.470   .     S
C952   C953    1.397   .     S
C952   H602    1.140   .     S
C952   C957    1.401   .     D
C953   C954    1.401   .     D
C953   H603    1.140   .     S
C954   C955    1.405   .     S
C954   C2053   1.470   .     S
C955   H604    1.139   .     S
C955   C956    1.395   .     D
C956   H605    1.140   .     S
C956   C957    1.404   .     S
C958   N101    1.361   .     D
C958   C959    1.406   .     S
C959   H606    1.140   .     S
C959   C960    1.403   .     D
C960   C962    1.402   .     S
C960   H607    1.140   .     S
C961   C962    1.404   .     D
C961   N101    1.363   .     S
C961   C619    1.416   1_545 S
C962   C963    1.406   .     S
C963   H608    1.140   .     S
C963   C621    1.405   1_545 D
C964   C965    1.409   .     S
C964   H609    1.140   .     S
C965   C966    1.398   .     S
C965   C967    1.408   .     D
C966   N102    1.356   .     D
C967   H610    1.140   .     S
C967   C968    1.411   .     S
C968   C969    1.406   .     D
C968   H611    1.140   .     S
C969   N102    1.349   .     S
C970   C971    1.397   .     D
C970   C3104   1.402   .     S
C971   C3101   1.389   .     S
C971   H612    1.140   .     S
C972   H1416   1.140   .     S
C972   C2228   1.353   .     S
C972   N312    1.308   .     D
C973   C974    1.405   .     S
C973   H613    1.140   .     S
C973   C3099   1.389   .     D
C974   C975    1.405   .     D
C974   C1998   1.353   .     S
C975   C976    1.403   .     S
C975   H614    1.140   .     S
C976   H615    1.140   .     S
C976   C3098   1.402   .     D
N101   Cu20    1.915   .     S
N102   Cu31    1.896   .     S
N103   C980    1.433   .     S
C977   C978    1.405   .     D
C977   C982    1.403   .     S
C977   N414    1.441   .     S
C978   C979    1.399   .     S
C978   H616    1.140   .     S
C979   H617    1.140   .     S
C979   C980    1.407   .     D
C980   C981    1.398   .     S
C981   H618    1.140   .     S
C981   C982    1.393   .     D
C982   H619    1.140   .     S
C983   N432    1.445   .     S
C983   C984    1.404   .     D
C983   C988    1.407   .     S
C984   C985    1.390   .     S
C984   H620    1.140   .     S
C985   H621    1.140   .     S
C985   C986    1.396   .     D
C986   C987    1.407   .     S
C987   H622    1.140   .     S
C987   C988    1.403   .     D
C988   H623    1.140   .     S
N104   C2644   1.308   .     D
F51    B16     1.417   .     S
F52    B16     1.416   .     S
H624   C1998   1.140   .     S
C989   N159    1.297   .     D
C989   H625    1.140   .     S
C989   C2246   1.470   .     S
C990   C991    1.397   .     D
C990   H626    1.140   .     S
C990   C995    1.401   .     S
C991   H627    1.140   .     S
C991   C992    1.401   1_565 S
C992   C993    1.405   .     D
C992   C2015   1.470   .     S
C992   C991    1.401   1_545 S
C993   H628    1.139   .     S
C993   C994    1.395   .     S
C994   H629    1.140   .     S
C994   C995    1.404   1_545 D
C995   C994    1.404   1_565 D
C996   N105    1.361   .     D
C996   C997    1.406   .     S
C997   H630    1.140   .     S
C997   C998    1.403   .     D
C998   C1000   1.402   .     S
C998   H631    1.140   .     S
C999   C1000   1.404   .     D
C999   N105    1.363   .     S
C999   C733    1.416   1_455 S
C1000  C1001   1.406   .     S
C1001  H632    1.140   .     S
C1001  C735    1.405   1_455 D
C1002  C1003   1.409   .     S
C1002  H633    1.140   .     S
C1003  C1004   1.398   .     D
C1003  C1005   1.408   .     S
C1004  N106    1.356   .     S
C1005  C1006   1.411   .     D
C1005  H634    1.140   .     S
C1006  H635    1.140   .     S
C1006  C1007   1.406   .     S
C1007  N106    1.349   .     D
C1007  C894    1.423   1_565 S
C1008  C1009   1.397   .     D
C1008  C3142   1.402   .     S
C1008  C893    1.423   1_545 S
C1009  H636    1.140   .     S
C1009  C3139   1.389   .     S
C1010  C2190   1.353   .     S
C1010  H1392   1.140   .     S
C1010  N316    1.308   .     D
C1011  H637    1.140   .     S
C1011  C3137   1.389   .     S
C1011  C1012   1.405   1_655 D
C1012  C1013   1.405   .     S
C1012  C2112   1.353   .     S
C1012  C1011   1.405   1_455 D
C1013  C1014   1.403   .     D
C1013  H638    1.140   .     S
C1014  H639    1.140   .     S
C1014  C3136   1.402   .     S
N105   Cu21    1.915   .     S
N106   Cu26    1.896   1_565 S
N107   C1018   1.433   .     S
C1015  C1016   1.405   .     D
C1015  C1020   1.403   .     S
C1015  N415    1.441   .     S
C1016  C1017   1.399   .     S
C1016  H640    1.140   .     S
C1017  H641    1.140   .     S
C1017  C1018   1.407   .     D
C1018  C1019   1.398   .     S
C1019  H642    1.140   .     S
C1019  C1020   1.393   .     D
C1020  H643    1.140   .     S
C1021  N430    1.445   .     S
C1021  C1022   1.404   .     D
C1021  C1026   1.407   .     S
C1022  C1023   1.390   .     S
C1022  H644    1.140   .     S
C1023  H645    1.140   .     S
C1023  C1024   1.396   .     D
C1024  C1025   1.407   .     S
C1025  H646    1.140   .     S
C1025  C1026   1.403   .     D
C1026  H647    1.140   .     S
N108   C2682   1.308   .     D
F53    B33     1.417   .     S
F54    B33     1.416   .     S
H648   C2112   1.140   .     S
C1027  H649    1.140   .     S
C1027  N155    1.297   .     D
C1027  C2208   1.470   .     S
C1028  C1029   1.397   .     S
C1028  H650    1.140   .     S
C1028  C1033   1.401   .     D
C1029  C1030   1.401   .     D
C1029  H651    1.140   .     S
C1030  C1031   1.405   .     S
C1030  C1977   1.470   .     S
C1031  H652    1.139   .     S
C1031  C1032   1.395   .     D
C1032  H653    1.140   .     S
C1032  C1033   1.404   .     S
C1034  N109    1.361   .     D
C1034  C1035   1.406   .     S
C1035  H654    1.140   .     S
C1035  C1036   1.403   .     D
C1036  C1038   1.402   .     S
C1036  H655    1.140   .     S
C1037  C1038   1.404   .     D
C1037  N109    1.363   .     S
C1037  C695    1.416   1_445 S
C1038  C1039   1.406   .     S
C1039  H656    1.140   .     S
C1039  C697    1.405   1_445 D
C1040  C1041   1.409   .     S
C1040  H657    1.140   .     S
C1041  C1042   1.398   .     D
C1041  C1043   1.408   .     S
C1042  N110    1.356   .     S
C1043  H658    1.140   .     S
C1043  C1044   1.411   .     D
C1044  H659    1.140   .     S
C1044  C1045   1.406   .     S
C1045  N110    1.349   .     D
C1046  C3180   1.402   .     S
C1046  C1047   1.397   .     D
C1047  C3177   1.389   .     S
C1047  H660    1.140   .     S
C1048  C2152   1.353   .     S
C1048  H1368   1.140   .     S
C1048  N320    1.308   .     D
C1049  H661    1.140   .     S
C1049  C3175   1.389   .     S
C1049  C1050   1.405   1_655 D
C1050  C2074   1.353   .     S
C1050  C1051   1.405   .     S
C1050  C1049   1.405   1_455 D
C1051  C1052   1.403   .     D
C1051  H662    1.140   .     S
C1052  H663    1.140   .     S
C1052  C3174   1.402   .     S
N109   Cu19    1.915   .     S
N110   Cu32    1.896   .     S
N111   C1056   1.433   .     S
C1053  C1054   1.405   .     D
C1053  C1058   1.403   .     S
C1053  N416    1.441   .     S
C1054  C1055   1.399   .     S
C1054  H664    1.140   .     S
C1055  C1056   1.407   .     D
C1055  H665    1.140   .     S
C1056  C1057   1.398   .     S
C1057  C1058   1.393   .     D
C1057  H666    1.140   .     S
C1058  H667    1.140   .     S
C1059  N422    1.445   .     S
C1059  C1060   1.404   .     D
C1059  C1064   1.407   .     S
C1060  C1061   1.390   .     S
C1060  H668    1.140   .     S
C1061  H669    1.140   .     S
C1061  C1062   1.396   .     D
C1062  C1063   1.407   .     S
C1063  C1064   1.403   .     D
C1063  H670    1.140   1_556 S
C1064  H671    1.140   .     S
N112   C2720   1.308   1_554 D
H670   C1063   1.140   1_554 S
F55    B34     1.417   .     S
F56    B34     1.416   .     S
H672   C2074   1.140   .     S
C1065  H673    1.140   .     S
C1065  N183    1.297   .     D
C1065  C1866   1.470   .     S
C1066  C1067   1.397   .     D
C1066  H674    1.140   .     S
C1066  C1071   1.401   .     S
C1067  H675    1.140   .     S
C1067  C1068   1.401   1_545 S
C1068  C1069   1.405   .     D
C1068  C2395   1.470   .     S
C1068  C1067   1.401   1_565 S
C1069  C1070   1.395   .     S
C1069  H676    1.139   .     S
C1070  H677    1.140   .     S
C1070  C1071   1.404   1_565 D
C1071  C1070   1.404   1_545 D
C1072  N113    1.361   .     D
C1072  C1073   1.406   .     S
C1073  H678    1.140   .     S
C1073  C1074   1.403   .     D
C1074  C1076   1.402   .     S
C1074  H679    1.140   .     S
C1075  N113    1.363   .     S
C1075  C1076   1.404   .     S
C1075  C809    1.416   1_455 D
C1076  C1077   1.406   .     D
C1077  H680    1.140   .     S
C1077  C811    1.405   1_455 S
C1078  C1079   1.409   .     S
C1078  H681    1.140   .     S
C1079  C1081   1.408   .     D
C1079  C1080   1.398   .     S
C1080  N114    1.356   .     D
C1081  H682    1.140   .     S
C1081  C1082   1.411   .     S
C1082  H683    1.140   .     S
C1082  C1083   1.406   .     D
C1083  N114    1.349   .     S
C1083  C666    1.423   1_545 S
C1084  C3218   1.402   .     D
C1084  C1085   1.397   .     S
C1084  C665    1.423   1_565 S
C1085  H684    1.140   .     S
C1085  C3215   1.389   .     D
C1086  N260    1.308   .     D
C1086  C1962   1.353   .     S
C1086  H1248   1.140   .     S
C1087  C3213   1.389   .     D
C1087  H685    1.140   .     S
C1087  C1088   1.405   1_655 S
C1088  C1089   1.405   .     D
C1088  C2340   1.353   .     S
C1088  C1087   1.405   1_455 S
C1089  H686    1.140   .     S
C1089  C1090   1.403   .     S
C1090  C3212   1.402   .     D
C1090  H687    1.140   .     S
N113   Cu18    1.915   .     S
N114   Cu29    1.896   1_545 S
N115   C1094   1.433   .     S
C1091  C1092   1.405   .     D
C1091  N405    1.441   .     S
C1091  C1096   1.403   .     S
C1092  C1093   1.399   .     S
C1092  H688    1.140   .     S
C1093  H689    1.140   .     S
C1093  C1094   1.407   .     D
C1094  C1095   1.398   .     S
C1095  H690    1.140   .     S
C1095  C1096   1.393   .     D
C1096  H691    1.140   .     S
C1097  C1102   1.407   .     S
C1097  N418    1.445   .     S
C1097  C1098   1.404   .     D
C1098  H692    1.140   .     S
C1098  C1099   1.390   .     S
C1099  C1100   1.396   .     D
C1099  H693    1.140   .     S
C1100  C1101   1.407   .     S
C1101  C1102   1.403   .     D
C1101  H694    1.140   .     S
C1102  H695    1.140   .     S
N116   C2758   1.308   .     D
F57    B17     1.417   .     S
F58    B17     1.416   .     S
H696   C2340   1.140   .     S
C1103  H697    1.140   .     S
C1103  N179    1.297   .     D
C1103  C1828   1.470   .     S
C1104  C1105   1.397   .     S
C1104  C1109   1.401   .     D
C1104  H698    1.140   .     S
C1105  H699    1.140   .     S
C1105  C1106   1.401   .     D
C1106  C2357   1.470   .     S
C1106  C1107   1.405   .     S
C1107  C1108   1.395   .     D
C1107  H700    1.139   .     S
C1108  C1109   1.404   .     S
C1108  H701    1.140   .     S
C1110  N117    1.361   .     D
C1110  C1111   1.406   .     S
C1111  H702    1.140   .     S
C1111  C1112   1.403   .     D
C1112  C1114   1.402   .     S
C1112  H703    1.140   .     S
C1113  N117    1.363   .     S
C1113  C1114   1.404   .     S
C1113  C771    1.416   1_465 D
C1114  C1115   1.406   .     D
C1115  H704    1.140   .     S
C1115  C773    1.405   1_465 S
C1116  C1117   1.409   .     S
C1116  H705    1.140   .     S
C1117  C1119   1.408   .     D
C1117  C1118   1.398   .     S
C1118  N118    1.356   .     D
C1119  H706    1.140   .     S
C1119  C1120   1.411   .     S
C1120  C1121   1.406   .     D
C1120  H707    1.140   .     S
C1121  N118    1.349   .     S
C1122  C3256   1.402   .     D
C1122  C1123   1.397   .     S
C1123  H708    1.140   .     S
C1123  C3253   1.389   .     D
C1124  C1924   1.353   .     S
C1124  N264    1.308   .     D
C1124  H1224   1.140   .     S
C1125  H709    1.140   .     S
C1125  C3251   1.389   .     D
C1125  C1126   1.405   1_655 S
C1126  C1127   1.405   .     D
C1126  C2302   1.353   .     S
C1126  C1125   1.405   1_455 S
C1127  H710    1.140   .     S
C1127  C1128   1.403   .     S
C1128  C3250   1.402   .     D
C1128  H711    1.140   .     S
N117   Cu24    1.915   1_565 S
N118   Cu27    1.896   .     S
N119   C1132   1.433   .     S
C1129  C1130   1.405   .     D
C1129  C1134   1.403   .     S
C1129  N406    1.441   .     S
C1130  C1131   1.399   .     S
C1130  H712    1.140   .     S
C1131  H713    1.140   .     S
C1131  C1132   1.407   .     D
C1132  C1133   1.398   .     S
C1133  H714    1.140   .     S
C1133  C1134   1.393   .     D
C1134  H715    1.140   .     S
C1135  N419    1.445   .     S
C1135  C1136   1.404   .     D
C1135  C1140   1.407   .     S
C1136  C1137   1.390   .     S
C1136  H716    1.140   .     S
C1137  H717    1.140   .     S
C1137  C1138   1.396   .     D
C1138  C1139   1.407   .     S
C1139  C1140   1.403   .     D
C1139  H718    1.140   1_554 S
C1140  H719    1.140   .     S
N120   C2796   1.308   1_556 D
H718   C1139   1.140   1_556 S
F59    B18     1.417   .     S
F60    B18     1.416   .     S
H720   C2302   1.140   .     S
C1141  H721    1.140   .     S
C1141  N191    1.297   .     D
C1141  C1942   1.470   .     S
C1142  C1143   1.397   .     D
C1142  C1147   1.401   .     S
C1142  H722    1.140   .     S
C1143  H723    1.140   .     S
C1143  C1144   1.401   1_545 S
C1144  C2319   1.470   .     S
C1144  C1145   1.405   .     D
C1144  C1143   1.401   1_565 S
C1145  H724    1.139   .     S
C1145  C1146   1.395   .     S
C1146  H725    1.140   .     S
C1146  C1147   1.404   1_565 D
C1147  C1146   1.404   1_545 D
C1148  N121    1.361   .     D
C1148  C1149   1.406   .     S
C1149  H726    1.140   .     S
C1149  C1150   1.403   .     D
C1150  C1152   1.402   .     S
C1150  H727    1.140   .     S
C1151  N121    1.363   .     S
C1151  C1152   1.404   .     S
C1152  C1153   1.406   .     D
C1153  H728    1.140   .     S
C1154  C1155   1.409   .     S
C1154  H729    1.140   .     S
C1155  C1157   1.408   .     D
C1155  C1156   1.398   .     S
C1156  N122    1.356   .     D
C1157  H730    1.140   .     S
C1157  C1158   1.411   .     S
C1158  C1159   1.406   .     D
C1158  H731    1.140   .     S
C1159  N122    1.349   .     S
C1159  C742    1.423   1_545 S
C1160  C3294   1.402   .     D
C1160  C1161   1.397   .     S
C1160  C741    1.423   1_565 S
C1161  H732    1.140   .     S
C1161  C3291   1.389   .     D
C1162  N268    1.308   .     D
C1162  C1886   1.353   .     S
C1162  H1200   1.140   .     S
C1163  C1164   1.405   .     D
C1163  H733    1.140   .     S
C1163  C3289   1.389   .     S
C1164  C2416   1.353   .     S
C1164  C1165   1.405   .     S
C1165  H734    1.140   .     S
C1165  C1166   1.403   .     D
C1166  H735    1.140   .     S
C1166  C3288   1.402   .     S
N121   Cu17    1.915   .     S
N122   Cu30    1.896   1_545 S
N123   C1170   1.433   .     S
C1167  C1168   1.405   .     D
C1167  C1172   1.403   .     S
C1167  N407    1.441   .     S
C1168  H736    1.140   .     S
C1168  C1169   1.399   .     S
C1169  H737    1.140   .     S
C1169  C1170   1.407   .     D
C1170  C1171   1.398   .     S
C1171  H738    1.140   .     S
C1171  C1172   1.393   .     D
C1172  H739    1.140   .     S
C1173  C1174   1.404   .     D
C1173  N420    1.445   .     S
C1173  C1178   1.407   .     S
C1174  C1175   1.390   .     S
C1174  H740    1.140   .     S
C1175  H741    1.140   .     S
C1175  C1176   1.396   .     D
C1176  C1177   1.407   .     S
C1177  C1178   1.403   .     D
C1177  H742    1.140   1_554 S
C1178  H743    1.140   .     S
N124   C2834   1.308   1_556 D
H742   C1177   1.140   1_556 S
F61    B30     1.417   .     S
F62    B30     1.416   .     S
H744   C2416   1.140   .     S
C1179  H745    1.140   .     S
C1179  N187    1.297   .     D
C1179  C1904   1.470   .     S
C1180  C1181   1.397   .     S
C1180  H746    1.140   .     S
C1180  C1185   1.401   .     D
C1181  C1182   1.401   .     D
C1181  H747    1.140   .     S
C1182  C1183   1.405   .     S
C1182  C2281   1.470   .     S
C1183  H748    1.139   .     S
C1183  C1184   1.395   .     D
C1184  C1185   1.404   .     S
C1184  H749    1.140   .     S
C1186  N125    1.361   .     D
C1186  C1187   1.406   .     S
C1187  H750    1.140   .     S
C1187  C1188   1.403   .     D
C1188  C1190   1.402   .     S
C1188  H751    1.140   .     S
C1189  N125    1.363   .     S
C1189  C1190   1.404   .     S
C1189  C847    1.416   1_565 D
C1190  C1191   1.406   .     D
C1191  H752    1.140   .     S
C1191  C849    1.405   1_565 S
C1192  C1193   1.409   .     S
C1192  H753    1.140   .     S
C1193  C1195   1.408   .     D
C1193  C1194   1.398   .     S
C1194  N126    1.356   .     D
C1195  H754    1.140   .     S
C1195  C1196   1.411   .     S
C1196  H755    1.140   .     S
C1196  C1197   1.406   .     D
C1197  N126    1.349   .     S
C1198  C3332   1.402   .     D
C1198  C1199   1.397   .     S
C1199  H756    1.140   .     S
C1199  C3329   1.389   .     D
C1200  N272    1.308   .     D
C1200  H1176   1.140   .     S
C1200  C1848   1.353   .     S
C1201  C3327   1.389   .     S
C1201  C1202   1.405   .     D
C1201  H757    1.140   .     S
C1202  C2378   1.353   .     S
C1202  C1203   1.405   .     S
C1203  H758    1.140   .     S
C1203  C1204   1.403   .     D
C1204  H759    1.140   .     S
C1204  C3326   1.402   .     S
N125   Cu23    1.915   1_565 S
N126   Cu28    1.896   .     S
N127   C1208   1.433   .     S
C1205  C1206   1.405   .     D
C1205  C1210   1.403   .     S
C1205  N408    1.441   .     S
C1206  C1207   1.399   .     S
C1206  H760    1.140   .     S
C1207  H761    1.140   .     S
C1207  C1208   1.407   .     D
C1208  C1209   1.398   .     S
C1209  H762    1.140   .     S
C1209  C1210   1.393   .     D
C1210  H763    1.140   .     S
C1211  C1216   1.407   .     S
C1211  N429    1.445   .     S
C1211  C1212   1.404   .     D
C1212  H764    1.140   .     S
C1212  C1213   1.390   .     S
C1213  C1214   1.396   .     D
C1213  H765    1.140   .     S
C1214  C1215   1.407   .     S
C1215  C1216   1.403   .     D
C1215  H766    1.140   .     S
C1216  H767    1.140   .     S
N128   C2872   1.308   .     D
F63    B31     1.417   .     S
F64    B31     1.416   .     S
H768   C2378   1.140   .     S
C1217  H769    1.140   .     S
C1217  C3272   1.470   .     S
C1218  C1219   1.397   .     S
C1218  C1223   1.401   .     D
C1218  H770    1.140   .     S
C1219  H771    1.140   .     S
C1219  C1220   1.401   .     D
C1220  C1221   1.405   .     S
C1220  C3383   1.470   .     S
C1221  C1222   1.395   .     D
C1221  H772    1.139   .     S
C1222  H773    1.140   .     S
C1222  C1223   1.404   .     S
C1223  C1642   1.474   .     S
C1224  C1641   1.474   .     S
C1224  C1225   1.406   .     D
C1224  N129    1.361   .     S
C1225  C1226   1.403   .     S
C1225  H774    1.140   .     S
C1226  H775    1.140   .     S
C1226  C1228   1.402   .     D
C1227  C1228   1.404   .     S
C1227  N129    1.363   .     D
C1227  C1607   1.416   1_556 S
C1228  C1229   1.406   .     S
C1229  H776    1.140   .     S
C1229  C1609   1.405   1_556 D
C1230  C1231   1.409   .     S
C1230  H777    1.140   .     S
C1230  C1762   1.413   .     D
C1231  C1233   1.408   .     D
C1231  C1232   1.398   .     S
C1232  N130    1.356   .     D
C1232  C1764   1.407   .     S
C1233  H778    1.140   .     S
C1233  C1234   1.411   .     S
C1234  C1235   1.406   .     D
C1234  H779    1.140   .     S
C1235  N130    1.349   .     S
C1235  C1768   1.423   .     S
C1236  C2762   1.402   .     D
C1236  C1237   1.397   .     S
C1236  C1767   1.423   .     S
C1237  H780    1.140   .     S
C1237  C2759   1.389   .     D
C1238  C3254   1.353   .     S
C1238  H2064   1.140   .     S
C1238  N228    1.308   .     D
C1239  H781    1.140   .     S
C1239  C2757   1.389   .     S
C1239  C1240   1.405   .     D
C1240  C1241   1.405   .     S
C1240  C3442   1.353   .     S
C1241  C1242   1.403   .     D
C1241  H782    1.140   .     S
C1242  C2756   1.402   .     S
C1242  H783    1.140   .     S
N129   Cu6     1.915   1_556 S
N130   Cu47    1.896   .     S
N131   C1246   1.433   .     S
C1243  C1248   1.403   .     D
C1243  N401    1.441   .     S
C1243  C1244   1.405   .     S
C1244  C1245   1.399   .     D
C1244  H784    1.140   .     S
C1245  H785    1.140   .     S
C1245  C1246   1.407   .     S
C1246  C1247   1.398   .     D
C1247  H786    1.140   .     S
C1247  C1248   1.393   .     S
C1248  H787    1.140   .     S
C1249  N430    1.445   .     S
C1249  C1254   1.407   .     S
C1249  C1250   1.404   .     D
C1250  C1251   1.390   .     S
C1250  H788    1.140   .     S
C1251  C1252   1.396   .     D
C1251  H789    1.140   .     S
C1252  C1253   1.407   .     S
C1252  N184    1.431   .     S
C1253  H790    1.140   .     S
C1253  C1254   1.403   .     D
C1254  H791    1.140   .     S
N132   C1846   1.308   .     D
N132   C1746   1.431   .     S
F65    B19     1.417   .     S
F66    B19     1.416   .     S
H792   C3442   1.140   .     S
C1255  H793    1.140   .     S
C1255  C3310   1.470   .     S
C1256  H794    1.140   .     S
C1256  C1257   1.397   .     S
C1256  C1261   1.401   .     D
C1257  H795    1.140   .     S
C1257  C1258   1.401   1_554 D
C1258  C1259   1.405   .     S
C1258  C3345   1.470   .     S
C1258  C1257   1.401   1_556 D
C1259  H796    1.139   .     S
C1259  C1260   1.395   .     D
C1260  H797    1.140   .     S
C1260  C1261   1.404   1_556 S
C1261  C1604   1.474   .     S
C1261  C1260   1.404   1_554 S
C1262  C1603   1.474   .     S
C1262  C1263   1.406   .     D
C1262  N133    1.361   .     S
C1263  C1264   1.403   .     S
C1263  H798    1.140   .     S
C1264  H799    1.140   .     S
C1264  C1266   1.402   .     D
C1265  C1266   1.404   .     S
C1265  N133    1.363   .     D
C1265  C1645   1.416   1_565 S
C1266  C1267   1.406   .     S
C1267  H800    1.140   .     S
C1267  C1647   1.405   1_565 D
C1268  C1269   1.409   .     S
C1268  C1800   1.413   .     D
C1268  H801    1.140   .     S
C1269  C1271   1.408   .     D
C1269  C1270   1.398   .     S
C1270  N134    1.356   .     D
C1270  C1802   1.407   .     S
C1271  H802    1.140   .     S
C1271  C1272   1.411   .     S
C1272  C1273   1.406   .     D
C1272  H803    1.140   .     S
C1273  N134    1.349   .     S
C1273  C1806   1.423   1_554 S
C1274  C2800   1.402   .     D
C1274  C1275   1.397   .     S
C1274  C1805   1.423   1_556 S
C1275  H804    1.140   .     S
C1275  C2797   1.389   .     D
C1276  C3216   1.353   .     S
C1276  H2040   1.140   .     S
C1276  N232    1.308   .     D
C1277  H805    1.140   .     S
C1277  C2795   1.389   .     D
C1277  C1278   1.405   1_545 S
C1278  C1279   1.405   .     D
C1278  C3480   1.353   .     S
C1278  C1277   1.405   1_565 S
C1279  C1280   1.403   .     S
C1279  H806    1.140   .     S
C1280  C2794   1.402   .     D
C1280  H807    1.140   .     S
N133   Cu5     1.915   1_565 S
N134   Cu48    1.896   1_554 S
N135   C1284   1.433   .     S
C1281  C1282   1.405   .     D
C1281  N402    1.441   .     S
C1281  C1286   1.403   .     S
C1282  C1283   1.399   .     S
C1282  H808    1.140   .     S
C1283  H809    1.140   .     S
C1283  C1284   1.407   .     D
C1284  C1285   1.398   .     S
C1285  H810    1.140   .     S
C1285  C1286   1.393   .     D
C1286  H811    1.140   .     S
C1287  C1288   1.404   .     S
C1287  C1292   1.407   .     D
C1287  N422    1.445   .     S
C1288  C1289   1.390   .     D
C1288  H812    1.140   .     S
C1289  C1290   1.396   .     S
C1289  H813    1.140   .     S
C1290  C1291   1.407   .     D
C1290  N180    1.431   .     S
C1291  C1292   1.403   .     S
C1291  H814    1.140   .     S
C1292  H815    1.140   .     S
N136   C1884   1.308   .     D
N136   C1708   1.431   .     S
F67    B20     1.417   .     S
F68    B20     1.416   .     S
H816   C3480   1.140   .     S
C1293  H817    1.140   .     S
C1293  C3196   1.470   .     S
C1294  C1295   1.397   .     S
C1294  C1299   1.401   .     D
C1294  H818    1.140   .     S
C1295  H819    1.140   .     S
C1295  C1296   1.401   1_554 D
C1296  C1297   1.405   .     S
C1296  C3459   1.470   .     S
C1296  C1295   1.401   1_556 D
C1297  C1298   1.395   .     D
C1297  H820    1.139   .     S
C1298  H821    1.140   .     S
C1298  C1299   1.404   1_556 S
C1299  C1566   1.474   .     S
C1299  C1298   1.404   1_554 S
C1300  C1565   1.474   .     S
C1300  C1301   1.406   .     D
C1300  N137    1.361   .     S
C1301  C1302   1.403   .     S
C1301  H822    1.140   .     S
C1302  H823    1.140   .     S
C1302  C1304   1.402   .     D
C1303  C1304   1.404   .     S
C1303  N137    1.363   .     D
C1303  C1531   1.416   .     S
C1304  C1305   1.406   .     S
C1305  H824    1.140   .     S
C1305  C1533   1.405   .     D
C1306  C1307   1.409   .     S
C1306  C1686   1.413   .     D
C1306  H825    1.140   .     S
C1307  C1309   1.408   .     D
C1307  C1308   1.398   .     S
C1308  N138    1.356   .     D
C1308  C1688   1.407   .     S
C1309  H826    1.140   .     S
C1309  C1310   1.411   .     S
C1310  H827    1.140   .     S
C1310  C1311   1.406   .     D
C1311  N138    1.349   .     S
C1311  C1692   1.423   1_554 S
C1312  C2838   1.402   .     D
C1312  C1313   1.397   .     S
C1312  C1691   1.423   1_556 S
C1313  H828    1.140   .     S
C1313  C2835   1.389   .     D
C1314  C3330   1.353   .     S
C1314  H2112   1.140   .     S
C1314  N236    1.308   .     D
C1315  H829    1.140   .     S
C1315  C2833   1.389   .     S
C1315  C1316   1.405   .     D
C1316  C3366   1.353   .     S
C1316  C1317   1.405   .     S
C1317  C1318   1.403   .     D
C1317  H830    1.140   .     S
C1318  C2832   1.402   .     S
C1318  H831    1.140   .     S
N137   Cu4     1.915   .     S
N138   Cu41    1.896   1_554 S
N139   C1322   1.433   .     S
C1319  N403    1.441   .     S
C1319  C1320   1.405   .     D
C1319  C1324   1.403   .     S
C1320  C1321   1.399   .     S
C1320  H832    1.140   .     S
C1321  H833    1.140   .     S
C1321  C1322   1.407   .     D
C1322  C1323   1.398   .     S
C1323  C1324   1.393   .     D
C1323  H834    1.140   .     S
C1324  H835    1.140   .     S
C1325  C1326   1.404   .     S
C1325  C1330   1.407   .     D
C1325  N421    1.445   .     S
C1326  C1327   1.390   .     D
C1326  H836    1.140   .     S
C1327  C1328   1.396   .     S
C1327  H837    1.140   .     S
C1328  C1329   1.407   .     D
C1328  N192    1.431   .     S
C1329  C1330   1.403   .     S
C1329  H838    1.140   1_655 S
C1330  H839    1.140   .     S
N140   C1822   1.431   .     S
N140   C1922   1.308   1_455 D
H838   C1329   1.140   1_455 S
F69    B42     1.417   .     S
F70    B42     1.416   .     S
H840   C3366   1.140   .     S
C1331  H841    1.140   .     S
C1331  C3234   1.470   .     S
C1332  H842    1.140   .     S
C1332  C1333   1.397   .     S
C1332  C1337   1.401   .     D
C1333  H843    1.140   .     S
C1333  C1334   1.401   .     D
C1334  C1335   1.405   .     S
C1334  C3421   1.470   .     S
C1335  H844    1.139   .     S
C1335  C1336   1.395   .     D
C1336  H845    1.140   .     S
C1336  C1337   1.404   .     S
C1337  C1528   1.474   .     S
C1338  C1527   1.474   .     S
C1338  C1339   1.406   .     D
C1338  N141    1.361   .     S
C1339  C1340   1.403   .     S
C1339  H846    1.140   .     S
C1340  H847    1.140   .     S
C1340  C1342   1.402   .     D
C1341  C1342   1.404   .     S
C1341  N141    1.363   .     D
C1341  C1569   1.416   1_566 S
C1342  C1343   1.406   .     S
C1343  H848    1.140   .     S
C1343  C1571   1.405   1_566 D
C1344  C1345   1.409   .     S
C1344  H849    1.140   .     S
C1344  C1724   1.413   .     D
C1345  C1347   1.408   .     D
C1345  C1346   1.398   .     S
C1346  N142    1.356   .     D
C1346  C1726   1.407   .     S
C1347  H850    1.140   .     S
C1347  C1348   1.411   .     S
C1348  H851    1.140   .     S
C1348  C1349   1.406   .     D
C1349  N142    1.349   .     S
C1349  C1730   1.423   .     S
C1350  C2876   1.402   .     D
C1350  C1351   1.397   .     S
C1350  C1729   1.423   .     S
C1351  C2873   1.389   .     D
C1351  H852    1.140   .     S
C1352  C3292   1.353   .     S
C1352  H2088   1.140   .     S
C1352  N240    1.308   .     D
C1353  H853    1.140   .     S
C1353  C2871   1.389   .     D
C1353  C1354   1.405   1_545 S
C1354  C3404   1.353   .     S
C1354  C1355   1.405   .     D
C1354  C1353   1.405   1_565 S
C1355  C1356   1.403   .     S
C1355  H854    1.140   .     S
C1356  C2870   1.402   .     D
C1356  H855    1.140   .     S
N141   Cu3     1.915   1_566 S
N142   Cu42    1.896   .     S
N143   C1360   1.433   .     S
C1357  C1358   1.405   .     D
C1357  C1362   1.403   .     S
C1357  N404    1.441   .     S
C1358  C1359   1.399   .     S
C1358  H856    1.140   .     S
C1359  C1360   1.407   .     D
C1359  H857    1.140   .     S
C1360  C1361   1.398   .     S
C1361  C1362   1.393   .     D
C1361  H858    1.140   .     S
C1362  H859    1.140   .     S
C1363  N432    1.445   .     S
C1363  C1368   1.407   .     S
C1363  C1364   1.404   .     D
C1364  C1365   1.390   .     S
C1364  H860    1.140   .     S
C1365  C1366   1.396   .     D
C1365  H861    1.140   .     S
C1366  C1367   1.407   .     S
C1366  N188    1.431   .     S
C1367  C1368   1.403   .     D
C1367  H862    1.140   1_655 S
C1368  H863    1.140   .     S
N144   C1784   1.431   .     S
N144   C1960   1.308   1_455 D
H862   C1367   1.140   1_455 S
F71    B21     1.417   .     S
F72    B21     1.416   .     S
H864   C3404   1.140   .     S
C1369  H865    1.140   .     S
C1369  C3576   1.470   .     S
C1370  H866    1.140   .     S
C1370  C1371   1.397   .     S
C1370  C1375   1.401   .     D
C1371  C1372   1.401   .     D
C1371  H867    1.140   .     S
C1372  C3079   1.470   .     S
C1372  C1373   1.405   .     S
C1373  C1374   1.395   .     D
C1373  H868    1.139   .     S
C1374  H869    1.140   .     S
C1374  C1375   1.404   .     S
C1375  C1794   1.474   .     S
C1376  C1377   1.406   .     D
C1376  C1793   1.474   .     S
C1376  N145    1.361   .     S
C1377  H870    1.140   .     S
C1377  C1378   1.403   .     S
C1378  H871    1.140   .     S
C1378  C1380   1.402   .     D
C1379  N145    1.363   .     D
C1379  C1380   1.404   .     S
C1379  C1759   1.416   1_564 S
C1380  C1381   1.406   .     S
C1381  H872    1.140   .     S
C1381  C1761   1.405   1_564 D
C1382  C1383   1.409   .     S
C1382  C1610   1.413   .     D
C1382  H873    1.140   .     S
C1383  C1385   1.408   .     D
C1383  C1384   1.398   .     S
C1384  N146    1.356   .     D
C1384  C1612   1.407   .     S
C1385  H874    1.140   .     S
C1385  C1386   1.411   .     S
C1386  C1387   1.406   .     D
C1386  H875    1.140   .     S
C1387  N146    1.349   .     S
C1387  C1616   1.423   .     S
C1388  C2914   1.402   .     S
C1388  C1389   1.397   .     D
C1388  C1615   1.423   .     S
C1389  C2911   1.389   .     S
C1389  H876    1.140   .     S
C1390  C3558   1.353   .     S
C1390  N212    1.308   .     D
C1390  H2256   1.140   .     S
C1391  H877    1.140   .     S
C1391  C2909   1.389   .     D
C1391  C1392   1.405   1_545 S
C1392  C1393   1.405   .     D
C1392  C3138   1.353   .     S
C1392  C1391   1.405   1_565 S
C1393  C1394   1.403   .     S
C1393  H878    1.140   .     S
C1394  H879    1.140   .     S
C1394  C2908   1.402   .     D
N145   Cu2     1.915   1_565 S
N146   Cu43    1.896   .     S
N147   C1398   1.433   .     S
C1395  C1396   1.405   .     D
C1395  C1400   1.403   .     S
C1395  N413    1.441   .     S
C1396  C1397   1.399   .     S
C1396  H880    1.140   .     S
C1397  H881    1.140   .     S
C1397  C1398   1.407   .     D
C1398  C1399   1.398   .     S
C1399  H882    1.140   .     S
C1399  C1400   1.393   .     D
C1400  H883    1.140   .     S
C1401  N424    1.445   .     S
C1401  C1406   1.407   .     D
C1401  C1402   1.404   .     S
C1402  C1403   1.390   .     D
C1402  H884    1.140   .     S
C1403  C1404   1.396   .     S
C1403  H885    1.140   .     S
C1404  C1405   1.407   .     D
C1404  N168    1.431   .     S
C1405  C1406   1.403   .     S
C1405  H886    1.140   1_455 S
C1406  H887    1.140   .     S
N148   C1594   1.431   .     S
N148   C2302   1.308   1_655 D
H886   C1405   1.140   1_655 S
F73    B22     1.417   .     S
F74    B22     1.416   .     S
H888   C3138   1.140   .     S
C1407  H889    1.140   .     S
C1407  C3614   1.470   .     S
C1408  C1409   1.397   .     D
C1408  C1413   1.401   .     S
C1408  H890    1.140   .     S
C1409  H891    1.140   .     S
C1409  C1410   1.401   1_556 S
C1410  C3041   1.470   .     S
C1410  C1411   1.405   .     D
C1410  C1409   1.401   1_554 S
C1411  C1412   1.395   .     S
C1411  H892    1.139   .     S
C1412  H893    1.140   .     S
C1412  C1413   1.404   1_554 D
C1413  C1756   1.474   .     S
C1413  C1412   1.404   1_556 D
C1414  C1415   1.406   .     D
C1414  C1755   1.474   .     S
C1414  N149    1.361   .     S
C1415  H894    1.140   .     S
C1415  C1416   1.403   .     S
C1416  H895    1.140   .     S
C1416  C1418   1.402   .     D
C1417  N149    1.363   .     D
C1417  C1418   1.404   .     S
C1417  C1797   1.416   .     S
C1418  C1419   1.406   .     S
C1419  H896    1.140   .     S
C1419  C1799   1.405   .     D
C1420  C1421   1.409   .     S
C1420  C1648   1.413   .     D
C1420  H897    1.140   .     S
C1421  C1422   1.398   .     S
C1421  C1423   1.408   .     D
C1422  C1650   1.407   .     S
C1422  N150    1.356   .     D
C1423  C1424   1.411   .     S
C1423  H898    1.140   .     S
C1424  H899    1.140   .     S
C1424  C1425   1.406   .     D
C1425  N150    1.349   .     S
C1425  C1654   1.423   1_556 S
C1426  C2952   1.402   .     S
C1426  C1427   1.397   .     D
C1426  C1653   1.423   1_554 S
C1427  H900    1.140   .     S
C1427  C2949   1.389   .     S
C1428  N216    1.308   .     D
C1428  C3520   1.353   .     S
C1428  H2232   1.140   .     S
C1429  H901    1.140   .     S
C1429  C2947   1.389   .     D
C1429  C1430   1.405   .     S
C1430  C1431   1.405   .     D
C1430  C3176   1.353   .     S
C1431  H902    1.140   .     S
C1431  C1432   1.403   .     S
C1432  C2946   1.402   .     D
C1432  H903    1.140   .     S
N149   Cu1     1.915   .     S
N150   Cu44    1.896   1_556 S
N151   C1436   1.433   .     S
C1433  C1438   1.403   .     D
C1433  N414    1.441   .     S
C1433  C1434   1.405   .     S
C1434  C1435   1.399   .     D
C1434  H904    1.140   .     S
C1435  H905    1.140   .     S
C1435  C1436   1.407   .     S
C1436  C1437   1.398   .     D
C1437  H906    1.140   .     S
C1437  C1438   1.393   .     S
C1438  H907    1.140   .     S
C1439  N425    1.445   .     S
C1439  C1444   1.407   .     D
C1439  C1440   1.404   .     S
C1440  C1441   1.390   .     D
C1440  H908    1.140   .     S
C1441  H909    1.140   .     S
C1441  C1442   1.396   .     S
C1442  C1443   1.407   .     D
C1442  N164    1.431   .     S
C1443  C1444   1.403   .     S
C1443  H910    1.140   1_455 S
C1444  H911    1.140   .     S
N152   C1556   1.431   .     S
N152   C2340   1.308   1_655 D
H910   C1443   1.140   1_655 S
F75    B23     1.417   .     S
F76    B23     1.416   .     S
H912   C3176   1.140   .     S
C1445  C3500   1.470   .     S
C1445  H913    1.140   .     S
C1446  H914    1.140   .     S
C1446  C1447   1.397   .     D
C1446  C1451   1.401   .     S
C1447  H915    1.140   .     S
C1447  C1448   1.401   1_556 S
C1448  C1449   1.405   .     D
C1448  C3155   1.470   .     S
C1448  C1447   1.401   1_554 S
C1449  C1450   1.395   .     S
C1449  H916    1.139   .     S
C1450  H917    1.140   .     S
C1450  C1451   1.404   1_554 D
C1451  C1718   1.474   .     S
C1451  C1450   1.404   1_556 D
C1452  C1453   1.406   .     D
C1452  C1717   1.474   .     S
C1452  N153    1.361   .     S
C1453  H918    1.140   .     S
C1453  C1454   1.403   .     S
C1454  H919    1.140   .     S
C1454  C1456   1.402   .     D
C1455  N153    1.363   .     D
C1455  C1456   1.404   .     S
C1455  C1683   1.416   1_565 S
C1456  C1457   1.406   .     S
C1457  H920    1.140   .     S
C1457  C1685   1.405   1_565 D
C1458  C1459   1.409   .     S
C1458  C1534   1.413   .     D
C1458  H921    1.140   .     S
C1459  C1460   1.398   .     S
C1459  C1461   1.408   .     D
C1460  C1536   1.407   .     S
C1460  N154    1.356   .     D
C1461  C1462   1.411   .     S
C1461  H922    1.140   .     S
C1462  H923    1.140   .     S
C1462  C1463   1.406   .     D
C1463  N154    1.349   .     S
C1463  C1540   1.423   1_556 S
C1464  C2990   1.402   .     D
C1464  C1465   1.397   .     S
C1464  C1539   1.423   1_554 S
C1465  H924    1.140   .     S
C1465  C2987   1.389   .     D
C1466  C3634   1.353   .     S
C1466  N220    1.308   .     D
C1466  H2304   1.140   .     S
C1467  C2985   1.389   .     D
C1467  H925    1.140   .     S
C1467  C1468   1.405   1_545 S
C1468  C1469   1.405   .     D
C1468  C3062   1.353   .     S
C1468  C1467   1.405   1_565 S
C1469  C1470   1.403   .     S
C1469  H926    1.140   .     S
C1470  C2984   1.402   .     D
C1470  H927    1.140   .     S
N153   Cu8     1.915   1_565 S
N154   Cu45    1.896   1_556 S
N155   C1474   1.433   .     S
C1471  C1472   1.405   .     D
C1471  C1476   1.403   .     S
C1471  N415    1.441   .     S
C1472  C1473   1.399   .     S
C1472  H928    1.140   .     S
C1473  H929    1.140   .     S
C1473  C1474   1.407   .     D
C1474  C1475   1.398   .     S
C1475  H930    1.140   .     S
C1475  C1476   1.393   .     D
C1476  H931    1.140   .     S
C1477  C1482   1.407   .     D
C1477  N417    1.445   .     S
C1477  C1478   1.404   .     S
C1478  C1479   1.390   .     D
C1478  H932    1.140   .     S
C1479  C1480   1.396   .     S
C1479  H933    1.140   .     S
C1480  C1481   1.407   .     D
C1480  N176    1.431   .     S
C1481  H934    1.140   .     S
C1481  C1482   1.403   .     S
C1482  H935    1.140   .     S
N156   C2378   1.308   .     D
N156   C1670   1.431   .     S
F77    B46     1.417   .     S
F78    B46     1.416   .     S
H936   C3062   1.140   .     S
C1483  H937    1.140   .     S
C1483  C3538   1.470   .     S
C1484  C1485   1.397   .     S
C1484  C1489   1.401   .     D
C1484  H938    1.140   .     S
C1485  C1486   1.401   .     D
C1485  H939    1.140   .     S
C1486  C1487   1.405   .     S
C1486  C3117   1.470   .     S
C1487  C1488   1.395   .     D
C1487  H940    1.139   .     S
C1488  H941    1.140   .     S
C1488  C1489   1.404   .     S
C1489  C1680   1.474   .     S
C1490  C1491   1.406   .     D
C1490  C1679   1.474   .     S
C1490  N157    1.361   .     S
C1491  H942    1.140   .     S
C1491  C1492   1.403   .     S
C1492  H943    1.140   .     S
C1492  C1494   1.402   .     D
C1493  N157    1.363   .     D
C1493  C1494   1.404   .     S
C1493  C1721   1.416   1_554 S
C1494  C1495   1.406   .     S
C1495  H944    1.140   .     S
C1495  C1723   1.405   1_554 D
C1496  C1497   1.409   .     S
C1496  C1572   1.413   .     D
C1496  H945    1.140   .     S
C1497  C1499   1.408   .     D
C1497  C1498   1.398   .     S
C1498  N158    1.356   .     D
C1498  C1574   1.407   .     S
C1499  H946    1.140   .     S
C1499  C1500   1.411   .     S
C1500  H947    1.140   .     S
C1500  C1501   1.406   .     D
C1501  N158    1.349   .     S
C1501  C1578   1.423   .     S
C1502  C3028   1.402   .     D
C1502  C1503   1.397   .     S
C1502  C1577   1.423   .     S
C1503  C3025   1.389   .     D
C1503  H948    1.140   .     S
C1504  N224    1.308   .     D
C1504  C3596   1.353   .     S
C1504  H2280   1.140   .     S
C1505  H949    1.140   .     S
C1505  C1506   1.405   .     S
C1505  C3023   1.389   .     D
C1506  C1507   1.405   .     D
C1506  C3100   1.353   .     S
C1507  H950    1.140   .     S
C1507  C1508   1.403   .     S
C1508  H951    1.140   .     S
C1508  C3022   1.402   .     D
N157   Cu7     1.915   .     S
N158   Cu46    1.896   .     S
N159   C1512   1.433   .     S
C1509  C1514   1.403   .     D
C1509  N416    1.441   .     S
C1509  C1510   1.405   .     S
C1510  C1511   1.399   .     D
C1510  H952    1.140   .     S
C1511  H953    1.140   .     S
C1511  C1512   1.407   .     S
C1512  C1513   1.398   .     D
C1513  H954    1.140   .     S
C1513  C1514   1.393   .     S
C1514  H955    1.140   .     S
C1515  C1520   1.407   .     D
C1515  N431    1.445   .     S
C1515  C1516   1.404   .     S
C1516  H956    1.140   .     S
C1516  C1517   1.390   .     D
C1517  C1518   1.396   .     S
C1517  H957    1.140   .     S
C1518  C1519   1.407   .     D
C1518  N172    1.431   .     S
C1519  H958    1.140   .     S
C1519  C1520   1.403   .     S
C1520  H959    1.140   .     S
N160   C1632   1.431   .     S
N160   C2416   1.308   .     D
F79    B45     1.417   .     S
F80    B45     1.416   .     S
H960   C3100   1.140   .     S
C1521  H961    1.140   .     S
C1521  C3120   1.470   .     S
C1522  C1523   1.397   .     D
C1522  H962    1.140   .     S
C1522  C1527   1.401   .     S
C1523  H963    1.140   .     S
C1523  C1524   1.401   1_556 S
C1524  C3535   1.470   .     S
C1524  C1525   1.405   .     D
C1524  C1523   1.401   1_554 S
C1525  H964    1.139   .     S
C1525  C1526   1.395   .     S
C1526  H965    1.140   .     S
C1526  C1527   1.404   1_554 D
C1527  C1526   1.404   1_556 D
C1528  C1529   1.406   .     S
C1528  N161    1.361   .     D
C1529  H966    1.140   .     S
C1529  C1530   1.403   .     D
C1530  H967    1.140   .     S
C1530  C1532   1.402   .     S
C1531  C1532   1.404   .     D
C1531  N161    1.363   .     S
C1532  C1533   1.406   .     S
C1533  H968    1.140   .     S
C1534  C1535   1.409   .     S
C1534  H969    1.140   .     S
C1535  C1536   1.398   .     D
C1535  C1537   1.408   .     S
C1536  N162    1.356   .     S
C1537  C1538   1.411   .     D
C1537  H970    1.140   .     S
C1538  H971    1.140   .     S
C1538  C1539   1.406   .     S
C1539  N162    1.349   .     D
C1539  C1464   1.423   1_556 S
C1540  C2610   1.402   .     S
C1540  C1541   1.397   .     D
C1540  C1463   1.423   1_554 S
C1541  C2607   1.389   .     S
C1541  H972    1.140   .     S
C1542  H1968   1.140   .     S
C1542  N196    1.308   .     D
C1542  C3102   1.353   .     S
C1543  H973    1.140   .     S
C1543  C2605   1.389   .     D
C1543  C1544   1.405   .     S
C1544  C3594   1.353   .     S
C1544  C1545   1.405   .     D
C1545  C1546   1.403   .     S
C1545  H974    1.140   .     S
C1546  H975    1.140   .     S
C1546  C2604   1.402   .     D
N161   Cu4     1.915   .     S
N162   Cu45    1.896   1_556 S
N163   C1550   1.433   .     S
C1547  C1548   1.405   .     D
C1547  C1552   1.403   .     S
C1547  N409    1.441   .     S
C1548  H976    1.140   .     S
C1548  C1549   1.399   .     S
C1549  H977    1.140   .     S
C1549  C1550   1.407   .     D
C1550  C1551   1.398   .     S
C1551  C1552   1.393   .     D
C1551  H978    1.140   .     S
C1552  H979    1.140   .     S
C1553  N420    1.445   .     S
C1553  C1558   1.407   .     D
C1553  C1554   1.404   .     S
C1554  C1555   1.390   .     D
C1554  H980    1.140   .     S
C1555  H981    1.140   .     S
C1555  C1556   1.396   .     S
C1556  C1557   1.407   .     D
C1557  C1558   1.403   .     S
C1557  H982    1.140   1_655 S
C1558  H983    1.140   .     S
N164   C2150   1.308   1_455 D
H982   C1557   1.140   1_455 S
F81    B24     1.417   .     S
F82    B24     1.416   .     S
H984   C3594   1.140   .     S
C1559  H985    1.140   .     S
C1559  C3158   1.470   .     S
C1560  C1561   1.397   .     S
C1560  C1565   1.401   .     D
C1560  H986    1.140   .     S
C1561  C1562   1.401   .     D
C1561  H987    1.140   .     S
C1562  C1563   1.405   .     S
C1562  C3497   1.470   .     S
C1563  C1564   1.395   .     D
C1563  H988    1.139   .     S
C1564  H989    1.140   .     S
C1564  C1565   1.404   .     S
C1566  N165    1.361   .     D
C1566  C1567   1.406   .     S
C1567  H990    1.140   .     S
C1567  C1568   1.403   .     D
C1568  C1570   1.402   .     S
C1568  H991    1.140   .     S
C1569  C1570   1.404   .     D
C1569  N165    1.363   .     S
C1569  C1341   1.416   1_544 S
C1570  C1571   1.406   .     S
C1571  H992    1.140   .     S
C1571  C1343   1.405   1_544 D
C1572  C1573   1.409   .     S
C1572  H993    1.140   .     S
C1573  C1575   1.408   .     S
C1573  C1574   1.398   .     D
C1574  N166    1.356   .     S
C1575  H994    1.140   .     S
C1575  C1576   1.411   .     D
C1576  H995    1.140   .     S
C1576  C1577   1.406   .     S
C1577  N166    1.349   .     D
C1578  C2648   1.402   .     S
C1578  C1579   1.397   .     D
C1579  C2645   1.389   .     S
C1579  H996    1.140   .     S
C1580  C3064   1.353   .     S
C1580  H1944   1.140   .     S
C1580  N200    1.308   .     D
C1581  H997    1.140   .     S
C1581  C2643   1.389   .     D
C1581  C1582   1.405   1_565 S
C1582  C3632   1.353   .     S
C1582  C1583   1.405   .     D
C1582  C1581   1.405   1_545 S
C1583  C1584   1.403   .     S
C1583  H998    1.140   .     S
C1584  H999    1.140   .     S
C1584  C2642   1.402   .     D
N165   Cu3     1.915   .     S
N166   Cu46    1.896   .     S
N167   C1588   1.433   .     S
C1585  C1586   1.405   .     D
C1585  C1590   1.403   .     S
C1585  N410    1.441   .     S
C1586  C1587   1.399   .     S
C1586  H1000   1.140   .     S
C1587  C1588   1.407   .     D
C1587  H1001   1.140   .     S
C1588  C1589   1.398   .     S
C1589  H1002   1.140   .     S
C1589  C1590   1.393   .     D
C1590  H1003   1.140   .     S
C1591  N429    1.445   .     S
C1591  C1596   1.407   .     D
C1591  C1592   1.404   .     S
C1592  C1593   1.390   .     D
C1592  H1004   1.140   .     S
C1593  H1005   1.140   .     S
C1593  C1594   1.396   .     S
C1594  C1595   1.407   .     D
C1595  C1596   1.403   .     S
C1595  H1006   1.140   1_655 S
C1596  H1007   1.140   .     S
N168   C2188   1.308   1_455 D
H1006  C1595   1.140   1_455 S
F83    B25     1.417   .     S
F84    B25     1.416   .     S
H1008  C3632   1.140   .     S
C1597  H1009   1.140   .     S
C1597  C3044   1.470   .     S
C1598  C1599   1.397   .     S
C1598  H1010   1.140   .     S
C1598  C1603   1.401   .     D
C1599  C1600   1.401   .     D
C1599  H1011   1.140   .     S
C1600  C3611   1.470   .     S
C1600  C1601   1.405   .     S
C1601  H1012   1.139   .     S
C1601  C1602   1.395   .     D
C1602  H1013   1.140   .     S
C1602  C1603   1.404   .     S
C1604  N169    1.361   .     D
C1604  C1605   1.406   .     S
C1605  H1014   1.140   .     S
C1605  C1606   1.403   .     D
C1606  C1608   1.402   .     S
C1606  H1015   1.140   .     S
C1607  C1608   1.404   .     D
C1607  N169    1.363   .     S
C1607  C1227   1.416   1_554 S
C1608  C1609   1.406   .     S
C1609  H1016   1.140   .     S
C1609  C1229   1.405   1_554 D
C1610  C1611   1.409   .     S
C1610  H1017   1.140   .     S
C1611  C1613   1.408   .     D
C1611  C1612   1.398   .     S
C1612  N170    1.356   .     D
C1613  H1018   1.140   .     S
C1613  C1614   1.411   .     S
C1614  C1615   1.406   .     D
C1614  H1019   1.140   .     S
C1615  N170    1.349   .     S
C1616  C2686   1.402   .     S
C1616  C1617   1.397   .     D
C1617  C2683   1.389   .     S
C1617  H1020   1.140   .     S
C1618  H2016   1.140   .     S
C1618  N204    1.308   .     D
C1618  C3178   1.353   .     S
C1619  C1620   1.405   .     S
C1619  H1021   1.140   .     S
C1619  C2681   1.389   .     D
C1620  C3518   1.353   .     S
C1620  C1621   1.405   .     D
C1621  C1622   1.403   .     S
C1621  H1022   1.140   .     S
C1622  H1023   1.140   .     S
C1622  C2680   1.402   .     D
N169   Cu6     1.915   .     S
N170   Cu43    1.896   .     S
N171   C1626   1.433   .     S
C1623  C1624   1.405   .     S
C1623  C1628   1.403   .     D
C1623  N411    1.441   .     S
C1624  H1024   1.140   .     S
C1624  C1625   1.399   .     D
C1625  H1025   1.140   .     S
C1625  C1626   1.407   .     S
C1626  C1627   1.398   .     D
C1627  H1026   1.140   .     S
C1627  C1628   1.393   .     S
C1628  H1027   1.140   .     S
C1629  N418    1.445   .     S
C1629  C1634   1.407   .     D
C1629  C1630   1.404   .     S
C1630  C1631   1.390   .     D
C1630  H1028   1.140   .     S
C1631  H1029   1.140   .     S
C1631  C1632   1.396   .     S
C1632  C1633   1.407   .     D
C1633  H1030   1.140   .     S
C1633  C1634   1.403   .     S
C1634  H1031   1.140   .     S
N172   C2226   1.308   .     D
F85    B44     1.417   .     S
F86    B44     1.416   .     S
H1032  C3518   1.140   .     S
C1635  H1033   1.140   .     S
C1635  C3082   1.470   .     S
C1636  C1637   1.397   .     D
C1636  C1641   1.401   .     S
C1636  H1034   1.140   .     S
C1637  H1035   1.140   .     S
C1637  C1638   1.401   1_556 S
C1638  C1639   1.405   .     D
C1638  C3573   1.470   .     S
C1638  C1637   1.401   1_554 S
C1639  C1640   1.395   .     S
C1639  H1036   1.139   .     S
C1640  H1037   1.140   .     S
C1640  C1641   1.404   1_554 D
C1641  C1640   1.404   1_556 D
C1642  C1643   1.406   .     S
C1642  N173    1.361   .     D
C1643  H1038   1.140   .     S
C1643  C1644   1.403   .     D
C1644  H1039   1.140   .     S
C1644  C1646   1.402   .     S
C1645  C1646   1.404   .     D
C1645  N173    1.363   .     S
C1645  C1265   1.416   1_545 S
C1646  C1647   1.406   .     S
C1647  H1040   1.140   .     S
C1647  C1267   1.405   1_545 D
C1648  C1649   1.409   .     S
C1648  H1041   1.140   .     S
C1649  C1650   1.398   .     S
C1649  C1651   1.408   .     D
C1650  N174    1.356   .     D
C1651  C1652   1.411   .     S
C1651  H1042   1.140   .     S
C1652  H1043   1.140   .     S
C1652  C1653   1.406   .     D
C1653  N174    1.349   .     S
C1653  C1426   1.423   1_556 S
C1654  C2724   1.402   .     S
C1654  C1655   1.397   .     D
C1654  C1425   1.423   1_554 S
C1655  H1044   1.140   .     S
C1655  C2721   1.389   .     S
C1656  C3140   1.353   .     S
C1656  H1992   1.140   .     S
C1656  N208    1.308   .     D
C1657  H1045   1.140   .     S
C1657  C2719   1.389   .     D
C1657  C1658   1.405   1_565 S
C1658  C1659   1.405   .     D
C1658  C3556   1.353   .     S
C1658  C1657   1.405   1_545 S
C1659  C1660   1.403   .     S
C1659  H1046   1.140   .     S
C1660  C2718   1.402   .     D
C1660  H1047   1.140   .     S
N173   Cu5     1.915   .     S
N174   Cu44    1.896   1_556 S
N175   C1664   1.433   .     S
C1661  C1662   1.405   .     D
C1661  C1666   1.403   .     S
C1661  N412    1.441   .     S
C1662  C1663   1.399   .     S
C1662  H1048   1.140   .     S
C1663  C1664   1.407   .     D
C1663  H1049   1.140   .     S
C1664  C1665   1.398   .     S
C1665  H1050   1.140   .     S
C1665  C1666   1.393   .     D
C1666  H1051   1.140   .     S
C1667  N419    1.445   .     S
C1667  C1672   1.407   .     D
C1667  C1668   1.404   .     S
C1668  C1669   1.390   .     D
C1668  H1052   1.140   .     S
C1669  H1053   1.140   .     S
C1669  C1670   1.396   .     S
C1670  C1671   1.407   .     D
C1671  H1054   1.140   .     S
C1671  C1672   1.403   .     S
C1672  H1055   1.140   .     S
N176   C2264   1.308   .     D
F87    B43     1.417   .     S
F88    B43     1.416   .     S
H1056  C3556   1.140   .     S
C1673  H1057   1.140   .     S
C1673  C3424   1.470   .     S
C1674  C1675   1.397   .     D
C1674  C1679   1.401   .     S
C1674  H1058   1.140   .     S
C1675  H1059   1.140   .     S
C1675  C1676   1.401   1_554 S
C1676  C1677   1.405   .     D
C1676  C3231   1.470   .     S
C1676  C1675   1.401   1_556 S
C1677  C1678   1.395   .     S
C1677  H1060   1.139   .     S
C1678  H1061   1.140   .     S
C1678  C1679   1.404   1_556 D
C1679  C1678   1.404   1_554 D
C1680  N177    1.361   .     S
C1680  C1681   1.406   .     D
C1681  H1062   1.140   .     S
C1681  C1682   1.403   .     S
C1682  C1684   1.402   .     D
C1682  H1063   1.140   .     S
C1683  N177    1.363   .     D
C1683  C1684   1.404   .     S
C1683  C1455   1.416   1_545 S
C1684  C1685   1.406   .     S
C1685  H1064   1.140   .     S
C1685  C1457   1.405   1_545 D
C1686  C1687   1.409   .     S
C1686  H1065   1.140   .     S
C1687  C1689   1.408   .     S
C1687  C1688   1.398   .     D
C1688  N178    1.356   .     S
C1689  H1066   1.140   .     S
C1689  C1690   1.411   .     D
C1690  H1067   1.140   .     S
C1690  C1691   1.406   .     S
C1691  N178    1.349   .     D
C1691  C1312   1.423   1_554 S
C1692  C2458   1.402   .     S
C1692  C1693   1.397   .     D
C1692  C1311   1.423   1_556 S
C1693  H1068   1.140   .     S
C1693  C2455   1.389   .     S
C1694  N244    1.308   .     D
C1694  C3406   1.353   .     S
C1694  H2160   1.140   .     S
C1695  C2453   1.389   .     D
C1695  H1069   1.140   .     S
C1695  C1696   1.405   1_565 S
C1696  C1697   1.405   .     D
C1696  C3290   1.353   .     S
C1696  C1695   1.405   1_545 S
C1697  H1070   1.140   .     S
C1697  C1698   1.403   .     S
C1698  C2452   1.402   .     D
C1698  H1071   1.140   .     S
N177   Cu8     1.915   .     S
N178   Cu41    1.896   1_554 S
N179   C1702   1.433   .     S
C1699  C1700   1.405   .     D
C1699  N405    1.441   .     S
C1699  C1704   1.403   .     S
C1700  C1701   1.399   .     S
C1700  H1072   1.140   .     S
C1701  H1073   1.140   .     S
C1701  C1702   1.407   .     D
C1702  C1703   1.398   .     S
C1703  H1074   1.140   .     S
C1703  C1704   1.393   .     D
C1704  H1075   1.140   .     S
C1705  C1710   1.407   .     D
C1705  C1706   1.404   .     S
C1705  N426    1.445   .     S
C1706  H1076   1.140   .     S
C1706  C1707   1.390   .     D
C1707  C1708   1.396   .     S
C1707  H1077   1.140   .     S
C1708  C1709   1.407   .     D
C1709  C1710   1.403   .     S
C1709  H1078   1.140   .     S
C1710  H1079   1.140   .     S
N180   C1998   1.308   .     D
F89    B26     1.417   .     S
F90    B26     1.416   .     S
H1080  C3290   1.140   .     S
C1711  H1081   1.140   .     S
C1711  C3462   1.470   .     S
C1712  C1713   1.397   .     S
C1712  H1082   1.140   .     S
C1712  C1717   1.401   .     D
C1713  H1083   1.140   .     S
C1713  C1714   1.401   .     D
C1714  C3193   1.470   .     S
C1714  C1715   1.405   .     S
C1715  H1084   1.139   .     S
C1715  C1716   1.395   .     D
C1716  H1085   1.140   .     S
C1716  C1717   1.404   .     S
C1718  N181    1.361   .     S
C1718  C1719   1.406   .     D
C1719  H1086   1.140   .     S
C1719  C1720   1.403   .     S
C1720  C1722   1.402   .     D
C1720  H1087   1.140   .     S
C1721  N181    1.363   .     D
C1721  C1722   1.404   .     S
C1721  C1493   1.416   1_556 S
C1722  C1723   1.406   .     S
C1723  H1088   1.140   .     S
C1723  C1495   1.405   1_556 D
C1724  C1725   1.409   .     S
C1724  H1089   1.140   .     S
C1725  C1727   1.408   .     S
C1725  C1726   1.398   .     D
C1726  N182    1.356   .     S
C1727  H1090   1.140   .     S
C1727  C1728   1.411   .     D
C1728  H1091   1.140   .     S
C1728  C1729   1.406   .     S
C1729  N182    1.349   .     D
C1730  C2496   1.402   .     S
C1730  C1731   1.397   .     D
C1731  H1092   1.140   .     S
C1731  C2493   1.389   .     S
C1732  N248    1.308   .     D
C1732  H2136   1.140   .     S
C1732  C3368   1.353   .     S
C1733  C2491   1.389   .     S
C1733  C1734   1.405   .     D
C1733  H1093   1.140   .     S
C1734  C3328   1.353   .     S
C1734  C1735   1.405   .     S
C1735  H1094   1.140   .     S
C1735  C1736   1.403   .     D
C1736  H1095   1.140   .     S
C1736  C2490   1.402   .     S
N181   Cu7     1.915   1_556 S
N182   Cu42    1.896   .     S
N183   C1740   1.433   .     S
C1737  C1738   1.405   .     D
C1737  C1742   1.403   .     S
C1737  N406    1.441   .     S
C1738  C1739   1.399   .     S
C1738  H1096   1.140   .     S
C1739  H1097   1.140   .     S
C1739  C1740   1.407   .     D
C1740  C1741   1.398   .     S
C1741  H1098   1.140   .     S
C1741  C1742   1.393   .     D
C1742  H1099   1.140   .     S
C1743  C1748   1.407   .     D
C1743  N427    1.445   .     S
C1743  C1744   1.404   .     S
C1744  H1100   1.140   .     S
C1744  C1745   1.390   .     D
C1745  C1746   1.396   .     S
C1745  H1101   1.140   .     S
C1746  C1747   1.407   .     D
C1747  H1102   1.140   .     S
C1747  C1748   1.403   .     S
C1748  H1103   1.140   .     S
N184   C2036   1.308   .     D
F91    B27     1.417   .     S
F92    B27     1.416   .     S
H1104  C3328   1.140   .     S
C1749  H1105   1.140   .     S
C1749  C3348   1.470   .     S
C1750  C1751   1.397   .     S
C1750  C1755   1.401   .     D
C1750  H1106   1.140   .     S
C1751  H1107   1.140   .     S
C1751  C1752   1.401   .     D
C1752  C3307   1.470   .     S
C1752  C1753   1.405   .     S
C1753  C1754   1.395   .     D
C1753  H1108   1.139   .     S
C1754  H1109   1.140   .     S
C1754  C1755   1.404   .     S
C1756  N185    1.361   .     S
C1756  C1757   1.406   .     D
C1757  H1110   1.140   .     S
C1757  C1758   1.403   .     S
C1758  C1760   1.402   .     D
C1758  H1111   1.140   .     S
C1759  N185    1.363   .     D
C1759  C1760   1.404   .     S
C1759  C1379   1.416   1_546 S
C1760  C1761   1.406   .     S
C1761  H1112   1.140   .     S
C1761  C1381   1.405   1_546 D
C1762  C1763   1.409   .     S
C1762  H1113   1.140   .     S
C1763  C1765   1.408   .     S
C1763  C1764   1.398   .     D
C1764  N186    1.356   .     S
C1765  H1114   1.140   .     S
C1765  C1766   1.411   .     D
C1766  C1767   1.406   .     S
C1766  H1115   1.140   .     S
C1767  N186    1.349   .     D
C1768  C2534   1.402   .     S
C1768  C1769   1.397   .     D
C1769  H1116   1.140   .     S
C1769  C2531   1.389   .     S
C1770  N252    1.308   .     D
C1770  C3482   1.353   .     S
C1770  H2208   1.140   .     S
C1771  H1117   1.140   .     S
C1771  C2529   1.389   .     D
C1771  C1772   1.405   1_565 S
C1772  C1773   1.405   .     D
C1772  C3214   1.353   .     S
C1772  C1771   1.405   1_545 S
C1773  H1118   1.140   .     S
C1773  C1774   1.403   .     S
C1774  C2528   1.402   .     D
C1774  H1119   1.140   .     S
N185   Cu2     1.915   1_556 S
N186   Cu47    1.896   .     S
N187   C1778   1.433   .     S
C1775  C1776   1.405   .     D
C1775  C1780   1.403   .     S
C1775  N407    1.441   .     S
C1776  C1777   1.399   .     S
C1776  H1120   1.140   .     S
C1777  C1778   1.407   .     D
C1777  H1121   1.140   .     S
C1778  C1779   1.398   .     S
C1779  H1122   1.140   .     S
C1779  C1780   1.393   .     D
C1780  H1123   1.140   .     S
C1781  N423    1.445   .     S
C1781  C1786   1.407   .     D
C1781  C1782   1.404   .     S
C1782  C1783   1.390   .     D
C1782  H1124   1.140   .     S
C1783  C1784   1.396   .     S
C1783  H1125   1.140   .     S
C1784  C1785   1.407   .     D
C1785  C1786   1.403   .     S
C1785  H1126   1.140   1_455 S
C1786  H1127   1.140   .     S
N188   C2074   1.308   1_655 D
H1126  C1785   1.140   1_655 S
F93    B48     1.417   .     S
F94    B48     1.416   .     S
H1128  C3214   1.140   .     S
C1787  H1129   1.140   .     S
C1787  C3386   1.470   .     S
C1788  C1789   1.397   .     D
C1788  C1793   1.401   .     S
C1788  H1130   1.140   .     S
C1789  H1131   1.140   .     S
C1789  C1790   1.401   1_554 S
C1790  C3269   1.470   .     S
C1790  C1791   1.405   .     D
C1790  C1789   1.401   1_556 S
C1791  H1132   1.139   .     S
C1791  C1792   1.395   .     S
C1792  H1133   1.140   .     S
C1792  C1793   1.404   1_556 D
C1793  C1792   1.404   1_554 D
C1794  N189    1.361   .     S
C1794  C1795   1.406   .     D
C1795  H1134   1.140   .     S
C1795  C1796   1.403   .     S
C1796  C1798   1.402   .     D
C1796  H1135   1.140   .     S
C1797  N189    1.363   .     D
C1797  C1798   1.404   .     S
C1798  C1799   1.406   .     S
C1799  H1136   1.140   .     S
C1800  C1801   1.409   .     S
C1800  H1137   1.140   .     S
C1801  C1803   1.408   .     S
C1801  C1802   1.398   .     D
C1802  N190    1.356   .     S
C1803  H1138   1.140   .     S
C1803  C1804   1.411   .     D
C1804  C1805   1.406   .     S
C1804  H1139   1.140   .     S
C1805  N190    1.349   .     D
C1805  C1274   1.423   1_554 S
C1806  C2572   1.402   .     S
C1806  C1807   1.397   .     D
C1806  C1273   1.423   1_556 S
C1807  H1140   1.140   .     S
C1807  C2569   1.389   .     S
C1808  N256    1.308   .     D
C1808  H2184   1.140   .     S
C1808  C3444   1.353   .     S
C1809  C1810   1.405   .     D
C1809  H1141   1.140   .     S
C1809  C2567   1.389   .     S
C1810  C3252   1.353   .     S
C1810  C1811   1.405   .     S
C1811  H1142   1.140   .     S
C1811  C1812   1.403   .     D
C1812  H1143   1.140   .     S
C1812  C2566   1.402   .     S
N189   Cu1     1.915   .     S
N190   Cu48    1.896   1_554 S
N191   C1816   1.433   .     S
C1813  C1814   1.405   .     D
C1813  N408    1.441   .     S
C1813  C1818   1.403   .     S
C1814  H1144   1.140   .     S
C1814  C1815   1.399   .     S
C1815  H1145   1.140   .     S
C1815  C1816   1.407   .     D
C1816  C1817   1.398   .     S
C1817  H1146   1.140   .     S
C1817  C1818   1.393   .     D
C1818  H1147   1.140   .     S
C1819  C1820   1.404   .     S
C1819  C1824   1.407   .     D
C1819  N428    1.445   .     S
C1820  C1821   1.390   .     D
C1820  H1148   1.140   .     S
C1821  C1822   1.396   .     S
C1821  H1149   1.140   .     S
C1822  C1823   1.407   .     D
C1823  C1824   1.403   .     S
C1823  H1150   1.140   1_455 S
C1824  H1151   1.140   .     S
N192   C2112   1.308   1_655 D
H1150  C1823   1.140   1_655 S
F95    B47     1.417   .     S
F96    B47     1.416   .     S
H1152  C3252   1.140   .     S
C1825  H1153   1.140   .     S
C1825  N303    1.297   .     D
C1826  C1827   1.397   .     S
C1826  C1831   1.401   .     D
C1826  H1154   1.140   .     S
C1827  H1155   1.140   .     S
C1827  C1828   1.401   .     D
C1828  C1829   1.405   .     S
C1829  C1830   1.395   .     D
C1829  H1156   1.139   .     S
C1830  C1831   1.404   .     S
C1830  H1157   1.140   .     S
C1831  C2212   1.474   .     S
C1832  N193    1.361   .     D
C1832  C2211   1.474   .     S
C1832  C1833   1.406   .     S
C1833  H1158   1.140   .     S
C1833  C1834   1.403   .     D
C1834  C1836   1.402   .     S
C1834  H1159   1.140   .     S
C1835  C1836   1.404   .     D
C1835  N193    1.363   .     S
C1835  C2253   1.416   .     S
C1836  C1837   1.406   .     S
C1837  H1160   1.140   .     S
C1837  C2255   1.405   .     D
C1838  C1839   1.409   .     S
C1838  H1161   1.140   .     S
C1838  C2408   1.413   1_554 D
C1839  C1840   1.398   .     S
C1839  C1841   1.408   .     D
C1840  N194    1.356   .     D
C1840  C2410   1.407   1_554 S
C1841  C1842   1.411   .     S
C1841  H1162   1.140   .     S
C1842  C1843   1.406   .     D
C1842  H1163   1.140   .     S
C1843  N194    1.349   .     S
C1843  C2414   1.423   .     S
C1844  C2413   1.423   .     S
C1844  C1845   1.397   1_556 S
C1845  H1164   1.140   .     S
C1845  C1844   1.397   1_554 S
C1847  H1165   1.140   .     S
C1847  C1848   1.405   .     S
C1848  C1849   1.405   .     D
C1849  C1850   1.403   .     S
C1849  H1166   1.140   .     S
C1850  H1167   1.140   .     S
N193   Cu38    1.915   .     S
N194   Cu13    1.896   .     S
N195   C1854   1.433   .     S
N195   C3231   1.297   .     D
C1851  C1852   1.405   .     D
C1851  C1856   1.403   .     S
C1851  N397    1.441   .     S
C1852  C1853   1.399   .     S
C1852  H1168   1.140   .     S
C1853  C1854   1.407   .     D
C1853  H1169   1.140   .     S
C1854  C1855   1.398   .     S
C1855  H1170   1.140   .     S
C1855  C1856   1.393   .     D
C1856  H1171   1.140   .     S
C1857  N448    1.445   .     S
C1857  C1858   1.404   .     D
C1857  C1862   1.407   .     S
C1858  C1859   1.390   .     S
C1858  H1172   1.140   .     S
C1859  C1860   1.396   .     D
C1859  H1173   1.140   .     S
C1860  C1861   1.407   .     S
C1860  N248    1.431   .     S
C1861  C1862   1.403   .     D
C1861  H1174   1.140   .     S
C1862  H1175   1.140   .     S
N196   C2354   1.431   .     S
F97    B28     1.417   .     S
F98    B28     1.416   .     S
C1863  H1177   1.140   .     S
C1863  N299    1.297   .     D
C1864  C1865   1.397   .     S
C1864  C1869   1.401   .     D
C1864  H1178   1.140   .     S
C1865  H1179   1.140   .     S
C1865  C1866   1.401   .     D
C1866  C1867   1.405   .     S
C1867  C1868   1.395   .     D
C1867  H1180   1.139   .     S
C1868  H1181   1.140   .     S
C1868  C1869   1.404   .     S
C1869  C2250   1.474   .     S
C1870  N197    1.361   .     D
C1870  C2249   1.474   .     S
C1870  C1871   1.406   .     S
C1871  H1182   1.140   .     S
C1871  C1872   1.403   .     D
C1872  C1874   1.402   .     S
C1872  H1183   1.140   .     S
C1873  C1874   1.404   .     D
C1873  N197    1.363   .     S
C1873  C2215   1.416   .     S
C1874  C1875   1.406   .     S
C1875  H1184   1.140   .     S
C1875  C2217   1.405   .     D
C1876  C2370   1.413   .     D
C1876  C1877   1.409   .     S
C1876  H1185   1.140   .     S
C1877  C1879   1.408   .     D
C1877  C1878   1.398   .     S
C1878  C2372   1.407   .     S
C1878  N198    1.356   .     D
C1879  H1186   1.140   .     S
C1879  C1880   1.411   .     S
C1880  C1881   1.406   .     D
C1880  H1187   1.140   .     S
C1881  N198    1.349   .     S
C1881  C2376   1.423   .     S
C1882  C2375   1.423   .     S
C1882  C1883   1.397   .     S
C1883  H1188   1.140   .     S
C1885  C1886   1.405   .     S
C1885  H1189   1.140   .     S
C1886  C1887   1.405   .     D
C1887  C1888   1.403   .     S
C1887  H1190   1.140   .     S
C1888  H1191   1.140   .     S
N197   Cu37    1.915   .     S
N198   Cu14    1.896   .     S
N199   C3193   1.297   .     D
N199   C1892   1.433   .     S
C1889  C1890   1.405   .     D
C1889  C1894   1.403   .     S
C1889  N398    1.441   .     S
C1890  H1192   1.140   .     S
C1890  C1891   1.399   .     S
C1891  H1193   1.140   .     S
C1891  C1892   1.407   .     D
C1892  C1893   1.398   .     S
C1893  H1194   1.140   .     S
C1893  C1894   1.393   .     D
C1894  H1195   1.140   .     S
C1895  N435    1.445   .     S
C1895  C1900   1.407   .     D
C1895  C1896   1.404   .     S
C1896  C1897   1.390   .     D
C1896  H1196   1.140   .     S
C1897  C1898   1.396   .     S
C1897  H1197   1.140   .     S
C1898  C1899   1.407   .     D
C1898  N244    1.431   .     S
C1899  H1198   1.140   .     S
C1899  C1900   1.403   .     S
C1900  H1199   1.140   .     S
N200   C2316   1.431   .     S
F99    B29     1.417   .     S
F100   B29     1.416   .     S
C1901  H1201   1.140   .     S
C1901  N295    1.297   .     D
C1902  C1903   1.397   .     D
C1902  H1202   1.140   .     S
C1902  C1907   1.401   1_455 S
C1903  H1203   1.140   .     S
C1903  C1904   1.401   .     S
C1904  C1905   1.405   .     D
C1905  H1204   1.139   .     S
C1905  C1906   1.395   1_455 S
C1906  C1907   1.404   .     D
C1906  H1205   1.140   .     S
C1906  C1905   1.395   1_655 S
C1907  C2136   1.474   .     S
C1907  C1902   1.401   1_655 S
C1908  N201    1.361   .     D
C1908  C2135   1.474   .     S
C1908  C1909   1.406   .     S
C1909  H1206   1.140   .     S
C1909  C1910   1.403   .     D
C1910  C1912   1.402   .     S
C1910  H1207   1.140   .     S
C1911  C1912   1.404   .     D
C1911  N201    1.363   .     S
C1911  C2177   1.416   .     S
C1912  C1913   1.406   .     S
C1913  H1208   1.140   .     S
C1913  C2179   1.405   .     D
C1914  C1915   1.409   .     S
C1914  H1209   1.140   .     S
C1914  C2332   1.413   1_655 D
C1915  C1917   1.408   .     D
C1915  C1916   1.398   .     S
C1916  N202    1.356   .     D
C1916  C2334   1.407   1_655 S
C1917  C1918   1.411   .     S
C1917  H1210   1.140   .     S
C1918  C1919   1.406   .     D
C1918  H1211   1.140   .     S
C1919  N202    1.349   .     S
C1919  C2338   1.423   .     S
C1920  C2337   1.423   .     S
C1920  C1921   1.397   .     S
C1921  H1212   1.140   .     S
C1922  N140    1.308   1_655 D
C1923  H1213   1.140   .     S
C1923  C1924   1.405   .     S
C1924  C1925   1.405   .     D
C1925  C1926   1.403   .     S
C1925  H1214   1.140   .     S
C1926  H1215   1.140   .     S
N201   Cu35    1.915   .     S
N202   Cu12    1.896   1_655 S
N203   C3307   1.297   .     D
N203   C1930   1.433   .     S
C1927  C1932   1.403   .     D
C1927  C1928   1.405   .     S
C1927  N399    1.441   .     S
C1928  H1216   1.140   .     S
C1928  C1929   1.399   .     D
C1929  H1217   1.140   .     S
C1929  C1930   1.407   .     S
C1930  C1931   1.398   .     D
C1931  H1218   1.140   .     S
C1931  C1932   1.393   .     S
C1932  H1219   1.140   .     S
C1933  N434    1.445   .     S
C1933  C1934   1.404   .     D
C1933  C1938   1.407   .     S
C1934  C1935   1.390   .     S
C1934  H1220   1.140   .     S
C1935  C1936   1.396   .     D
C1935  H1221   1.140   .     S
C1936  C1937   1.407   .     S
C1936  N256    1.431   .     S
C1937  C1938   1.403   .     D
C1937  H1222   1.140   .     S
C1938  H1223   1.140   .     S
N204   C2430   1.431   .     S
F101   B13     1.417   .     S
F102   B13     1.416   .     S
C1939  H1225   1.140   .     S
C1939  N291    1.297   .     D
C1940  C1941   1.397   .     D
C1940  H1226   1.140   .     S
C1940  C1945   1.401   1_455 S
C1941  H1227   1.140   .     S
C1941  C1942   1.401   .     S
C1942  C1943   1.405   .     D
C1943  H1228   1.139   .     S
C1943  C1944   1.395   1_455 S
C1944  H1229   1.140   .     S
C1944  C1945   1.404   .     D
C1944  C1943   1.395   1_655 S
C1945  C2174   1.474   .     S
C1945  C1940   1.401   1_655 S
C1946  N205    1.361   .     D
C1946  C2173   1.474   .     S
C1946  C1947   1.406   .     S
C1947  H1230   1.140   .     S
C1947  C1948   1.403   .     D
C1948  C1950   1.402   .     S
C1948  H1231   1.140   .     S
C1949  C1950   1.404   .     D
C1949  N205    1.363   .     S
C1949  C2139   1.416   .     S
C1950  C1951   1.406   .     S
C1951  H1232   1.140   .     S
C1951  C2141   1.405   .     D
C1952  C1953   1.409   .     S
C1952  H1233   1.140   .     S
C1952  C2294   1.413   1_654 D
C1953  C1955   1.408   .     D
C1953  C1954   1.398   .     S
C1954  N206    1.356   .     D
C1954  C2296   1.407   1_654 S
C1955  H1234   1.140   .     S
C1955  C1956   1.411   .     S
C1956  C1957   1.406   .     D
C1956  H1235   1.140   .     S
C1957  N206    1.349   .     S
C1957  C2300   1.423   .     S
C1958  C2299   1.423   .     S
C1958  C1959   1.397   1_556 S
C1959  H1236   1.140   .     S
C1959  C1958   1.397   1_554 S
C1960  N144    1.308   1_655 D
C1961  H1237   1.140   .     S
C1961  C1962   1.405   .     S
C1962  C1963   1.405   .     D
C1963  C1964   1.403   .     S
C1963  H1238   1.140   .     S
C1964  H1239   1.140   .     S
N205   Cu36    1.915   .     S
N206   Cu11    1.896   1_655 S
N207   C1968   1.433   .     S
N207   C3269   1.297   .     D
C1965  C1966   1.405   .     D
C1965  C1970   1.403   .     S
C1965  N400    1.441   .     S
C1966  C1967   1.399   .     S
C1966  H1240   1.140   .     S
C1967  C1968   1.407   .     D
C1967  H1241   1.140   .     S
C1968  C1969   1.398   .     S
C1969  H1242   1.140   .     S
C1969  C1970   1.393   .     D
C1970  H1243   1.140   .     S
C1971  N442    1.445   .     S
C1971  C1976   1.407   .     D
C1971  C1972   1.404   .     S
C1972  C1973   1.390   .     D
C1972  H1244   1.140   .     S
C1973  C1974   1.396   .     S
C1973  H1245   1.140   .     S
C1974  C1975   1.407   .     D
C1974  N252    1.431   .     S
C1975  H1246   1.140   .     S
C1975  C1976   1.403   .     S
C1976  H1247   1.140   .     S
N208   C2392   1.431   .     S
F103   B14     1.417   .     S
F104   B14     1.416   .     S
C1977  N271    1.297   .     D
C1977  H1249   1.140   .     S
C1978  C1979   1.397   .     S
C1978  C1983   1.401   .     D
C1978  H1250   1.140   .     S
C1979  C1980   1.401   .     D
C1979  H1251   1.140   .     S
C1980  C1981   1.405   .     S
C1981  C1982   1.395   .     D
C1981  H1252   1.139   .     S
C1982  C1983   1.404   .     S
C1982  H1253   1.140   .     S
C1983  C2364   1.474   .     S
C1984  N209    1.361   .     D
C1984  C2363   1.474   .     S
C1984  C1985   1.406   .     S
C1985  H1254   1.140   .     S
C1985  C1986   1.403   .     D
C1986  C1988   1.402   .     S
C1986  H1255   1.140   .     S
C1987  N209    1.363   .     S
C1987  C1988   1.404   .     S
C1987  C2405   1.416   .     D
C1988  C1989   1.406   .     D
C1989  H1256   1.140   .     S
C1989  C2407   1.405   .     S
C1990  C2256   1.413   .     D
C1990  C1991   1.409   .     S
C1990  H1257   1.140   .     S
C1991  C1993   1.408   .     D
C1991  C1992   1.398   .     S
C1992  C2258   1.407   .     S
C1992  N210    1.356   .     D
C1993  H1258   1.140   .     S
C1993  C1994   1.411   .     S
C1994  H1259   1.140   .     S
C1994  C1995   1.406   .     D
C1995  N210    1.349   .     S
C1995  C2262   1.423   .     S
C1996  C2261   1.423   .     S
C1996  C1997   1.397   .     S
C1997  H1260   1.140   .     S
C1999  H1261   1.140   .     S
C1999  C2000   1.405   .     D
C2000  C2001   1.405   .     S
C2001  H1262   1.140   .     S
C2001  C2002   1.403   .     D
C2002  H1263   1.140   .     S
N209   Cu34    1.915   .     S
N210   Cu9     1.896   .     S
N211   C3383   1.297   .     D
N211   C2006   1.433   .     S
C2003  C2004   1.405   .     D
C2003  C2008   1.403   .     S
C2003  N393    1.441   .     S
C2004  H1264   1.140   .     S
C2004  C2005   1.399   .     S
C2005  H1265   1.140   .     S
C2005  C2006   1.407   .     D
C2006  C2007   1.398   .     S
C2007  C2008   1.393   .     D
C2007  H1266   1.140   .     S
C2008  H1267   1.140   .     S
C2009  C2014   1.407   .     S
C2009  C2010   1.404   .     D
C2009  N443    1.445   .     S
C2010  H1268   1.140   .     S
C2010  C2011   1.390   .     S
C2011  C2012   1.396   .     D
C2011  H1269   1.140   .     S
C2012  C2013   1.407   .     S
C2012  N232    1.431   .     S
C2013  H1270   1.140   .     S
C2013  C2014   1.403   .     D
C2014  H1271   1.140   .     S
N212   C2202   1.431   .     S
F105   B30     1.417   .     S
F106   B30     1.416   .     S
C2015  H1273   1.140   .     S
C2015  N267    1.297   .     D
C2016  C2017   1.397   .     S
C2016  C2021   1.401   .     D
C2016  H1274   1.140   .     S
C2017  H1275   1.140   .     S
C2017  C2018   1.401   .     D
C2018  C2019   1.405   .     S
C2019  C2020   1.395   .     D
C2019  H1276   1.139   .     S
C2020  H1277   1.140   .     S
C2020  C2021   1.404   .     S
C2021  C2402   1.474   .     S
C2022  N213    1.361   .     S
C2022  C2023   1.406   .     D
C2022  C2401   1.474   .     S
C2023  H1278   1.140   .     S
C2023  C2024   1.403   .     S
C2024  C2026   1.402   .     D
C2024  H1279   1.140   .     S
C2025  N213    1.363   .     D
C2025  C2026   1.404   .     S
C2025  C2367   1.416   .     S
C2026  C2027   1.406   .     S
C2027  H1280   1.140   .     S
C2027  C2369   1.405   .     D
C2028  C2029   1.409   .     S
C2028  H1281   1.140   .     S
C2028  C2218   1.413   1_554 D
C2029  C2031   1.408   .     D
C2029  C2030   1.398   .     S
C2030  N214    1.356   .     D
C2030  C2220   1.407   1_554 S
C2031  H1282   1.140   .     S
C2031  C2032   1.411   .     S
C2032  H1283   1.140   .     S
C2032  C2033   1.406   .     D
C2033  N214    1.349   .     S
C2033  C2224   1.423   .     S
C2034  C2223   1.423   .     S
C2034  C2035   1.397   1_556 S
C2035  H1284   1.140   .     S
C2035  C2034   1.397   1_554 S
C2037  H1285   1.140   .     S
C2037  C2038   1.405   .     D
C2038  C2039   1.405   .     S
C2039  H1286   1.140   .     S
C2039  C2040   1.403   .     D
C2040  H1287   1.140   .     S
N213   Cu33    1.915   .     S
N214   Cu10    1.896   .     S
N215   C2044   1.433   .     S
N215   C3345   1.297   .     D
C2041  C2042   1.405   .     D
C2041  N394    1.441   .     S
C2041  C2046   1.403   .     S
C2042  H1288   1.140   .     S
C2042  C2043   1.399   .     S
C2043  C2044   1.407   .     D
C2043  H1289   1.140   .     S
C2044  C2045   1.398   .     S
C2045  C2046   1.393   .     D
C2045  H1290   1.140   .     S
C2046  H1291   1.140   .     S
C2047  C2052   1.407   .     S
C2047  N444    1.445   .     S
C2047  C2048   1.404   .     D
C2048  H1292   1.140   .     S
C2048  C2049   1.390   .     S
C2049  C2050   1.396   .     D
C2049  H1293   1.140   .     S
C2050  C2051   1.407   .     S
C2050  N228    1.431   .     S
C2051  H1294   1.140   .     S
C2051  C2052   1.403   .     D
C2052  H1295   1.140   .     S
N216   C2164   1.431   .     S
F107   B31     1.417   .     S
F108   B31     1.416   .     S
C2053  N263    1.297   .     D
C2053  H1297   1.140   .     S
C2054  C2055   1.397   .     S
C2054  H1298   1.140   .     S
C2054  C2059   1.401   1_655 D
C2055  C2056   1.401   .     D
C2055  H1299   1.140   .     S
C2056  C2057   1.405   .     S
C2057  H1300   1.139   .     S
C2057  C2058   1.395   1_655 D
C2058  C2059   1.404   .     S
C2058  H1301   1.140   .     S
C2058  C2057   1.395   1_455 D
C2059  C2288   1.474   .     S
C2059  C2054   1.401   1_455 D
C2060  N217    1.361   .     D
C2060  C2061   1.406   .     S
C2060  C2287   1.474   .     S
C2061  H1302   1.140   .     S
C2061  C2062   1.403   .     D
C2062  C2064   1.402   .     S
C2062  H1303   1.140   .     S
C2063  C2064   1.404   .     D
C2063  N217    1.363   .     S
C2063  C2329   1.416   .     S
C2064  C2065   1.406   .     S
C2065  H1304   1.140   .     S
C2065  C2331   1.405   .     D
C2066  C2067   1.409   .     S
C2066  H1305   1.140   .     S
C2066  C2180   1.413   1_454 D
C2067  C2068   1.398   .     S
C2067  C2069   1.408   .     D
C2068  N218    1.356   .     D
C2068  C2182   1.407   1_454 S
C2069  H1306   1.140   .     S
C2069  C2070   1.411   .     S
C2070  H1307   1.140   .     S
C2070  C2071   1.406   .     D
C2071  N218    1.349   .     S
C2071  C2186   1.423   .     S
C2072  C2185   1.423   .     S
C2072  C2073   1.397   1_556 S
C2073  H1308   1.140   .     S
C2073  C2072   1.397   1_554 S
C2074  N188    1.308   1_455 D
C2075  H1309   1.140   .     S
C2075  C2076   1.405   .     D
C2076  C2077   1.405   .     S
C2077  H1310   1.140   .     S
C2077  C2078   1.403   .     D
C2078  H1311   1.140   .     S
N217   Cu39    1.915   .     S
N218   Cu16    1.896   .     S
N219   C2082   1.433   .     S
N219   C3459   1.297   .     D
C2079  C2080   1.405   .     D
C2079  C2084   1.403   .     S
C2079  N395    1.441   .     S
C2080  C2081   1.399   .     S
C2080  H1312   1.140   .     S
C2081  C2082   1.407   .     D
C2081  H1313   1.140   .     S
C2082  C2083   1.398   .     S
C2083  H1314   1.140   .     S
C2083  C2084   1.393   .     D
C2084  H1315   1.140   .     S
C2085  C2086   1.404   .     D
C2085  N433    1.445   .     S
C2085  C2090   1.407   .     S
C2086  H1316   1.140   .     S
C2086  C2087   1.390   .     S
C2087  H1317   1.140   .     S
C2087  C2088   1.396   .     D
C2088  C2089   1.407   .     S
C2088  N240    1.431   .     S
C2089  H1318   1.140   .     S
C2089  C2090   1.403   .     D
C2090  H1319   1.140   .     S
N220   C2278   1.431   .     S
F109   B17     1.417   .     S
F110   B17     1.416   .     S
C2091  H1321   1.140   .     S
C2091  N259    1.297   .     D
C2092  C2093   1.397   .     S
C2092  H1322   1.140   .     S
C2092  C2097   1.401   1_655 D
C2093  H1323   1.140   .     S
C2093  C2094   1.401   .     D
C2094  C2095   1.405   .     S
C2095  H1324   1.139   .     S
C2095  C2096   1.395   1_655 D
C2096  H1325   1.140   .     S
C2096  C2097   1.404   .     S
C2096  C2095   1.395   1_455 D
C2097  C2326   1.474   .     S
C2097  C2092   1.401   1_455 D
C2098  N221    1.361   .     D
C2098  C2325   1.474   .     S
C2098  C2099   1.406   .     S
C2099  H1326   1.140   .     S
C2099  C2100   1.403   .     D
C2100  H1327   1.140   .     S
C2100  C2102   1.402   .     S
C2101  C2102   1.404   .     D
C2101  N221    1.363   .     S
C2101  C2291   1.416   .     S
C2102  C2103   1.406   .     S
C2103  H1328   1.140   .     S
C2103  C2293   1.405   .     D
C2104  C2105   1.409   .     S
C2104  H1329   1.140   .     S
C2104  C2142   1.413   1_455 D
C2105  C2107   1.408   .     D
C2105  C2106   1.398   .     S
C2106  N222    1.356   .     D
C2106  C2144   1.407   1_455 S
C2107  H1330   1.140   .     S
C2107  C2108   1.411   .     S
C2108  H1331   1.140   .     S
C2108  C2109   1.406   .     D
C2109  N222    1.349   .     S
C2109  C2148   1.423   .     S
C2110  C2147   1.423   .     S
C2110  C2111   1.397   .     S
C2111  H1332   1.140   .     S
C2112  N192    1.308   1_455 D
C2113  C2114   1.405   .     D
C2113  H1333   1.140   .     S
C2114  C2115   1.405   .     S
C2115  H1334   1.140   .     S
C2115  C2116   1.403   .     D
C2116  H1335   1.140   .     S
N221   Cu40    1.915   .     S
N222   Cu15    1.896   .     S
N223   C3421   1.297   .     D
N223   C2120   1.433   .     S
C2117  C2118   1.405   .     D
C2117  C2122   1.403   .     S
C2117  N396    1.441   .     S
C2118  H1336   1.140   .     S
C2118  C2119   1.399   .     S
C2119  H1337   1.140   .     S
C2119  C2120   1.407   .     D
C2120  C2121   1.398   .     S
C2121  H1338   1.140   .     S
C2121  C2122   1.393   .     D
C2122  H1339   1.140   .     S
C2123  N440    1.445   .     S
C2123  C2128   1.407   .     S
C2123  C2124   1.404   .     D
C2124  C2125   1.390   .     S
C2124  H1340   1.140   .     S
C2125  H1341   1.140   .     S
C2125  C2126   1.396   .     D
C2126  C2127   1.407   .     S
C2126  N236    1.431   .     S
C2127  H1342   1.140   .     S
C2127  C2128   1.403   .     D
C2128  H1343   1.140   .     S
N224   C2240   1.431   .     S
F111   B18     1.417   .     S
F112   B18     1.416   .     S
C2129  H1345   1.140   .     S
C2129  N287    1.297   .     D
C2130  C2131   1.397   .     S
C2130  H1346   1.140   .     S
C2130  C2135   1.401   1_455 D
C2131  H1347   1.140   .     S
C2131  C2132   1.401   .     D
C2132  C2133   1.405   .     S
C2133  H1348   1.139   .     S
C2133  C2134   1.395   1_455 D
C2134  H1349   1.140   .     S
C2134  C2135   1.404   .     S
C2134  C2133   1.395   1_655 D
C2135  C2130   1.401   1_655 D
C2136  C2137   1.406   .     S
C2136  N225    1.361   .     D
C2137  C2138   1.403   .     D
C2137  H1350   1.140   .     S
C2138  H1351   1.140   .     S
C2138  C2140   1.402   .     S
C2139  C2140   1.404   .     D
C2139  N225    1.363   .     S
C2140  C2141   1.406   .     S
C2141  H1352   1.140   .     S
C2142  C2143   1.409   .     S
C2142  H1353   1.140   .     S
C2142  C2104   1.413   1_655 D
C2143  C2145   1.408   .     S
C2143  C2144   1.398   .     D
C2144  N226    1.356   .     S
C2144  C2106   1.407   1_655 S
C2145  H1354   1.140   .     S
C2145  C2146   1.411   .     D
C2146  C2147   1.406   .     S
C2146  H1355   1.140   .     S
C2147  N226    1.349   .     D
C2148  C2149   1.397   .     D
C2149  H1356   1.140   .     S
C2150  N164    1.308   1_655 D
C2151  H1357   1.140   .     S
C2151  C2152   1.405   .     D
C2152  C2153   1.405   .     S
C2153  C2154   1.403   .     D
C2153  H1358   1.140   .     S
C2154  H1359   1.140   .     S
N225   Cu36    1.915   .     S
N226   Cu15    1.896   1_655 S
N227   C2158   1.433   .     S
N227   C3079   1.297   .     D
C2155  C2160   1.403   .     D
C2155  N385    1.441   .     S
C2155  C2156   1.405   .     S
C2156  C2157   1.399   .     D
C2156  H1360   1.140   .     S
C2157  H1361   1.140   .     S
C2157  C2158   1.407   .     S
C2158  C2159   1.398   .     D
C2159  H1362   1.140   .     S
C2159  C2160   1.393   .     S
C2160  H1363   1.140   .     S
C2161  N439    1.445   .     S
C2161  C2166   1.407   .     D
C2161  C2162   1.404   .     S
C2162  C2163   1.390   .     D
C2162  H1364   1.140   .     S
C2163  H1365   1.140   .     S
C2163  C2164   1.396   .     S
C2164  C2165   1.407   .     D
C2165  H1366   1.140   .     S
C2165  C2166   1.403   .     S
C2166  H1367   1.140   .     S
F113   B12     1.417   .     S
F114   B12     1.416   .     S
C2167  N283    1.297   .     D
C2167  H1369   1.140   .     S
C2168  H1370   1.140   .     S
C2168  C2169   1.397   .     S
C2168  C2173   1.401   1_455 D
C2169  C2170   1.401   .     D
C2169  H1371   1.140   .     S
C2170  C2171   1.405   .     S
C2171  H1372   1.139   .     S
C2171  C2172   1.395   1_455 D
C2172  C2173   1.404   .     S
C2172  H1373   1.140   .     S
C2172  C2171   1.395   1_655 D
C2173  C2168   1.401   1_655 D
C2174  C2175   1.406   .     S
C2174  N229    1.361   .     D
C2175  C2176   1.403   .     D
C2175  H1374   1.140   .     S
C2176  H1375   1.140   .     S
C2176  C2178   1.402   .     S
C2177  C2178   1.404   .     D
C2177  N229    1.363   .     S
C2178  C2179   1.406   .     S
C2179  H1376   1.140   .     S
C2180  C2181   1.409   .     S
C2180  H1377   1.140   .     S
C2180  C2066   1.413   1_656 D
C2181  C2182   1.398   .     D
C2181  C2183   1.408   .     S
C2182  N230    1.356   .     S
C2182  C2068   1.407   1_656 S
C2183  H1378   1.140   .     S
C2183  C2184   1.411   .     D
C2184  C2185   1.406   .     S
C2184  H1379   1.140   .     S
C2185  N230    1.349   .     D
C2186  C2187   1.397   1_554 S
C2187  H1380   1.140   .     S
C2187  C2186   1.397   1_556 S
C2188  N168    1.308   1_655 D
C2189  H1381   1.140   .     S
C2189  C2190   1.405   .     D
C2190  C2191   1.405   .     S
C2191  C2192   1.403   .     D
C2191  H1382   1.140   .     S
C2192  H1383   1.140   .     S
N229   Cu35    1.915   .     S
N230   Cu16    1.896   1_656 S
N231   C3041   1.297   .     D
N231   C2196   1.433   .     S
C2193  C2194   1.405   .     D
C2193  C2198   1.403   .     S
C2193  N386    1.441   .     S
C2194  C2195   1.399   .     S
C2194  H1384   1.140   .     S
C2195  H1385   1.140   .     S
C2195  C2196   1.407   .     D
C2196  C2197   1.398   .     S
C2197  H1386   1.140   .     S
C2197  C2198   1.393   .     D
C2198  H1387   1.140   .     S
C2199  C2200   1.404   .     D
C2199  N447    1.445   .     S
C2199  C2204   1.407   .     S
C2200  H1388   1.140   .     S
C2200  C2201   1.390   .     S
C2201  H1389   1.140   .     S
C2201  C2202   1.396   .     D
C2202  C2203   1.407   .     S
C2203  H1390   1.140   .     S
C2203  C2204   1.403   .     D
C2204  H1391   1.140   .     S
F115   B32     1.417   .     S
F116   B32     1.416   .     S
C2205  H1393   1.140   .     S
C2205  N279    1.297   .     D
C2206  H1394   1.140   .     S
C2206  C2207   1.397   .     S
C2206  C2211   1.401   .     D
C2207  C2208   1.401   .     D
C2207  H1395   1.140   .     S
C2208  C2209   1.405   .     S
C2209  H1396   1.139   .     S
C2209  C2210   1.395   .     D
C2210  H1397   1.140   .     S
C2210  C2211   1.404   .     S
C2212  C2213   1.406   .     S
C2212  N233    1.361   .     D
C2213  C2214   1.403   .     D
C2213  H1398   1.140   .     S
C2214  H1399   1.140   .     S
C2214  C2216   1.402   .     S
C2215  C2216   1.404   .     D
C2215  N233    1.363   .     S
C2216  C2217   1.406   .     S
C2217  H1400   1.140   .     S
C2218  C2219   1.409   .     S
C2218  H1401   1.140   .     S
C2218  C2028   1.413   1_556 D
C2219  C2221   1.408   .     S
C2219  C2220   1.398   .     D
C2220  N234    1.356   .     S
C2220  C2030   1.407   1_556 S
C2221  H1402   1.140   .     S
C2221  C2222   1.411   .     D
C2222  C2223   1.406   .     S
C2222  H1403   1.140   .     S
C2223  N234    1.349   .     D
C2224  C2225   1.397   1_554 S
C2225  H1404   1.140   .     S
C2225  C2224   1.397   1_556 S
C2227  H1405   1.140   .     S
C2227  C2228   1.405   .     D
C2228  C2229   1.405   .     S
C2229  C2230   1.403   .     D
C2229  H1406   1.140   .     S
C2230  H1407   1.140   .     S
N233   Cu37    1.915   .     S
N234   Cu10    1.896   1_556 S
N235   C3155   1.297   .     D
N235   C2234   1.433   .     S
C2231  C2232   1.405   .     D
C2231  C2236   1.403   .     S
C2231  N387    1.441   .     S
C2232  C2233   1.399   .     S
C2232  H1408   1.140   .     S
C2233  H1409   1.140   .     S
C2233  C2234   1.407   .     D
C2234  C2235   1.398   .     S
C2235  H1410   1.140   .     S
C2235  C2236   1.393   .     D
C2236  H1411   1.140   .     S
C2237  N438    1.445   .     S
C2237  C2242   1.407   .     S
C2237  C2238   1.404   .     D
C2238  C2239   1.390   .     S
C2238  H1412   1.140   .     S
C2239  H1413   1.140   .     S
C2239  C2240   1.396   .     D
C2240  C2241   1.407   .     S
C2241  H1414   1.140   .     S
C2241  C2242   1.403   .     D
C2242  H1415   1.140   .     S
F117   B10     1.417   .     S
F118   B10     1.416   .     S
C2243  N275    1.297   .     D
C2243  H1417   1.140   .     S
C2244  C2245   1.397   .     S
C2244  H1418   1.140   .     S
C2244  C2249   1.401   .     D
C2245  H1419   1.140   .     S
C2245  C2246   1.401   .     D
C2246  C2247   1.405   .     S
C2247  H1420   1.139   .     S
C2247  C2248   1.395   .     D
C2248  H1421   1.140   .     S
C2248  C2249   1.404   .     S
C2250  C2251   1.406   .     S
C2250  N237    1.361   .     D
C2251  C2252   1.403   .     D
C2251  H1422   1.140   .     S
C2252  H1423   1.140   .     S
C2252  C2254   1.402   .     S
C2253  C2254   1.404   .     D
C2253  N237    1.363   .     S
C2254  C2255   1.406   .     S
C2255  H1424   1.140   .     S
C2256  C2257   1.409   .     S
C2256  H1425   1.140   .     S
C2257  C2258   1.398   .     D
C2257  C2259   1.408   .     S
C2258  N238    1.356   .     S
C2259  H1426   1.140   .     S
C2259  C2260   1.411   .     D
C2260  C2261   1.406   .     S
C2260  H1427   1.140   .     S
C2261  N238    1.349   .     D
C2262  C2263   1.397   .     D
C2263  H1428   1.140   .     S
C2265  H1429   1.140   .     S
C2265  C2266   1.405   .     D
C2266  C2267   1.405   .     S
C2267  C2268   1.403   .     D
C2267  H1430   1.140   .     S
C2268  H1431   1.140   .     S
N237   Cu38    1.915   .     S
N238   Cu9     1.896   .     S
N239   C2272   1.433   .     S
N239   C3117   1.297   .     D
C2269  C2274   1.403   .     D
C2269  N388    1.441   .     S
C2269  C2270   1.405   .     S
C2270  C2271   1.399   .     D
C2270  H1432   1.140   .     S
C2271  H1433   1.140   .     S
C2271  C2272   1.407   .     S
C2272  C2273   1.398   .     D
C2273  H1434   1.140   .     S
C2273  C2274   1.393   .     S
C2274  H1435   1.140   .     S
C2275  N441    1.445   .     S
C2275  C2280   1.407   .     S
C2275  C2276   1.404   .     D
C2276  H1436   1.140   .     S
C2276  C2277   1.390   .     S
C2277  H1437   1.140   .     S
C2277  C2278   1.396   .     D
C2278  C2279   1.407   .     S
C2279  H1438   1.140   .     S
C2279  C2280   1.403   .     D
C2280  H1439   1.140   .     S
F119   B11     1.417   .     S
F120   B11     1.416   .     S
C2281  H1441   1.140   .     S
C2281  N319    1.297   .     D
C2282  H1442   1.140   .     S
C2282  C2283   1.397   .     D
C2282  C2287   1.401   1_655 S
C2283  C2284   1.401   .     S
C2283  H1443   1.140   .     S
C2284  C2285   1.405   .     D
C2285  H1444   1.139   .     S
C2285  C2286   1.395   1_655 S
C2286  H1445   1.140   .     S
C2286  C2287   1.404   .     D
C2286  C2285   1.395   1_455 S
C2287  C2282   1.401   1_455 S
C2288  C2289   1.406   .     D
C2288  N241    1.361   .     S
C2289  H1446   1.140   .     S
C2289  C2290   1.403   .     S
C2290  H1447   1.140   .     S
C2290  C2292   1.402   .     D
C2291  C2292   1.404   .     S
C2291  N241    1.363   .     D
C2292  C2293   1.406   .     S
C2293  H1448   1.140   .     S
C2294  C2295   1.409   .     S
C2294  H1449   1.140   .     S
C2294  C1952   1.413   1_456 D
C2295  C2297   1.408   .     S
C2295  C2296   1.398   .     D
C2296  N242    1.356   .     S
C2296  C1954   1.407   1_456 S
C2297  H1450   1.140   .     S
C2297  C2298   1.411   .     D
C2298  H1451   1.140   .     S
C2298  C2299   1.406   .     S
C2299  N242    1.349   .     D
C2300  C2301   1.397   1_554 S
C2301  H1452   1.140   .     S
C2301  C2300   1.397   1_556 S
C2302  N148    1.308   1_455 D
C2303  H1453   1.140   .     S
C2303  C2304   1.405   .     D
C2304  C2305   1.405   .     S
C2305  C2306   1.403   .     D
C2305  H1454   1.140   .     S
C2306  H1455   1.140   .     S
N241   Cu40    1.915   .     S
N242   Cu11    1.896   1_556 S
N243   C3535   1.297   .     D
N243   C2310   1.433   .     S
C2307  C2308   1.405   .     D
C2307  C2312   1.403   .     S
C2307  N389    1.441   .     S
C2308  C2309   1.399   .     S
C2308  H1456   1.140   .     S
C2309  H1457   1.140   .     S
C2309  C2310   1.407   .     D
C2310  C2311   1.398   .     S
C2311  H1458   1.140   .     S
C2311  C2312   1.393   .     D
C2312  H1459   1.140   .     S
C2313  N445    1.445   .     S
C2313  C2318   1.407   .     D
C2313  C2314   1.404   .     S
C2314  C2315   1.390   .     D
C2314  H1460   1.140   .     S
C2315  C2316   1.396   .     S
C2315  H1461   1.140   .     S
C2316  C2317   1.407   .     D
C2317  H1462   1.140   .     S
C2317  C2318   1.403   .     S
C2318  H1463   1.140   .     S
F121   B33     1.417   .     S
F122   B33     1.416   .     S
C2319  H1465   1.140   .     S
C2319  N315    1.297   .     D
C2320  H1466   1.140   .     S
C2320  C2321   1.397   .     D
C2320  C2325   1.401   1_655 S
C2321  H1467   1.140   .     S
C2321  C2322   1.401   .     S
C2322  C2323   1.405   .     D
C2323  H1468   1.139   .     S
C2323  C2324   1.395   1_655 S
C2324  H1469   1.140   .     S
C2324  C2325   1.404   .     D
C2324  C2323   1.395   1_455 S
C2325  C2320   1.401   1_455 S
C2326  C2327   1.406   .     D
C2326  N245    1.361   .     S
C2327  H1470   1.140   .     S
C2327  C2328   1.403   .     S
C2328  H1471   1.140   .     S
C2328  C2330   1.402   .     D
C2329  C2330   1.404   .     S
C2329  N245    1.363   .     D
C2330  C2331   1.406   .     S
C2331  H1472   1.140   .     S
C2332  C2333   1.409   .     S
C2332  H1473   1.140   .     S
C2332  C1914   1.413   1_455 D
C2333  C2334   1.398   .     D
C2333  C2335   1.408   .     S
C2334  N246    1.356   .     S
C2334  C1916   1.407   1_455 S
C2335  C2336   1.411   .     D
C2335  H1474   1.140   .     S
C2336  H1475   1.140   .     S
C2336  C2337   1.406   .     S
C2337  N246    1.349   .     D
C2338  C2339   1.397   .     D
C2339  H1476   1.140   .     S
C2340  N152    1.308   1_455 D
C2341  H1477   1.140   .     S
C2341  C2342   1.405   .     D
C2342  C2343   1.405   .     S
C2343  H1478   1.140   .     S
C2343  C2344   1.403   .     D
C2344  H1479   1.140   .     S
N245   Cu39    1.915   .     S
N246   Cu12    1.896   .     S
N247   C2348   1.433   .     S
N247   C3497   1.297   .     D
C2345  C2350   1.403   .     D
C2345  N390    1.441   .     S
C2345  C2346   1.405   .     S
C2346  C2347   1.399   .     D
C2346  H1480   1.140   .     S
C2347  H1481   1.140   .     S
C2347  C2348   1.407   .     S
C2348  C2349   1.398   .     D
C2349  H1482   1.140   .     S
C2349  C2350   1.393   .     S
C2350  H1483   1.140   .     S
C2351  N446    1.445   .     S
C2351  C2356   1.407   .     D
C2351  C2352   1.404   .     S
C2352  C2353   1.390   .     D
C2352  H1484   1.140   .     S
C2353  H1485   1.140   .     S
C2353  C2354   1.396   .     S
C2354  C2355   1.407   .     D
C2355  C2356   1.403   .     S
C2355  H1486   1.140   .     S
C2356  H1487   1.140   .     S
F123   B34     1.417   .     S
F124   B34     1.416   .     S
C2357  H1489   1.140   .     S
C2357  N311    1.297   .     D
C2358  C2359   1.397   .     D
C2358  C2363   1.401   .     S
C2358  H1490   1.140   .     S
C2359  H1491   1.140   .     S
C2359  C2360   1.401   .     S
C2360  C2361   1.405   .     D
C2361  C2362   1.395   .     S
C2361  H1492   1.139   .     S
C2362  H1493   1.140   .     S
C2362  C2363   1.404   .     D
C2364  C2365   1.406   .     D
C2364  N249    1.361   .     S
C2365  H1494   1.140   .     S
C2365  C2366   1.403   .     S
C2366  H1495   1.140   .     S
C2366  C2368   1.402   .     D
C2367  N249    1.363   .     D
C2367  C2368   1.404   .     S
C2368  C2369   1.406   .     S
C2369  H1496   1.140   .     S
C2370  C2371   1.409   .     S
C2370  H1497   1.140   .     S
C2371  C2373   1.408   .     S
C2371  C2372   1.398   .     D
C2372  N250    1.356   .     S
C2373  H1498   1.140   .     S
C2373  C2374   1.411   .     D
C2374  H1499   1.140   .     S
C2374  C2375   1.406   .     S
C2375  N250    1.349   .     D
C2376  C2377   1.397   .     D
C2377  H1500   1.140   .     S
C2379  H1501   1.140   .     S
C2379  C2380   1.405   .     S
C2380  C2381   1.405   .     D
C2381  H1502   1.140   .     S
C2381  C2382   1.403   .     S
C2382  H1503   1.140   .     S
N249   Cu33    1.915   .     S
N250   Cu14    1.896   .     S
N251   C2386   1.433   .     S
N251   C3611   1.297   .     D
C2383  N391    1.441   .     S
C2383  C2388   1.403   .     D
C2383  C2384   1.405   .     S
C2384  H1504   1.140   .     S
C2384  C2385   1.399   .     D
C2385  C2386   1.407   .     S
C2385  H1505   1.140   .     S
C2386  C2387   1.398   .     D
C2387  H1506   1.140   .     S
C2387  C2388   1.393   .     S
C2388  H1507   1.140   .     S
C2389  C2394   1.407   .     D
C2389  N436    1.445   .     S
C2389  C2390   1.404   .     S
C2390  H1508   1.140   .     S
C2390  C2391   1.390   .     D
C2391  H1509   1.140   .     S
C2391  C2392   1.396   .     S
C2392  C2393   1.407   .     D
C2393  H1510   1.140   .     S
C2393  C2394   1.403   .     S
C2394  H1511   1.140   .     S
F125   B15     1.417   .     S
F126   B15     1.416   .     S
C2395  H1513   1.140   .     S
C2395  N307    1.297   .     D
C2396  H1514   1.140   .     S
C2396  C2397   1.397   .     S
C2396  C2401   1.401   .     D
C2397  C2398   1.401   .     D
C2397  H1515   1.140   .     S
C2398  C2399   1.405   .     S
C2399  C2400   1.395   .     D
C2399  H1516   1.139   .     S
C2400  C2401   1.404   .     S
C2400  H1517   1.140   .     S
C2402  C2403   1.406   .     S
C2402  N253    1.361   .     D
C2403  H1518   1.140   .     S
C2403  C2404   1.403   .     D
C2404  H1519   1.140   .     S
C2404  C2406   1.402   .     S
C2405  N253    1.363   .     S
C2405  C2406   1.404   .     S
C2406  C2407   1.406   .     D
C2407  H1520   1.140   .     S
C2408  C2409   1.409   .     S
C2408  H1521   1.140   .     S
C2408  C1838   1.413   1_556 D
C2409  C2410   1.398   .     D
C2409  C2411   1.408   .     S
C2410  N254    1.356   .     S
C2410  C1840   1.407   1_556 S
C2411  C2412   1.411   .     D
C2411  H1522   1.140   .     S
C2412  H1523   1.140   .     S
C2412  C2413   1.406   .     S
C2413  N254    1.349   .     D
C2414  C2415   1.397   1_554 S
C2415  H1524   1.140   .     S
C2415  C2414   1.397   1_556 S
C2417  H1525   1.140   .     S
C2417  C2418   1.405   .     S
C2418  C2419   1.405   .     D
C2419  C2420   1.403   .     S
C2419  H1526   1.140   .     S
C2420  H1527   1.140   .     S
N253   Cu34    1.915   .     S
N254   Cu13    1.896   1_556 S
N255   C3573   1.297   .     D
N255   C2424   1.433   .     S
C2421  C2426   1.403   .     D
C2421  C2422   1.405   .     S
C2421  N392    1.441   .     S
C2422  H1528   1.140   .     S
C2422  C2423   1.399   .     D
C2423  H1529   1.140   .     S
C2423  C2424   1.407   .     S
C2424  C2425   1.398   .     D
C2425  C2426   1.393   .     S
C2425  H1530   1.140   .     S
C2426  H1531   1.140   .     S
C2427  N437    1.445   .     S
C2427  C2432   1.407   .     D
C2427  C2428   1.404   .     S
C2428  H1532   1.140   .     S
C2428  C2429   1.390   .     D
C2429  C2430   1.396   .     S
C2429  H1533   1.140   .     S
C2430  C2431   1.407   .     D
C2431  C2432   1.403   .     S
C2431  H1534   1.140   .     S
C2432  H1535   1.140   .     S
F127   B16     1.417   .     S
F128   B16     1.416   .     S
C2433  H1537   1.140   .     S
C2433  N363    1.297   .     D
C2434  H1538   1.140   .     S
C2434  C2435   1.397   .     S
C2434  C2439   1.401   1_556 D
C2435  C2436   1.401   .     D
C2435  H1539   1.140   .     S
C2436  C2437   1.405   .     S
C2437  H1540   1.139   .     S
C2437  C2438   1.395   1_556 D
C2438  H1541   1.140   .     S
C2438  C2439   1.404   .     S
C2438  C2437   1.395   1_554 D
C2439  C2782   1.474   .     S
C2439  C2434   1.401   1_554 D
C2440  C2441   1.406   .     D
C2440  C2781   1.474   .     S
C2440  N257    1.361   .     S
C2441  H1542   1.140   .     S
C2441  C2442   1.403   .     S
C2442  H1543   1.140   .     S
C2442  C2444   1.402   .     D
C2443  C2444   1.404   .     S
C2443  C2823   1.416   .     S
C2443  N257    1.363   .     D
C2444  C2445   1.406   .     S
C2445  C2825   1.405   .     D
C2445  H1544   1.140   .     S
C2446  C2447   1.409   .     S
C2446  H1545   1.140   .     S
C2446  C2978   1.413   1_564 D
C2447  C2449   1.408   .     S
C2447  C2448   1.398   .     D
C2448  N258    1.356   .     S
C2448  C2980   1.407   1_564 S
C2449  H1546   1.140   .     S
C2449  C2450   1.411   .     D
C2450  H1547   1.140   .     S
C2450  C2451   1.406   .     S
C2451  N258    1.349   .     D
C2451  C2984   1.423   .     S
C2452  C2983   1.423   .     S
C2452  C2453   1.397   1_545 S
C2453  H1548   1.140   .     S
C2453  C2452   1.397   1_565 S
C2454  N84     1.308   1_554 D
C2455  H1549   1.140   .     S
C2455  C2456   1.405   .     D
C2456  C2457   1.405   .     S
C2457  H1550   1.140   .     S
C2457  C2458   1.403   .     D
C2458  H1551   1.140   .     S
N257   Cu44    1.915   .     S
N258   Cu3     1.896   1_565 S
N259   C2462   1.433   .     S
C2459  C2460   1.405   .     D
C2459  C2464   1.403   .     S
C2459  N393    1.441   .     S
C2460  C2461   1.399   .     S
C2460  H1552   1.140   .     S
C2461  H1553   1.140   .     S
C2461  C2462   1.407   .     D
C2462  C2463   1.398   .     S
C2463  H1554   1.140   .     S
C2463  C2464   1.393   .     D
C2464  H1555   1.140   .     S
C2465  N438    1.445   .     S
C2465  C2466   1.404   .     D
C2465  C2470   1.407   .     S
C2466  C2467   1.390   .     S
C2466  H1556   1.140   .     S
C2467  H1557   1.140   .     S
C2467  C2468   1.396   .     D
C2468  C2469   1.407   .     S
C2468  N320    1.431   .     S
C2469  C2470   1.403   .     D
C2469  H1558   1.140   .     S
C2470  H1559   1.140   .     S
N260   C3038   1.431   .     S
F129   B35     1.417   .     S
F130   B35     1.416   .     S
C2471  H1561   1.140   .     S
C2471  N367    1.297   .     D
C2472  C2473   1.397   .     S
C2472  C2477   1.401   .     D
C2472  H1562   1.140   .     S
C2473  C2474   1.401   .     D
C2473  H1563   1.140   .     S
C2474  C2475   1.405   .     S
C2475  C2476   1.395   .     D
C2475  H1564   1.139   .     S
C2476  C2477   1.404   .     S
C2476  H1565   1.140   .     S
C2477  C2744   1.474   .     S
C2478  C2479   1.406   .     S
C2478  N261    1.361   .     D
C2478  C2743   1.474   .     S
C2479  H1566   1.140   .     S
C2479  C2480   1.403   .     D
C2480  H1567   1.140   .     S
C2480  C2482   1.402   .     S
C2481  N261    1.363   .     S
C2481  C2861   1.416   .     S
C2481  C2482   1.404   .     D
C2482  C2483   1.406   .     S
C2483  C2863   1.405   .     D
C2483  H1568   1.140   .     S
C2484  C2485   1.409   .     S
C2484  H1569   1.140   .     S
C2484  C3016   1.413   .     D
C2485  C2487   1.408   .     S
C2485  C2486   1.398   .     D
C2486  N262    1.356   .     S
C2486  C3018   1.407   .     S
C2487  H1570   1.140   .     S
C2487  C2488   1.411   .     D
C2488  H1571   1.140   .     S
C2488  C2489   1.406   .     S
C2489  N262    1.349   .     D
C2489  C3022   1.423   .     S
C2490  C3021   1.423   .     S
C2490  C2491   1.397   .     D
C2491  H1572   1.140   .     S
C2493  H1573   1.140   .     S
C2493  C2494   1.405   .     D
C2494  C2495   1.405   .     S
C2495  H1574   1.140   .     S
C2495  C2496   1.403   .     D
C2496  H1575   1.140   .     S
N261   Cu43    1.915   .     S
N262   Cu4     1.896   .     S
N263   C2500   1.433   .     S
C2497  N394    1.441   .     S
C2497  C2498   1.405   .     D
C2497  C2502   1.403   .     S
C2498  H1576   1.140   .     S
C2498  C2499   1.399   .     S
C2499  C2500   1.407   .     D
C2499  H1577   1.140   .     S
C2500  C2501   1.398   .     S
C2501  H1578   1.140   .     S
C2501  C2502   1.393   .     D
C2502  H1579   1.140   .     S
C2503  C2508   1.407   .     D
C2503  N441    1.445   .     S
C2503  C2504   1.404   .     S
C2504  H1580   1.140   .     S
C2504  C2505   1.390   .     D
C2505  C2506   1.396   .     S
C2505  H1581   1.140   .     S
C2506  C2507   1.407   .     D
C2506  N316    1.431   .     S
C2507  C2508   1.403   .     S
C2507  H1582   1.140   .     S
C2508  H1583   1.140   .     S
N264   C3000   1.431   .     S
F131   B6      1.417   .     S
F132   B6      1.416   .     S
C2509  H1585   1.140   .     S
C2509  N355    1.297   .     D
C2510  H1586   1.140   .     S
C2510  C2511   1.397   .     S
C2510  C2515   1.401   .     D
C2511  C2512   1.401   .     D
C2511  H1587   1.140   .     S
C2512  C2513   1.405   .     S
C2513  C2514   1.395   .     D
C2513  H1588   1.139   .     S
C2514  C2515   1.404   .     S
C2514  H1589   1.140   .     S
C2515  C2858   1.474   .     S
C2516  C2517   1.406   .     S
C2516  N265    1.361   .     D
C2516  C2857   1.474   .     S
C2517  H1590   1.140   .     S
C2517  C2518   1.403   .     D
C2518  H1591   1.140   .     S
C2518  C2520   1.402   .     S
C2519  N265    1.363   .     S
C2519  C2747   1.416   .     S
C2519  C2520   1.404   .     D
C2520  C2521   1.406   .     S
C2521  C2749   1.405   .     D
C2521  H1592   1.140   .     S
C2522  C2523   1.409   .     S
C2522  H1593   1.140   .     S
C2522  C2902   1.413   1_565 D
C2523  C2524   1.398   .     D
C2523  C2525   1.408   .     S
C2524  N266    1.356   .     S
C2524  C2904   1.407   1_565 S
C2525  H1594   1.140   .     S
C2525  C2526   1.411   .     D
C2526  H1595   1.140   .     S
C2526  C2527   1.406   .     S
C2527  N266    1.349   .     D
C2527  C2908   1.423   .     S
C2528  C2907   1.423   .     S
C2528  C2529   1.397   1_545 S
C2529  H1596   1.140   .     S
C2529  C2528   1.397   1_565 S
C2531  H1597   1.140   .     S
C2531  C2532   1.405   .     D
C2532  C2533   1.405   .     S
C2533  H1598   1.140   .     S
C2533  C2534   1.403   .     D
C2534  H1599   1.140   .     S
N265   Cu46    1.915   .     S
N266   Cu5     1.896   1_565 S
N267   C2538   1.433   .     S
C2535  C2536   1.405   .     D
C2535  N395    1.441   .     S
C2535  C2540   1.403   .     S
C2536  H1600   1.140   .     S
C2536  C2537   1.399   .     S
C2537  C2538   1.407   .     D
C2537  H1601   1.140   .     S
C2538  C2539   1.398   .     S
C2539  C2540   1.393   .     D
C2539  H1602   1.140   .     S
C2540  H1603   1.140   .     S
C2541  C2546   1.407   .     D
C2541  N439    1.445   .     S
C2541  C2542   1.404   .     S
C2542  H1604   1.140   .     S
C2542  C2543   1.390   .     D
C2543  C2544   1.396   .     S
C2543  H1605   1.140   .     S
C2544  C2545   1.407   .     D
C2544  N312    1.431   .     S
C2545  C2546   1.403   .     S
C2545  H1606   1.140   .     S
C2546  H1607   1.140   .     S
N268   C2962   1.431   .     S
F133   B36     1.417   .     S
F134   B36     1.416   .     S
C2547  H1609   1.140   .     S
C2547  N359    1.297   .     D
C2548  H1610   1.140   .     S
C2548  C2549   1.397   .     S
C2548  C2553   1.401   1_556 D
C2549  H1611   1.140   .     S
C2549  C2550   1.401   .     D
C2550  C2551   1.405   .     S
C2551  H1612   1.139   .     S
C2551  C2552   1.395   1_556 D
C2552  H1613   1.140   .     S
C2552  C2553   1.404   .     S
C2552  C2551   1.395   1_554 D
C2553  C2820   1.474   .     S
C2553  C2548   1.401   1_554 D
C2554  C2555   1.406   .     D
C2554  C2819   1.474   .     S
C2554  N269    1.361   .     S
C2555  H1614   1.140   .     S
C2555  C2556   1.403   .     S
C2556  H1615   1.140   .     S
C2556  C2558   1.402   .     D
C2557  C2558   1.404   .     S
C2557  C2785   1.416   .     S
C2557  N269    1.363   .     D
C2558  C2559   1.406   .     S
C2559  C2787   1.405   .     D
C2559  H1616   1.140   .     S
C2560  C2561   1.409   .     S
C2560  H1617   1.140   .     S
C2560  C2940   1.413   1_554 D
C2561  C2562   1.398   .     D
C2561  C2563   1.408   .     S
C2562  N270    1.356   .     S
C2562  C2942   1.407   1_554 S
C2563  C2564   1.411   .     D
C2563  H1618   1.140   .     S
C2564  H1619   1.140   .     S
C2564  C2565   1.406   .     S
C2565  N270    1.349   .     D
C2565  C2946   1.423   .     S
C2566  C2945   1.423   .     S
C2566  C2567   1.397   .     D
C2567  H1620   1.140   .     S
C2568  N96     1.308   1_554 D
C2569  H1621   1.140   .     S
C2569  C2570   1.405   .     D
C2570  C2571   1.405   .     S
C2571  H1622   1.140   .     S
C2571  C2572   1.403   .     D
C2572  H1623   1.140   .     S
N269   Cu45    1.915   .     S
N270   Cu6     1.896   .     S
N271   C2576   1.433   .     S
C2573  C2578   1.403   .     D
C2573  N396    1.441   .     S
C2573  C2574   1.405   .     S
C2574  C2575   1.399   .     D
C2574  H1624   1.140   .     S
C2575  H1625   1.140   .     S
C2575  C2576   1.407   .     S
C2576  C2577   1.398   .     D
C2577  H1626   1.140   .     S
C2577  C2578   1.393   .     S
C2578  H1627   1.140   .     S
C2579  N447    1.445   .     S
C2579  C2580   1.404   .     D
C2579  C2584   1.407   .     S
C2580  C2581   1.390   .     S
C2580  H1628   1.140   .     S
C2581  H1629   1.140   .     S
C2581  C2582   1.396   .     D
C2582  C2583   1.407   .     S
C2582  N308    1.431   .     S
C2583  C2584   1.403   .     D
C2583  H1630   1.140   .     S
C2584  H1631   1.140   .     S
N272   C2924   1.431   .     S
F135   B7      1.417   .     S
F136   B7      1.416   .     S
C2585  H1633   1.140   .     S
C2585  N331    1.297   .     D
C2586  C2587   1.397   .     S
C2586  H1634   1.140   .     S
C2586  C2591   1.401   1_554 D
C2587  C2588   1.401   .     D
C2587  H1635   1.140   .     S
C2588  C2589   1.405   .     S
C2589  H1636   1.139   .     S
C2589  C2590   1.395   1_554 D
C2590  H1637   1.140   .     S
C2590  C2591   1.404   .     S
C2590  C2589   1.395   1_556 D
C2591  C2934   1.474   .     S
C2591  C2586   1.401   1_556 D
C2592  C2933   1.474   .     S
C2592  N273    1.361   .     S
C2592  C2593   1.406   .     D
C2593  C2594   1.403   .     S
C2593  H1638   1.140   .     S
C2594  C2596   1.402   .     D
C2594  H1639   1.140   .     S
C2595  C2596   1.404   .     S
C2595  C2975   1.416   .     S
C2595  N273    1.363   .     D
C2596  C2597   1.406   .     S
C2597  H1640   1.140   .     S
C2597  C2977   1.405   .     D
C2598  C2599   1.409   .     S
C2598  H1641   1.140   .     S
C2598  C2826   1.413   1_556 D
C2599  C2600   1.398   .     S
C2599  C2601   1.408   .     D
C2600  N274    1.356   .     D
C2600  C2828   1.407   1_556 S
C2601  H1642   1.140   .     S
C2601  C2602   1.411   .     S
C2602  C2603   1.406   .     D
C2602  H1643   1.140   .     S
C2603  C2832   1.423   .     S
C2603  N274    1.349   .     S
C2604  C2605   1.397   .     S
C2604  C2831   1.423   .     S
C2605  H1644   1.140   .     S
C2606  N100    1.308   1_556 D
C2607  H1645   1.140   .     S
C2607  C2608   1.405   .     D
C2608  C2609   1.405   .     S
C2609  C2610   1.403   .     D
C2609  H1646   1.140   .     S
C2610  H1647   1.140   .     S
N273   Cu48    1.915   .     S
N274   Cu7     1.896   1_556 S
N275   C2614   1.433   .     S
C2611  C2616   1.403   .     D
C2611  C2612   1.405   .     S
C2611  N385    1.441   .     S
C2612  C2613   1.399   .     D
C2612  H1648   1.140   .     S
C2613  H1649   1.140   .     S
C2613  C2614   1.407   .     S
C2614  C2615   1.398   .     D
C2615  H1650   1.140   .     S
C2615  C2616   1.393   .     S
C2616  H1651   1.140   .     S
C2617  N433    1.445   .     S
C2617  C2618   1.404   .     D
C2617  C2622   1.407   .     S
C2618  C2619   1.390   .     S
C2618  H1652   1.140   .     S
C2619  H1653   1.140   .     S
C2619  C2620   1.396   .     D
C2620  C2621   1.407   .     S
C2620  N304    1.431   .     S
C2621  H1654   1.140   .     S
C2621  C2622   1.403   .     D
C2622  H1655   1.140   .     S
N276   C2886   1.431   .     S
F137   B2      1.417   .     S
F138   B2      1.416   .     S
C2623  H1657   1.140   .     S
C2623  N335    1.297   .     D
C2624  H1658   1.140   .     S
C2624  C2625   1.397   .     S
C2624  C2629   1.401   .     D
C2625  C2626   1.401   .     D
C2625  H1659   1.140   .     S
C2626  C2627   1.405   .     S
C2627  H1660   1.139   .     S
C2627  C2628   1.395   .     D
C2628  H1661   1.140   .     S
C2628  C2629   1.404   .     S
C2629  C2896   1.474   .     S
C2630  C2895   1.474   .     S
C2630  N277    1.361   .     S
C2630  C2631   1.406   .     D
C2631  C2632   1.403   .     S
C2631  H1662   1.140   .     S
C2632  H1663   1.140   .     S
C2632  C2634   1.402   .     D
C2633  C2634   1.404   .     S
C2633  C3013   1.416   .     S
C2633  N277    1.363   .     D
C2634  C2635   1.406   .     S
C2635  H1664   1.140   .     S
C2635  C3015   1.405   .     D
C2636  C2637   1.409   .     S
C2636  H1665   1.140   .     S
C2636  C2864   1.413   1_565 D
C2637  C2638   1.398   .     S
C2637  C2639   1.408   .     D
C2638  N278    1.356   .     D
C2638  C2866   1.407   1_565 S
C2639  H1666   1.140   .     S
C2639  C2640   1.411   .     S
C2640  C2641   1.406   .     D
C2640  H1667   1.140   .     S
C2641  C2870   1.423   .     S
C2641  N278    1.349   .     S
C2642  C2869   1.423   .     S
C2642  C2643   1.397   1_545 S
C2643  H1668   1.140   .     S
C2643  C2642   1.397   1_565 S
C2645  H1669   1.140   .     S
C2645  C2646   1.405   .     D
C2646  C2647   1.405   .     S
C2647  C2648   1.403   .     D
C2647  H1670   1.140   .     S
C2648  H1671   1.140   .     S
N277   Cu47    1.915   .     S
N278   Cu8     1.896   1_565 S
N279   C2652   1.433   .     S
C2649  C2650   1.405   .     S
C2649  C2654   1.403   .     D
C2649  N386    1.441   .     S
C2650  C2651   1.399   .     D
C2650  H1672   1.140   .     S
C2651  H1673   1.140   .     S
C2651  C2652   1.407   .     S
C2652  C2653   1.398   .     D
C2653  H1674   1.140   .     S
C2653  C2654   1.393   .     S
C2654  H1675   1.140   .     S
C2655  N440    1.445   .     S
C2655  C2656   1.404   .     D
C2655  C2660   1.407   .     S
C2656  C2657   1.390   .     S
C2656  H1676   1.140   .     S
C2657  H1677   1.140   .     S
C2657  C2658   1.396   .     D
C2658  C2659   1.407   .     S
C2658  N300    1.431   .     S
C2659  C2660   1.403   .     D
C2659  H1678   1.140   .     S
C2660  H1679   1.140   .     S
N280   C2848   1.431   .     S
F139   B1      1.417   .     S
F140   B1      1.416   .     S
C2661  N323    1.297   .     D
C2661  H1681   1.140   .     S
C2662  C2663   1.397   .     S
C2662  H1682   1.140   .     S
C2662  C2667   1.401   .     D
C2663  H1683   1.140   .     S
C2663  C2664   1.401   .     D
C2664  C2665   1.405   .     S
C2665  H1684   1.139   .     S
C2665  C2666   1.395   .     D
C2666  H1685   1.140   .     S
C2666  C2667   1.404   .     S
C2667  C3010   1.474   .     S
C2668  C3009   1.474   .     S
C2668  N281    1.361   .     S
C2668  C2669   1.406   .     D
C2669  C2670   1.403   .     S
C2669  H1686   1.140   .     S
C2670  H1687   1.140   .     S
C2670  C2672   1.402   .     D
C2671  C2672   1.404   .     S
C2671  C2899   1.416   .     S
C2671  N281    1.363   .     D
C2672  C2673   1.406   .     S
C2673  H1688   1.140   .     S
C2673  C2901   1.405   .     D
C2674  C2675   1.409   .     S
C2674  H1689   1.140   .     S
C2674  C2750   1.413   .     D
C2675  C2676   1.398   .     S
C2675  C2677   1.408   .     D
C2676  N282    1.356   .     D
C2676  C2752   1.407   .     S
C2677  H1690   1.140   .     S
C2677  C2678   1.411   .     S
C2678  C2679   1.406   .     D
C2678  H1691   1.140   .     S
C2679  C2756   1.423   .     S
C2679  N282    1.349   .     S
C2680  C2755   1.423   .     S
C2680  C2681   1.397   .     S
C2681  H1692   1.140   .     S
C2683  H1693   1.140   .     S
C2683  C2684   1.405   .     D
C2684  C2685   1.405   .     S
C2685  C2686   1.403   .     D
C2685  H1694   1.140   .     S
C2686  H1695   1.140   .     S
N281   Cu42    1.915   .     S
N282   Cu1     1.896   .     S
N283   C2690   1.433   .     S
C2687  C2692   1.403   .     D
C2687  C2688   1.405   .     S
C2687  N387    1.441   .     S
C2688  C2689   1.399   .     D
C2688  H1696   1.140   .     S
C2689  H1697   1.140   .     S
C2689  C2690   1.407   .     S
C2690  C2691   1.398   .     D
C2691  H1698   1.140   .     S
C2691  C2692   1.393   .     S
C2692  H1699   1.140   .     S
C2693  N443    1.445   .     S
C2693  C2694   1.404   .     D
C2693  C2698   1.407   .     S
C2694  H1700   1.140   .     S
C2694  C2695   1.390   .     S
C2695  H1701   1.140   .     S
C2695  C2696   1.396   .     D
C2696  C2697   1.407   .     S
C2696  N296    1.431   .     S
C2697  C2698   1.403   .     D
C2697  H1702   1.140   .     S
C2698  H1703   1.140   .     S
N284   C2810   1.431   .     S
F141   B37     1.417   .     S
F142   B37     1.416   .     S
C2699  N327    1.297   .     D
C2699  H1705   1.140   .     S
C2700  H1706   1.140   .     S
C2700  C2701   1.397   .     S
C2700  C2705   1.401   1_554 D
C2701  C2702   1.401   .     D
C2701  H1707   1.140   .     S
C2702  C2703   1.405   .     S
C2703  H1708   1.139   .     S
C2703  C2704   1.395   1_554 D
C2704  C2705   1.404   .     S
C2704  H1709   1.140   .     S
C2704  C2703   1.395   1_556 D
C2705  C2972   1.474   .     S
C2705  C2700   1.401   1_556 D
C2706  C2971   1.474   .     S
C2706  N285    1.361   .     S
C2706  C2707   1.406   .     D
C2707  C2708   1.403   .     S
C2707  H1710   1.140   .     S
C2708  C2710   1.402   .     D
C2708  H1711   1.140   .     S
C2709  C2710   1.404   .     S
C2709  C2937   1.416   .     S
C2709  N285    1.363   .     D
C2710  C2711   1.406   .     S
C2711  H1712   1.140   .     S
C2711  C2939   1.405   .     D
C2712  C2713   1.409   .     S
C2712  H1713   1.140   .     S
C2712  C2788   1.413   1_566 D
C2713  C2714   1.398   .     S
C2713  C2715   1.408   .     D
C2714  N286    1.356   .     D
C2714  C2790   1.407   1_566 S
C2715  H1714   1.140   .     S
C2715  C2716   1.411   .     S
C2716  C2717   1.406   .     D
C2716  H1715   1.140   .     S
C2717  C2794   1.423   .     S
C2717  N286    1.349   .     S
C2718  C2793   1.423   .     S
C2718  C2719   1.397   1_545 S
C2719  H1716   1.140   .     S
C2719  C2718   1.397   1_565 S
C2720  N112    1.308   1_556 D
C2721  H1717   1.140   .     S
C2721  C2722   1.405   .     D
C2722  C2723   1.405   .     S
C2723  C2724   1.403   .     D
C2723  H1718   1.140   .     S
C2724  H1719   1.140   .     S
N285   Cu41    1.915   .     S
N286   Cu2     1.896   1_566 S
N287   C2728   1.433   .     S
C2725  C2726   1.405   .     S
C2725  C2730   1.403   .     D
C2725  N388    1.441   .     S
C2726  C2727   1.399   .     D
C2726  H1720   1.140   .     S
C2727  H1721   1.140   .     S
C2727  C2728   1.407   .     S
C2728  C2729   1.398   .     D
C2729  H1722   1.140   .     S
C2729  C2730   1.393   .     S
C2730  H1723   1.140   .     S
C2731  C2732   1.404   .     D
C2731  N444    1.445   .     S
C2731  C2736   1.407   .     S
C2732  H1724   1.140   .     S
C2732  C2733   1.390   .     S
C2733  H1725   1.140   .     S
C2733  C2734   1.396   .     D
C2734  C2735   1.407   .     S
C2734  N292    1.431   .     S
C2735  H1726   1.140   .     S
C2735  C2736   1.403   .     D
C2736  H1727   1.140   .     S
N288   C2772   1.431   .     S
F143   B3      1.417   .     S
F144   B3      1.416   .     S
C2737  N347    1.297   .     D
C2737  H1729   1.140   .     S
C2738  C2739   1.397   .     S
C2738  C2743   1.401   .     D
C2738  H1730   1.140   .     S
C2739  C2740   1.401   .     D
C2739  H1731   1.140   .     S
C2740  C2741   1.405   .     S
C2741  C2742   1.395   .     D
C2741  H1732   1.139   .     S
C2742  C2743   1.404   .     S
C2742  H1733   1.140   .     S
C2744  N289    1.361   .     D
C2744  C2745   1.406   .     S
C2745  H1734   1.140   .     S
C2745  C2746   1.403   .     D
C2746  C2748   1.402   .     S
C2746  H1735   1.140   .     S
C2747  N289    1.363   .     S
C2747  C2748   1.404   .     D
C2748  C2749   1.406   .     S
C2749  H1736   1.140   .     S
C2750  C2751   1.409   .     S
C2750  H1737   1.140   .     S
C2751  C2753   1.408   .     S
C2751  C2752   1.398   .     D
C2752  N290    1.356   .     S
C2753  H1738   1.140   .     S
C2753  C2754   1.411   .     D
C2754  H1739   1.140   .     S
C2754  C2755   1.406   .     S
C2755  N290    1.349   .     D
C2756  C2757   1.397   .     D
C2757  H1740   1.140   .     S
C2759  H1741   1.140   .     S
C2759  C2760   1.405   .     S
C2760  C2761   1.405   .     D
C2761  H1742   1.140   .     S
C2761  C2762   1.403   .     S
C2762  H1743   1.140   .     S
N289   Cu46    1.915   .     S
N290   Cu1     1.896   .     S
N291   C2766   1.433   .     S
C2763  C2764   1.405   .     D
C2763  N397    1.441   .     S
C2763  C2768   1.403   .     S
C2764  H1744   1.140   .     S
C2764  C2765   1.399   .     S
C2765  C2766   1.407   .     D
C2765  H1745   1.140   .     S
C2766  C2767   1.398   .     S
C2767  C2768   1.393   .     D
C2767  H1746   1.140   .     S
C2768  H1747   1.140   .     S
C2769  C2774   1.407   .     D
C2769  C2770   1.404   .     S
C2769  N436    1.445   .     S
C2770  H1748   1.140   .     S
C2770  C2771   1.390   .     D
C2771  C2772   1.396   .     S
C2771  H1749   1.140   .     S
C2772  C2773   1.407   .     D
C2773  C2774   1.403   .     S
C2773  H1750   1.140   .     S
C2774  H1751   1.140   .     S
F145   B38     1.417   .     S
F146   B38     1.416   .     S
C2775  H1753   1.140   .     S
C2775  N351    1.297   .     D
C2776  H1754   1.140   .     S
C2776  C2777   1.397   .     D
C2776  C2781   1.401   1_556 S
C2777  C2778   1.401   .     S
C2777  H1755   1.140   .     S
C2778  C2779   1.405   .     D
C2779  H1756   1.139   .     S
C2779  C2780   1.395   1_556 S
C2780  C2781   1.404   .     D
C2780  H1757   1.140   .     S
C2780  C2779   1.395   1_554 S
C2781  C2776   1.401   1_554 S
C2782  N293    1.361   .     D
C2782  C2783   1.406   .     S
C2783  H1758   1.140   .     S
C2783  C2784   1.403   .     D
C2784  C2786   1.402   .     S
C2784  H1759   1.140   .     S
C2785  C2786   1.404   .     D
C2785  N293    1.363   .     S
C2786  C2787   1.406   .     S
C2787  H1760   1.140   .     S
C2788  C2789   1.409   .     S
C2788  H1761   1.140   .     S
C2788  C2712   1.413   1_544 D
C2789  C2790   1.398   .     D
C2789  C2791   1.408   .     S
C2790  N294    1.356   .     S
C2790  C2714   1.407   1_544 S
C2791  H1762   1.140   .     S
C2791  C2792   1.411   .     D
C2792  H1763   1.140   .     S
C2792  C2793   1.406   .     S
C2793  N294    1.349   .     D
C2794  C2795   1.397   1_565 S
C2795  H1764   1.140   .     S
C2795  C2794   1.397   1_545 S
C2796  N120    1.308   1_554 D
C2797  H1765   1.140   .     S
C2797  C2798   1.405   .     S
C2798  C2799   1.405   .     D
C2799  H1766   1.140   .     S
C2799  C2800   1.403   .     S
C2800  H1767   1.140   .     S
N293   Cu45    1.915   .     S
N294   Cu2     1.896   .     S
N295   C2804   1.433   .     S
C2801  C2802   1.405   .     D
C2801  C2806   1.403   .     S
C2801  N398    1.441   .     S
C2802  C2803   1.399   .     S
C2802  H1768   1.140   .     S
C2803  H1769   1.140   .     S
C2803  C2804   1.407   .     D
C2804  C2805   1.398   .     S
C2805  H1770   1.140   .     S
C2805  C2806   1.393   .     D
C2806  H1771   1.140   .     S
C2807  C2808   1.404   .     D
C2807  N437    1.445   .     S
C2807  C2812   1.407   .     S
C2808  H1772   1.140   .     S
C2808  C2809   1.390   .     S
C2809  H1773   1.140   .     S
C2809  C2810   1.396   .     D
C2810  C2811   1.407   .     S
C2811  C2812   1.403   .     D
C2811  H1774   1.140   .     S
C2812  H1775   1.140   .     S
F147   B8      1.417   .     S
F148   B8      1.416   .     S
C2813  H1777   1.140   .     S
C2813  N339    1.297   .     D
C2814  H1778   1.140   .     S
C2814  C2815   1.397   .     D
C2814  C2819   1.401   1_556 S
C2815  H1779   1.140   .     S
C2815  C2816   1.401   .     S
C2816  C2817   1.405   .     D
C2817  H1780   1.139   .     S
C2817  C2818   1.395   1_556 S
C2818  H1781   1.140   .     S
C2818  C2819   1.404   .     D
C2818  C2817   1.395   1_554 S
C2819  C2814   1.401   1_554 S
C2820  N297    1.361   .     D
C2820  C2821   1.406   .     S
C2821  H1782   1.140   .     S
C2821  C2822   1.403   .     D
C2822  H1783   1.140   .     S
C2822  C2824   1.402   .     S
C2823  C2824   1.404   .     D
C2823  N297    1.363   .     S
C2824  C2825   1.406   .     S
C2825  H1784   1.140   .     S
C2826  C2827   1.409   .     S
C2826  H1785   1.140   .     S
C2826  C2598   1.413   1_554 D
C2827  C2829   1.408   .     S
C2827  C2828   1.398   .     D
C2828  N298    1.356   .     S
C2828  C2600   1.407   1_554 S
C2829  H1786   1.140   .     S
C2829  C2830   1.411   .     D
C2830  H1787   1.140   .     S
C2830  C2831   1.406   .     S
C2831  N298    1.349   .     D
C2832  C2833   1.397   .     D
C2833  H1788   1.140   .     S
C2834  N124    1.308   1_554 D
C2835  C2836   1.405   .     S
C2835  H1789   1.140   .     S
C2836  C2837   1.405   .     D
C2837  H1790   1.140   .     S
C2837  C2838   1.403   .     S
C2838  H1791   1.140   .     S
N297   Cu44    1.915   .     S
N298   Cu7     1.896   .     S
N299   C2842   1.433   .     S
C2839  C2840   1.405   .     D
C2839  C2844   1.403   .     S
C2839  N399    1.441   .     S
C2840  H1792   1.140   .     S
C2840  C2841   1.399   .     S
C2841  H1793   1.140   .     S
C2841  C2842   1.407   .     D
C2842  C2843   1.398   .     S
C2843  H1794   1.140   .     S
C2843  C2844   1.393   .     D
C2844  H1795   1.140   .     S
C2845  N445    1.445   .     S
C2845  C2846   1.404   .     D
C2845  C2850   1.407   .     S
C2846  C2847   1.390   .     S
C2846  H1796   1.140   .     S
C2847  H1797   1.140   .     S
C2847  C2848   1.396   .     D
C2848  C2849   1.407   .     S
C2849  C2850   1.403   .     D
C2849  H1798   1.140   .     S
C2850  H1799   1.140   .     S
F149   B39     1.417   .     S
F150   B39     1.416   .     S
C2851  H1801   1.140   .     S
C2851  N343    1.297   .     D
C2852  C2853   1.397   .     S
C2852  C2857   1.401   .     D
C2852  H1802   1.140   .     S
C2853  C2854   1.401   .     D
C2853  H1803   1.140   .     S
C2854  C2855   1.405   .     S
C2855  C2856   1.395   .     D
C2855  H1804   1.139   .     S
C2856  C2857   1.404   .     S
C2856  H1805   1.140   .     S
C2858  N301    1.361   .     D
C2858  C2859   1.406   .     S
C2859  H1806   1.140   .     S
C2859  C2860   1.403   .     D
C2860  C2862   1.402   .     S
C2860  H1807   1.140   .     S
C2861  N301    1.363   .     S
C2861  C2862   1.404   .     D
C2862  C2863   1.406   .     S
C2863  H1808   1.140   .     S
C2864  C2865   1.409   .     S
C2864  H1809   1.140   .     S
C2864  C2636   1.413   1_545 D
C2865  C2867   1.408   .     S
C2865  C2866   1.398   .     D
C2866  N302    1.356   .     S
C2866  C2638   1.407   1_545 S
C2867  H1810   1.140   .     S
C2867  C2868   1.411   .     D
C2868  H1811   1.140   .     S
C2868  C2869   1.406   .     S
C2869  N302    1.349   .     D
C2870  C2871   1.397   1_565 S
C2871  H1812   1.140   .     S
C2871  C2870   1.397   1_545 S
C2873  C2874   1.405   .     S
C2873  H1813   1.140   .     S
C2874  C2875   1.405   .     D
C2875  H1814   1.140   .     S
C2875  C2876   1.403   .     S
C2876  H1815   1.140   .     S
N301   Cu43    1.915   .     S
N302   Cu8     1.896   .     S
N303   C2880   1.433   .     S
C2877  C2878   1.405   .     D
C2877  N400    1.441   .     S
C2877  C2882   1.403   .     S
C2878  H1816   1.140   .     S
C2878  C2879   1.399   .     S
C2879  C2880   1.407   .     D
C2879  H1817   1.140   .     S
C2880  C2881   1.398   .     S
C2881  C2882   1.393   .     D
C2881  H1818   1.140   .     S
C2882  H1819   1.140   .     S
C2883  C2888   1.407   .     D
C2883  N446    1.445   .     S
C2883  C2884   1.404   .     S
C2884  H1820   1.140   .     S
C2884  C2885   1.390   .     D
C2885  C2886   1.396   .     S
C2885  H1821   1.140   .     S
C2886  C2887   1.407   .     D
C2887  C2888   1.403   .     S
C2887  H1822   1.140   .     S
C2888  H1823   1.140   .     S
F151   B9      1.417   .     S
F152   B9      1.416   .     S
C2889  H1825   1.140   .     S
C2889  N379    1.297   .     D
C2890  C2891   1.397   .     S
C2890  H1826   1.140   .     S
C2890  C2895   1.401   .     D
C2891  H1827   1.140   .     S
C2891  C2892   1.401   .     D
C2892  C2893   1.405   .     S
C2893  H1828   1.139   .     S
C2893  C2894   1.395   .     D
C2894  C2895   1.404   .     S
C2894  H1829   1.140   .     S
C2896  N305    1.361   .     D
C2896  C2897   1.406   .     S
C2897  H1830   1.140   .     S
C2897  C2898   1.403   .     D
C2898  C2900   1.402   .     S
C2898  H1831   1.140   .     S
C2899  C2900   1.404   .     D
C2899  N305    1.363   .     S
C2900  C2901   1.406   .     S
C2901  H1832   1.140   .     S
C2902  C2903   1.409   .     S
C2902  H1833   1.140   .     S
C2902  C2522   1.413   1_545 D
C2903  C2904   1.398   .     S
C2903  C2905   1.408   .     D
C2904  N306    1.356   .     D
C2904  C2524   1.407   1_545 S
C2905  C2906   1.411   .     S
C2905  H1834   1.140   .     S
C2906  C2907   1.406   .     D
C2906  H1835   1.140   .     S
C2907  N306    1.349   .     S
C2908  C2909   1.397   1_565 S
C2909  H1836   1.140   .     S
C2909  C2908   1.397   1_545 S
C2911  H1837   1.140   .     S
C2911  C2912   1.405   .     D
C2912  C2913   1.405   .     S
C2913  C2914   1.403   .     D
C2913  H1838   1.140   .     S
C2914  H1839   1.140   .     S
N305   Cu42    1.915   .     S
N306   Cu5     1.896   .     S
N307   C2918   1.433   .     S
C2915  C2916   1.405   .     D
C2915  C2920   1.403   .     S
C2915  N389    1.441   .     S
C2916  C2917   1.399   .     S
C2916  H1840   1.140   .     S
C2917  H1841   1.140   .     S
C2917  C2918   1.407   .     D
C2918  C2919   1.398   .     S
C2919  H1842   1.140   .     S
C2919  C2920   1.393   .     D
C2920  H1843   1.140   .     S
C2921  N434    1.445   .     S
C2921  C2922   1.404   .     D
C2921  C2926   1.407   .     S
C2922  C2923   1.390   .     S
C2922  H1844   1.140   .     S
C2923  H1845   1.140   .     S
C2923  C2924   1.396   .     D
C2924  C2925   1.407   .     S
C2925  C2926   1.403   .     D
C2925  H1846   1.140   .     S
C2926  H1847   1.140   .     S
F153   B40     1.417   .     S
F154   B40     1.416   .     S
C2927  H1849   1.140   .     S
C2927  N383    1.297   .     D
C2928  C2929   1.397   .     D
C2928  H1850   1.140   .     S
C2928  C2933   1.401   1_554 S
C2929  C2930   1.401   .     S
C2929  H1851   1.140   .     S
C2930  C2931   1.405   .     D
C2931  H1852   1.139   .     S
C2931  C2932   1.395   1_554 S
C2932  C2933   1.404   .     D
C2932  H1853   1.140   .     S
C2932  C2931   1.395   1_556 S
C2933  C2928   1.401   1_556 S
C2934  N309    1.361   .     D
C2934  C2935   1.406   .     S
C2935  H1854   1.140   .     S
C2935  C2936   1.403   .     D
C2936  C2938   1.402   .     S
C2936  H1855   1.140   .     S
C2937  C2938   1.404   .     D
C2937  N309    1.363   .     S
C2938  C2939   1.406   .     S
C2939  H1856   1.140   .     S
C2940  C2941   1.409   .     S
C2940  H1857   1.140   .     S
C2940  C2560   1.413   1_556 D
C2941  C2942   1.398   .     S
C2941  C2943   1.408   .     D
C2942  N310    1.356   .     D
C2942  C2562   1.407   1_556 S
C2943  C2944   1.411   .     S
C2943  H1858   1.140   .     S
C2944  C2945   1.406   .     D
C2944  H1859   1.140   .     S
C2945  N310    1.349   .     S
C2946  C2947   1.397   .     S
C2947  H1860   1.140   .     S
C2948  N72     1.308   1_556 D
C2949  H1861   1.140   .     S
C2949  C2950   1.405   .     D
C2950  C2951   1.405   .     S
C2951  C2952   1.403   .     D
C2951  H1862   1.140   .     S
C2952  H1863   1.140   .     S
N309   Cu41    1.915   .     S
N310   Cu6     1.896   1_556 S
N311   C2956   1.433   .     S
C2953  C2958   1.403   .     D
C2953  C2954   1.405   .     S
C2953  N390    1.441   .     S
C2954  C2955   1.399   .     D
C2954  H1864   1.140   .     S
C2955  H1865   1.140   .     S
C2955  C2956   1.407   .     S
C2956  C2957   1.398   .     D
C2957  H1866   1.140   .     S
C2957  C2958   1.393   .     S
C2958  H1867   1.140   .     S
C2959  N442    1.445   .     S
C2959  C2960   1.404   .     D
C2959  C2964   1.407   .     S
C2960  C2961   1.390   .     S
C2960  H1868   1.140   .     S
C2961  H1869   1.140   .     S
C2961  C2962   1.396   .     D
C2962  C2963   1.407   .     S
C2963  C2964   1.403   .     D
C2963  H1870   1.140   .     S
C2964  H1871   1.140   .     S
F155   B4      1.417   .     S
F156   B4      1.416   .     S
C2965  H1873   1.140   .     S
C2965  N371    1.297   .     D
C2966  C2967   1.397   .     D
C2966  H1874   1.140   .     S
C2966  C2971   1.401   1_554 S
C2967  C2968   1.401   .     S
C2967  H1875   1.140   .     S
C2968  C2969   1.405   .     D
C2969  H1876   1.139   .     S
C2969  C2970   1.395   1_554 S
C2970  H1877   1.140   .     S
C2970  C2971   1.404   .     D
C2970  C2969   1.395   1_556 S
C2971  C2966   1.401   1_556 S
C2972  N313    1.361   .     D
C2972  C2973   1.406   .     S
C2973  H1878   1.140   .     S
C2973  C2974   1.403   .     D
C2974  C2976   1.402   .     S
C2974  H1879   1.140   .     S
C2975  C2976   1.404   .     D
C2975  N313    1.363   .     S
C2976  C2977   1.406   .     S
C2977  H1880   1.140   .     S
C2978  C2979   1.409   .     S
C2978  H1881   1.140   .     S
C2978  C2446   1.413   1_546 D
C2979  C2980   1.398   .     S
C2979  C2981   1.408   .     D
C2980  N314    1.356   .     D
C2980  C2448   1.407   1_546 S
C2981  H1882   1.140   .     S
C2981  C2982   1.411   .     S
C2982  C2983   1.406   .     D
C2982  H1883   1.140   .     S
C2983  N314    1.349   .     S
C2984  C2985   1.397   1_565 S
C2985  H1884   1.140   .     S
C2985  C2984   1.397   1_545 S
C2986  N76     1.308   1_556 D
C2987  H1885   1.140   .     S
C2987  C2988   1.405   .     S
C2988  C2989   1.405   .     D
C2989  C2990   1.403   .     S
C2989  H1886   1.140   .     S
C2990  H1887   1.140   .     S
N313   Cu48    1.915   .     S
N314   Cu3     1.896   1_556 S
N315   C2994   1.433   .     S
C2991  C2992   1.405   .     D
C2991  C2996   1.403   .     S
C2991  N391    1.441   .     S
C2992  C2993   1.399   .     S
C2992  H1888   1.140   .     S
C2993  H1889   1.140   .     S
C2993  C2994   1.407   .     D
C2994  C2995   1.398   .     S
C2995  H1890   1.140   .     S
C2995  C2996   1.393   .     D
C2996  H1891   1.140   .     S
C2997  N448    1.445   .     S
C2997  C2998   1.404   .     D
C2997  C3002   1.407   .     S
C2998  C2999   1.390   .     S
C2998  H1892   1.140   .     S
C2999  H1893   1.140   .     S
C2999  C3000   1.396   .     D
C3000  C3001   1.407   .     S
C3001  H1894   1.140   .     S
C3001  C3002   1.403   .     D
C3002  H1895   1.140   .     S
F157   B41     1.417   .     S
F158   B41     1.416   .     S
C3003  H1897   1.140   .     S
C3003  N375    1.297   .     D
C3004  C3005   1.397   .     S
C3004  H1898   1.140   .     S
C3004  C3009   1.401   .     D
C3005  H1899   1.140   .     S
C3005  C3006   1.401   .     D
C3006  C3007   1.405   .     S
C3007  H1900   1.139   .     S
C3007  C3008   1.395   .     D
C3008  H1901   1.140   .     S
C3008  C3009   1.404   .     S
C3010  N317    1.361   .     D
C3010  C3011   1.406   .     S
C3011  H1902   1.140   .     S
C3011  C3012   1.403   .     D
C3012  C3014   1.402   .     S
C3012  H1903   1.140   .     S
C3013  C3014   1.404   .     D
C3013  N317    1.363   .     S
C3014  C3015   1.406   .     S
C3015  H1904   1.140   .     S
C3016  C3017   1.409   .     S
C3016  H1905   1.140   .     S
C3017  C3018   1.398   .     S
C3017  C3019   1.408   .     D
C3018  N318    1.356   .     D
C3019  H1906   1.140   .     S
C3019  C3020   1.411   .     S
C3020  C3021   1.406   .     D
C3020  H1907   1.140   .     S
C3021  N318    1.349   .     S
C3022  C3023   1.397   .     S
C3023  H1908   1.140   .     S
C3025  C3026   1.405   .     S
C3025  H1909   1.140   .     S
C3026  C3027   1.405   .     D
C3027  C3028   1.403   .     S
C3027  H1910   1.140   .     S
C3028  H1911   1.140   .     S
N317   Cu47    1.915   .     S
N318   Cu4     1.896   .     S
N319   C3032   1.433   .     S
C3029  C3030   1.405   .     D
C3029  C3034   1.403   .     S
C3029  N392    1.441   .     S
C3030  C3031   1.399   .     S
C3030  H1912   1.140   .     S
C3031  H1913   1.140   .     S
C3031  C3032   1.407   .     D
C3032  C3033   1.398   .     S
C3033  H1914   1.140   .     S
C3033  C3034   1.393   .     D
C3034  H1915   1.140   .     S
C3035  N435    1.445   .     S
C3035  C3036   1.404   .     D
C3035  C3040   1.407   .     S
C3036  C3037   1.390   .     S
C3036  H1916   1.140   .     S
C3037  H1917   1.140   .     S
C3037  C3038   1.396   .     D
C3038  C3039   1.407   .     S
C3039  C3040   1.403   .     D
C3039  H1918   1.140   .     S
C3040  H1919   1.140   .     S
F159   B5      1.417   .     S
F160   B5      1.416   .     S
C3041  H1921   1.140   .     S
C3042  C3043   1.397   .     S
C3042  H1922   1.140   .     S
C3042  C3047   1.401   1_545 D
C3043  H1923   1.140   .     S
C3043  C3044   1.401   .     D
C3044  C3045   1.405   .     S
C3045  H1924   1.139   .     S
C3045  C3046   1.395   1_545 D
C3046  H1925   1.140   .     S
C3046  C3047   1.404   .     S
C3046  C3045   1.395   1_565 D
C3047  C3466   1.474   .     S
C3047  C3042   1.401   1_565 D
C3048  C3465   1.474   .     S
C3048  N321    1.361   .     D
C3048  C3049   1.406   .     S
C3049  C3050   1.403   .     D
C3049  H1926   1.140   .     S
C3050  H1927   1.140   .     S
C3050  C3052   1.402   .     S
C3051  C3052   1.404   .     D
C3051  C3393   1.416   .     S
C3051  N321    1.363   .     S
C3052  C3053   1.406   .     S
C3053  H1928   1.140   .     S
C3053  C3395   1.405   .     D
C3054  C3055   1.409   .     D
C3054  H1929   1.140   .     S
C3054  C3548   1.413   1_565 S
C3055  C3057   1.408   .     S
C3055  C3056   1.398   .     S
C3056  N322    1.356   .     S
C3056  C3550   1.407   1_565 D
C3057  H1930   1.140   .     S
C3057  C3058   1.411   .     D
C3058  C3059   1.406   .     S
C3058  H1931   1.140   .     S
C3059  N322    1.349   .     D
C3059  C3554   1.423   .     S
C3060  C3061   1.397   .     S
C3060  C3553   1.423   .     S
C3061  H1932   1.140   .     S
C3062  N36     1.308   1_565 D
C3063  H1933   1.140   .     S
C3063  C3064   1.405   .     D
C3064  C3065   1.405   .     S
C3065  C3066   1.403   .     D
C3065  H1934   1.140   .     S
C3066  H1935   1.140   .     S
N321   Cu30    1.915   .     S
N322   Cu23    1.896   1_565 S
N323   C3070   1.433   .     S
C3067  C3072   1.403   .     D
C3067  C3068   1.405   .     S
C3067  N385    1.441   .     S
C3068  C3069   1.399   .     D
C3068  H1936   1.140   .     S
C3069  H1937   1.140   .     S
C3069  C3070   1.407   .     S
C3070  C3071   1.398   .     D
C3071  H1938   1.140   .     S
C3071  C3072   1.393   .     S
C3072  H1939   1.140   .     S
C3073  N437    1.445   .     S
C3073  C3078   1.407   .     S
C3073  C3074   1.404   .     D
C3074  C3075   1.390   .     S
C3074  H1940   1.140   .     S
C3075  H1941   1.140   .     S
C3075  C3076   1.396   .     D
C3076  C3077   1.407   .     S
C3076  N380    1.431   .     S
C3077  H1942   1.140   .     S
C3077  C3078   1.403   .     D
C3078  H1943   1.140   .     S
N324   C3608   1.431   .     S
F161   B21     1.417   .     S
F162   B21     1.416   .     S
C3079  H1945   1.140   .     S
C3080  C3081   1.397   .     S
C3080  H1946   1.140   .     S
C3080  C3085   1.401   .     D
C3081  H1947   1.140   .     S
C3081  C3082   1.401   .     D
C3082  C3083   1.405   .     S
C3083  H1948   1.139   .     S
C3083  C3084   1.395   .     D
C3084  C3085   1.404   .     S
C3084  H1949   1.140   .     S
C3085  C3428   1.474   .     S
C3086  C3427   1.474   .     S
C3086  N325    1.361   .     D
C3086  C3087   1.406   .     S
C3087  C3088   1.403   .     D
C3087  H1950   1.140   .     S
C3088  H1951   1.140   .     S
C3088  C3090   1.402   .     S
C3089  C3355   1.416   .     D
C3089  N325    1.363   .     S
C3089  C3090   1.404   .     S
C3090  C3091   1.406   .     D
C3091  C3357   1.405   .     S
C3091  H1952   1.140   .     S
C3092  C3093   1.409   .     S
C3092  C3510   1.413   .     D
C3092  H1953   1.140   .     S
C3093  C3094   1.398   .     S
C3093  C3095   1.408   .     D
C3094  C3512   1.407   .     S
C3094  N326    1.356   .     D
C3095  H1954   1.140   .     S
C3095  C3096   1.411   .     S
C3096  C3097   1.406   .     D
C3096  H1955   1.140   .     S
C3097  C3516   1.423   .     S
C3097  N326    1.349   .     S
C3098  C3515   1.423   .     S
C3098  C3099   1.397   .     S
C3099  H1956   1.140   .     S
C3101  H1957   1.140   .     S
C3101  C3102   1.405   .     D
C3102  C3103   1.405   .     S
C3103  C3104   1.403   .     D
C3103  H1958   1.140   .     S
C3104  H1959   1.140   .     S
N325   Cu28    1.915   .     S
N326   Cu17    1.896   .     S
N327   C3108   1.433   .     S
C3105  C3110   1.403   .     D
C3105  C3106   1.405   .     S
C3105  N386    1.441   .     S
C3106  C3107   1.399   .     D
C3106  H1960   1.140   .     S
C3107  H1961   1.140   .     S
C3107  C3108   1.407   .     S
C3108  C3109   1.398   .     D
C3109  H1962   1.140   .     S
C3109  C3110   1.393   .     S
C3110  H1963   1.140   .     S
C3111  N436    1.445   .     S
C3111  C3112   1.404   .     D
C3111  C3116   1.407   .     S
C3112  H1964   1.140   .     S
C3112  C3113   1.390   .     S
C3113  H1965   1.140   .     S
C3113  C3114   1.396   .     D
C3114  C3115   1.407   .     S
C3114  N384    1.431   .     S
C3115  H1966   1.140   .     S
C3115  C3116   1.403   .     D
C3116  H1967   1.140   .     S
N328   C3646   1.431   .     S
F163   B42     1.417   .     S
F164   B42     1.416   .     S
C3117  H1969   1.140   .     S
C3118  H1970   1.140   .     S
C3118  C3119   1.397   .     S
C3118  C3123   1.401   1_545 D
C3119  C3120   1.401   .     D
C3119  H1971   1.140   .     S
C3120  C3121   1.405   .     S
C3121  H1972   1.139   .     S
C3121  C3122   1.395   1_545 D
C3122  C3123   1.404   .     S
C3122  H1973   1.140   .     S
C3122  C3121   1.395   1_565 D
C3123  C3390   1.474   .     S
C3123  C3118   1.401   1_565 D
C3124  C3389   1.474   .     S
C3124  N329    1.361   .     D
C3124  C3125   1.406   .     S
C3125  C3126   1.403   .     D
C3125  H1974   1.140   .     S
C3126  C3128   1.402   .     S
C3126  H1975   1.140   .     S
C3127  C3469   1.416   .     D
C3127  N329    1.363   .     S
C3127  C3128   1.404   .     S
C3128  C3129   1.406   .     D
C3129  C3471   1.405   .     S
C3129  H1976   1.140   .     S
C3130  C3131   1.409   .     D
C3130  H1977   1.140   .     S
C3130  C3624   1.413   1_665 S
C3131  C3132   1.398   .     S
C3131  C3133   1.408   .     S
C3132  N330    1.356   .     S
C3132  C3626   1.407   1_665 D
C3133  H1978   1.140   .     S
C3133  C3134   1.411   .     D
C3134  C3135   1.406   .     S
C3134  H1979   1.140   .     S
C3135  C3630   1.423   .     S
C3135  N330    1.349   .     D
C3136  C3629   1.423   .     S
C3136  C3137   1.397   1_455 D
C3137  H1980   1.140   .     S
C3137  C3136   1.397   1_655 D
C3138  N44     1.308   1_565 D
C3139  H1981   1.140   .     S
C3139  C3140   1.405   .     D
C3140  C3141   1.405   .     S
C3141  C3142   1.403   .     D
C3141  H1982   1.140   .     S
C3142  H1983   1.140   .     S
N329   Cu29    1.915   .     S
N330   Cu24    1.896   1_665 S
N331   C3146   1.433   .     S
C3143  C3144   1.405   .     D
C3143  C3148   1.403   .     S
C3143  N387    1.441   .     S
C3144  C3145   1.399   .     S
C3144  H1984   1.140   .     S
C3145  H1985   1.140   .     S
C3145  C3146   1.407   .     D
C3146  C3147   1.398   .     S
C3147  H1986   1.140   .     S
C3147  C3148   1.393   .     D
C3148  H1987   1.140   .     S
C3149  C3150   1.404   .     D
C3149  N446    1.445   .     S
C3149  C3154   1.407   .     S
C3150  H1988   1.140   .     S
C3150  C3151   1.390   .     S
C3151  H1989   1.140   .     S
C3151  C3152   1.396   .     D
C3152  C3153   1.407   .     S
C3152  N372    1.431   .     S
C3153  H1990   1.140   .     S
C3153  C3154   1.403   .     D
C3154  H1991   1.140   .     S
N332   C3532   1.431   .     S
F165   B20     1.417   .     S
F166   B20     1.416   .     S
C3155  H1993   1.140   .     S
C3156  H1994   1.140   .     S
C3156  C3157   1.397   .     S
C3156  C3161   1.401   .     D
C3157  H1995   1.140   .     S
C3157  C3158   1.401   .     D
C3158  C3159   1.405   .     S
C3159  H1996   1.139   .     S
C3159  C3160   1.395   .     D
C3160  H1997   1.140   .     S
C3160  C3161   1.404   .     S
C3161  C3352   1.474   .     S
C3162  C3351   1.474   .     S
C3162  N333    1.361   .     D
C3162  C3163   1.406   .     S
C3163  C3164   1.403   .     D
C3163  H1998   1.140   .     S
C3164  H1999   1.140   .     S
C3164  C3166   1.402   .     S
C3165  C3166   1.404   .     S
C3165  C3431   1.416   .     D
C3165  N333    1.363   .     S
C3166  C3167   1.406   .     D
C3167  H2000   1.140   .     S
C3167  C3433   1.405   .     S
C3168  C3169   1.409   .     D
C3168  H2001   1.140   .     S
C3168  C3586   1.413   1_655 S
C3169  C3171   1.408   .     S
C3169  C3170   1.398   .     S
C3170  N334    1.356   .     S
C3170  C3588   1.407   1_655 D
C3171  H2002   1.140   .     S
C3171  C3172   1.411   .     D
C3172  C3173   1.406   .     S
C3172  H2003   1.140   .     S
C3173  N334    1.349   .     D
C3173  C3592   1.423   .     S
C3174  C3591   1.423   .     S
C3174  C3175   1.397   1_455 D
C3175  H2004   1.140   .     S
C3175  C3174   1.397   1_655 D
C3177  H2005   1.140   .     S
C3177  C3178   1.405   .     D
C3178  C3179   1.405   .     S
C3179  C3180   1.403   .     D
C3179  H2006   1.140   .     S
C3180  H2007   1.140   .     S
N333   Cu27    1.915   .     S
N334   Cu18    1.896   1_655 S
N335   C3184   1.433   .     S
C3181  C3182   1.405   .     D
C3181  C3186   1.403   .     S
C3181  N388    1.441   .     S
C3182  C3183   1.399   .     S
C3182  H2008   1.140   .     S
C3183  H2009   1.140   .     S
C3183  C3184   1.407   .     D
C3184  C3185   1.398   .     S
C3185  H2010   1.140   .     S
C3185  C3186   1.393   .     D
C3186  H2011   1.140   .     S
C3187  N445    1.445   .     S
C3187  C3192   1.407   .     S
C3187  C3188   1.404   .     D
C3188  C3189   1.390   .     S
C3188  H2012   1.140   .     S
C3189  H2013   1.140   .     S
C3189  C3190   1.396   .     D
C3190  C3191   1.407   .     S
C3190  N376    1.431   .     S
C3191  H2014   1.140   .     S
C3191  C3192   1.403   .     D
C3192  H2015   1.140   .     S
N336   C3570   1.431   .     S
F167   B19     1.417   .     S
F168   B19     1.416   .     S
C3193  H2017   1.140   .     S
C3194  H2018   1.140   .     S
C3194  C3195   1.397   .     D
C3194  C3199   1.401   1_565 S
C3195  H2019   1.140   .     S
C3195  C3196   1.401   .     S
C3196  C3197   1.405   .     D
C3197  H2020   1.139   .     S
C3197  C3198   1.395   1_565 S
C3198  H2021   1.140   .     S
C3198  C3199   1.404   .     D
C3198  C3197   1.395   1_545 S
C3199  C3618   1.474   .     S
C3199  C3194   1.401   1_545 S
C3200  C3201   1.406   .     D
C3200  C3617   1.474   .     S
C3200  N337    1.361   .     S
C3201  H2022   1.140   .     S
C3201  C3202   1.403   .     S
C3202  H2023   1.140   .     S
C3202  C3204   1.402   .     D
C3203  C3204   1.404   .     S
C3203  C3545   1.416   .     S
C3203  N337    1.363   .     D
C3204  C3205   1.406   .     S
C3205  C3547   1.405   .     D
C3205  H2024   1.140   .     S
C3206  C3207   1.409   .     S
C3206  H2025   1.140   .     S
C3206  C3396   1.413   1_645 D
C3207  C3209   1.408   .     D
C3207  C3208   1.398   .     S
C3208  N338    1.356   .     D
C3208  C3398   1.407   1_645 S
C3209  H2026   1.140   .     S
C3209  C3210   1.411   .     S
C3210  H2027   1.140   .     S
C3210  C3211   1.406   .     D
C3211  N338    1.349   .     S
C3211  C3402   1.423   .     S
C3212  C3401   1.423   .     S
C3212  C3213   1.397   1_455 S
C3213  H2028   1.140   .     S
C3213  C3212   1.397   1_655 S
C3214  N20     1.308   1_545 D
C3215  H2029   1.140   .     S
C3215  C3216   1.405   .     S
C3216  C3217   1.405   .     D
C3217  H2030   1.140   .     S
C3217  C3218   1.403   .     S
C3218  H2031   1.140   .     S
N337   Cu26    1.915   .     S
N338   Cu19    1.896   1_655 S
N339   C3222   1.433   .     S
C3219  C3220   1.405   .     D
C3219  C3224   1.403   .     S
C3219  N397    1.441   .     S
C3220  C3221   1.399   .     S
C3220  H2032   1.140   .     S
C3221  H2033   1.140   .     S
C3221  C3222   1.407   .     D
C3222  C3223   1.398   .     S
C3223  H2034   1.140   .     S
C3223  C3224   1.393   .     D
C3224  H2035   1.140   .     S
C3225  N440    1.445   .     S
C3225  C3230   1.407   .     D
C3225  C3226   1.404   .     S
C3226  C3227   1.390   .     D
C3226  H2036   1.140   .     S
C3227  C3228   1.396   .     S
C3227  H2037   1.140   .     S
C3228  C3229   1.407   .     D
C3228  N364    1.431   .     S
C3229  H2038   1.140   .     S
C3229  C3230   1.403   .     S
C3230  H2039   1.140   .     S
N340   C3456   1.431   .     S
F169   B43     1.417   .     S
F170   B43     1.416   .     S
C3231  H2041   1.140   .     S
C3232  H2042   1.140   .     S
C3232  C3233   1.397   .     S
C3232  C3237   1.401   .     D
C3233  H2043   1.140   .     S
C3233  C3234   1.401   .     D
C3234  C3235   1.405   .     S
C3235  C3236   1.395   .     D
C3235  H2044   1.139   .     S
C3236  C3237   1.404   .     S
C3236  H2045   1.140   .     S
C3237  C3580   1.474   .     S
C3238  C3239   1.406   .     S
C3238  N341    1.361   .     D
C3238  C3579   1.474   .     S
C3239  H2046   1.140   .     S
C3239  C3240   1.403   .     D
C3240  H2047   1.140   .     S
C3240  C3242   1.402   .     S
C3241  N341    1.363   .     S
C3241  C3507   1.416   .     D
C3241  C3242   1.404   .     S
C3242  C3243   1.406   .     D
C3243  C3509   1.405   .     S
C3243  H2048   1.140   .     S
C3244  C3245   1.409   .     S
C3244  H2049   1.140   .     S
C3244  C3358   1.413   1_655 D
C3245  C3246   1.398   .     S
C3245  C3247   1.408   .     D
C3246  N342    1.356   .     D
C3246  C3360   1.407   1_655 S
C3247  C3248   1.411   .     S
C3247  H2050   1.140   .     S
C3248  H2051   1.140   .     S
C3248  C3249   1.406   .     D
C3249  N342    1.349   .     S
C3249  C3364   1.423   .     S
C3250  C3363   1.423   .     S
C3250  C3251   1.397   1_455 S
C3251  H2052   1.140   .     S
C3251  C3250   1.397   1_655 S
C3253  H2053   1.140   .     S
C3253  C3254   1.405   .     S
C3254  C3255   1.405   .     D
C3255  H2054   1.140   .     S
C3255  C3256   1.403   .     S
C3256  H2055   1.140   .     S
N341   Cu32    1.915   .     S
N342   Cu21    1.896   1_655 S
N343   C3260   1.433   .     S
C3257  C3262   1.403   .     S
C3257  C3258   1.405   .     D
C3257  N398    1.441   .     S
C3258  H2056   1.140   .     S
C3258  C3259   1.399   .     S
C3259  H2057   1.140   .     S
C3259  C3260   1.407   .     D
C3260  C3261   1.398   .     S
C3261  C3262   1.393   .     D
C3261  H2058   1.140   .     S
C3262  H2059   1.140   .     S
C3263  N433    1.445   .     S
C3263  C3264   1.404   .     D
C3263  C3268   1.407   .     S
C3264  H2060   1.140   .     S
C3264  C3265   1.390   .     S
C3265  C3266   1.396   .     D
C3265  H2061   1.140   .     S
C3266  C3267   1.407   .     S
C3266  N368    1.431   .     S
C3267  C3268   1.403   .     D
C3267  H2062   1.140   .     S
C3268  H2063   1.140   .     S
N344   C3494   1.431   .     S
F171   B44     1.417   .     S
F172   B44     1.416   .     S
C3269  H2065   1.140   .     S
C3270  H2066   1.140   .     S
C3270  C3271   1.397   .     D
C3270  C3275   1.401   1_565 S
C3271  H2067   1.140   .     S
C3271  C3272   1.401   .     S
C3272  C3273   1.405   .     D
C3273  H2068   1.139   .     S
C3273  C3274   1.395   1_565 S
C3274  H2069   1.140   .     S
C3274  C3275   1.404   .     D
C3274  C3273   1.395   1_545 S
C3275  C3542   1.474   .     S
C3275  C3270   1.401   1_545 S
C3276  C3277   1.406   .     D
C3276  C3541   1.474   .     S
C3276  N345    1.361   .     S
C3277  H2070   1.140   .     S
C3277  C3278   1.403   .     S
C3278  H2071   1.140   .     S
C3278  C3280   1.402   .     D
C3279  C3280   1.404   .     S
C3279  C3621   1.416   .     S
C3279  N345    1.363   .     D
C3280  C3281   1.406   .     S
C3281  C3623   1.405   .     D
C3281  H2072   1.140   .     S
C3282  C3283   1.409   .     S
C3282  H2073   1.140   .     S
C3282  C3472   1.413   1_545 D
C3283  C3284   1.398   .     S
C3283  C3285   1.408   .     D
C3284  N346    1.356   .     D
C3284  C3474   1.407   1_545 S
C3285  C3286   1.411   .     S
C3285  H2074   1.140   .     S
C3286  H2075   1.140   .     S
C3286  C3287   1.406   .     D
C3287  N346    1.349   .     S
C3287  C3478   1.423   .     S
C3288  C3289   1.397   .     D
C3288  C3477   1.423   .     S
C3289  H2076   1.140   .     S
C3290  N28     1.308   1_545 D
C3291  H2077   1.140   .     S
C3291  C3292   1.405   .     S
C3292  C3293   1.405   .     D
C3293  H2078   1.140   .     S
C3293  C3294   1.403   .     S
C3294  H2079   1.140   .     S
N345   Cu25    1.915   .     S
N346   Cu20    1.896   .     S
N347   C3298   1.433   .     S
C3295  C3300   1.403   .     S
C3295  N399    1.441   .     S
C3295  C3296   1.405   .     D
C3296  C3297   1.399   .     S
C3296  H2080   1.140   .     S
C3297  H2081   1.140   .     S
C3297  C3298   1.407   .     D
C3298  C3299   1.398   .     S
C3299  H2082   1.140   .     S
C3299  C3300   1.393   .     D
C3300  H2083   1.140   .     S
C3301  N444    1.445   .     S
C3301  C3302   1.404   .     D
C3301  C3306   1.407   .     S
C3302  C3303   1.390   .     S
C3302  H2084   1.140   .     S
C3303  C3304   1.396   .     D
C3303  H2085   1.140   .     S
C3304  C3305   1.407   .     S
C3304  N356    1.431   .     S
C3305  C3306   1.403   .     D
C3305  H2086   1.140   .     S
C3306  H2087   1.140   .     S
N348   C3380   1.431   .     S
F173   B25     1.417   .     S
F174   B25     1.416   .     S
C3307  H2089   1.140   .     S
C3308  C3309   1.397   .     S
C3308  C3313   1.401   .     D
C3308  H2090   1.140   .     S
C3309  H2091   1.140   .     S
C3309  C3310   1.401   .     D
C3310  C3311   1.405   .     S
C3311  C3312   1.395   .     D
C3311  H2092   1.139   .     S
C3312  H2093   1.140   .     S
C3312  C3313   1.404   .     S
C3313  C3504   1.474   .     S
C3314  C3315   1.406   .     S
C3314  N349    1.361   .     D
C3314  C3503   1.474   .     S
C3315  H2094   1.140   .     S
C3315  C3316   1.403   .     D
C3316  H2095   1.140   .     S
C3316  C3318   1.402   .     S
C3317  N349    1.363   .     S
C3317  C3583   1.416   .     S
C3317  C3318   1.404   .     D
C3318  C3319   1.406   .     S
C3319  C3585   1.405   .     D
C3319  H2096   1.140   .     S
C3320  C3321   1.409   .     S
C3320  H2097   1.140   .     S
C3320  C3434   1.413   .     D
C3321  C3323   1.408   .     D
C3321  C3322   1.398   .     S
C3322  N350    1.356   .     D
C3322  C3436   1.407   .     S
C3323  H2098   1.140   .     S
C3323  C3324   1.411   .     S
C3324  H2099   1.140   .     S
C3324  C3325   1.406   .     D
C3325  N350    1.349   .     S
C3325  C3440   1.423   .     S
C3326  C3327   1.397   .     D
C3326  C3439   1.423   .     S
C3327  H2100   1.140   .     S
C3329  H2101   1.140   .     S
C3329  C3330   1.405   .     S
C3330  C3331   1.405   .     D
C3331  H2102   1.140   .     S
C3331  C3332   1.403   .     S
C3332  H2103   1.140   .     S
N349   Cu31    1.915   .     S
N350   Cu22    1.896   .     S
N351   C3336   1.433   .     S
C3333  N400    1.441   .     S
C3333  C3334   1.405   .     D
C3333  C3338   1.403   .     S
C3334  H2104   1.140   .     S
C3334  C3335   1.399   .     S
C3335  C3336   1.407   .     D
C3335  H2105   1.140   .     S
C3336  C3337   1.398   .     S
C3337  H2106   1.140   .     S
C3337  C3338   1.393   .     D
C3338  H2107   1.140   .     S
C3339  C3344   1.407   .     D
C3339  N443    1.445   .     S
C3339  C3340   1.404   .     S
C3340  H2108   1.140   .     S
C3340  C3341   1.390   .     D
C3341  C3342   1.396   .     S
C3341  H2109   1.140   .     S
C3342  C3343   1.407   .     D
C3342  N360    1.431   .     S
C3343  H2110   1.140   .     S
C3343  C3344   1.403   .     S
C3344  H2111   1.140   .     S
N352   C3418   1.431   .     S
F175   B24     1.417   .     S
F176   B24     1.416   .     S
C3345  H2113   1.140   .     S
C3346  C3347   1.397   .     S
C3346  H2114   1.140   .     S
C3346  C3351   1.401   .     D
C3347  H2115   1.140   .     S
C3347  C3348   1.401   .     D
C3348  C3349   1.405   .     S
C3349  H2116   1.139   .     S
C3349  C3350   1.395   .     D
C3350  C3351   1.404   .     S
C3350  H2117   1.140   .     S
C3352  N353    1.361   .     D
C3352  C3353   1.406   .     S
C3353  H2118   1.140   .     S
C3353  C3354   1.403   .     D
C3354  C3356   1.402   .     S
C3354  H2119   1.140   .     S
C3355  C3356   1.404   .     S
C3355  N353    1.363   .     S
C3356  C3357   1.406   .     D
C3357  H2120   1.140   .     S
C3358  C3359   1.409   .     S
C3358  H2121   1.140   .     S
C3358  C3244   1.413   1_455 D
C3359  C3360   1.398   .     S
C3359  C3361   1.408   .     D
C3360  N354    1.356   .     D
C3360  C3246   1.407   1_455 S
C3361  C3362   1.411   .     S
C3361  H2122   1.140   .     S
C3362  C3363   1.406   .     D
C3362  H2123   1.140   .     S
C3363  N354    1.349   .     S
C3364  C3365   1.397   1_655 S
C3365  H2124   1.140   .     S
C3365  C3364   1.397   1_455 S
C3367  H2125   1.140   .     S
C3367  C3368   1.405   .     D
C3368  C3369   1.405   .     S
C3369  C3370   1.403   .     D
C3369  H2126   1.140   .     S
C3370  H2127   1.140   .     S
N353   Cu28    1.915   .     S
N354   Cu21    1.896   .     S
N355   C3374   1.433   .     S
C3371  C3376   1.403   .     D
C3371  C3372   1.405   .     S
C3371  N393    1.441   .     S
C3372  C3373   1.399   .     D
C3372  H2128   1.140   .     S
C3373  H2129   1.140   .     S
C3373  C3374   1.407   .     S
C3374  C3375   1.398   .     D
C3375  H2130   1.140   .     S
C3375  C3376   1.393   .     S
C3376  H2131   1.140   .     S
C3377  N442    1.445   .     S
C3377  C3382   1.407   .     D
C3377  C3378   1.404   .     S
C3378  C3379   1.390   .     D
C3378  H2132   1.140   .     S
C3379  C3380   1.396   .     S
C3379  H2133   1.140   .     S
C3380  C3381   1.407   .     D
C3381  C3382   1.403   .     S
C3381  H2134   1.140   .     S
C3382  H2135   1.140   .     S
F177   B45     1.417   .     S
F178   B45     1.416   .     S
C3383  H2137   1.140   .     S
C3384  C3385   1.397   .     S
C3384  H2138   1.140   .     S
C3384  C3389   1.401   1_545 D
C3385  H2139   1.140   .     S
C3385  C3386   1.401   .     D
C3386  C3387   1.405   .     S
C3387  H2140   1.139   .     S
C3387  C3388   1.395   1_545 D
C3388  H2141   1.140   .     S
C3388  C3389   1.404   .     S
C3388  C3387   1.395   1_565 D
C3389  C3384   1.401   1_565 D
C3390  N357    1.361   .     D
C3390  C3391   1.406   .     S
C3391  H2142   1.140   .     S
C3391  C3392   1.403   .     D
C3392  C3394   1.402   .     S
C3392  H2143   1.140   .     S
C3393  C3394   1.404   .     D
C3393  N357    1.363   .     S
C3394  C3395   1.406   .     S
C3395  H2144   1.140   .     S
C3396  C3397   1.409   .     S
C3396  H2145   1.140   .     S
C3396  C3206   1.413   1_465 D
C3397  C3399   1.408   .     D
C3397  C3398   1.398   .     S
C3398  N358    1.356   .     D
C3398  C3208   1.407   1_465 S
C3399  H2146   1.140   .     S
C3399  C3400   1.411   .     S
C3400  C3401   1.406   .     D
C3400  H2147   1.140   .     S
C3401  N358    1.349   .     S
C3402  C3403   1.397   1_655 S
C3403  H2148   1.140   .     S
C3403  C3402   1.397   1_455 S
C3404  N8      1.308   1_565 D
C3405  H2149   1.140   .     S
C3405  C3406   1.405   .     D
C3406  C3407   1.405   .     S
C3407  C3408   1.403   .     D
C3407  H2150   1.140   .     S
C3408  H2151   1.140   .     S
N357   Cu30    1.915   .     S
N358   Cu19    1.896   1_565 S
N359   C3412   1.433   .     S
C3409  C3410   1.405   .     D
C3409  C3414   1.403   .     S
C3409  N394    1.441   .     S
C3410  C3411   1.399   .     S
C3410  H2152   1.140   .     S
C3411  H2153   1.140   .     S
C3411  C3412   1.407   .     D
C3412  C3413   1.398   .     S
C3413  H2154   1.140   .     S
C3413  C3414   1.393   .     D
C3414  H2155   1.140   .     S
C3415  N434    1.445   .     S
C3415  C3420   1.407   .     D
C3415  C3416   1.404   .     S
C3416  C3417   1.390   .     D
C3416  H2156   1.140   .     S
C3417  C3418   1.396   .     S
C3417  H2157   1.140   .     S
C3418  C3419   1.407   .     D
C3419  H2158   1.140   .     S
C3419  C3420   1.403   .     S
C3420  H2159   1.140   .     S
F179   B46     1.417   .     S
F180   B46     1.416   .     S
C3421  H2161   1.140   .     S
C3422  C3423   1.397   .     S
C3422  H2162   1.140   .     S
C3422  C3427   1.401   .     D
C3423  H2163   1.140   .     S
C3423  C3424   1.401   .     D
C3424  C3425   1.405   .     S
C3425  H2164   1.139   .     S
C3425  C3426   1.395   .     D
C3426  H2165   1.140   .     S
C3426  C3427   1.404   .     S
C3428  N361    1.361   .     D
C3428  C3429   1.406   .     S
C3429  H2166   1.140   .     S
C3429  C3430   1.403   .     D
C3430  C3432   1.402   .     S
C3430  H2167   1.140   .     S
C3431  C3432   1.404   .     S
C3431  N361    1.363   .     S
C3432  C3433   1.406   .     D
C3433  H2168   1.140   .     S
C3434  C3435   1.409   .     S
C3434  H2169   1.140   .     S
C3435  C3437   1.408   .     D
C3435  C3436   1.398   .     S
C3436  N362    1.356   .     D
C3437  H2170   1.140   .     S
C3437  C3438   1.411   .     S
C3438  C3439   1.406   .     D
C3438  H2171   1.140   .     S
C3439  N362    1.349   .     S
C3440  C3441   1.397   .     D
C3441  H2172   1.140   .     S
C3443  C3444   1.405   .     D
C3443  H2173   1.140   .     S
C3444  C3445   1.405   .     S
C3445  C3446   1.403   .     D
C3445  H2174   1.140   .     S
C3446  H2175   1.140   .     S
N361   Cu27    1.915   .     S
N362   Cu22    1.896   .     S
N363   C3450   1.433   .     S
C3447  C3448   1.405   .     D
C3447  C3452   1.403   .     S
C3447  N395    1.441   .     S
C3448  C3449   1.399   .     S
C3448  H2176   1.140   .     S
C3449  H2177   1.140   .     S
C3449  C3450   1.407   .     D
C3450  C3451   1.398   .     S
C3451  H2178   1.140   .     S
C3451  C3452   1.393   .     D
C3452  H2179   1.140   .     S
C3453  N435    1.445   .     S
C3453  C3458   1.407   .     D
C3453  C3454   1.404   .     S
C3454  C3455   1.390   .     D
C3454  H2180   1.140   .     S
C3455  C3456   1.396   .     S
C3455  H2181   1.140   .     S
C3456  C3457   1.407   .     D
C3457  H2182   1.140   .     S
C3457  C3458   1.403   .     S
C3458  H2183   1.140   .     S
F181   B23     1.417   .     S
F182   B23     1.416   .     S
C3459  H2185   1.140   .     S
C3460  C3461   1.397   .     S
C3460  H2186   1.140   .     S
C3460  C3465   1.401   1_545 D
C3461  H2187   1.140   .     S
C3461  C3462   1.401   .     D
C3462  C3463   1.405   .     S
C3463  H2188   1.139   .     S
C3463  C3464   1.395   1_545 D
C3464  C3465   1.404   .     S
C3464  H2189   1.140   .     S
C3464  C3463   1.395   1_565 D
C3465  C3460   1.401   1_565 D
C3466  N365    1.361   .     D
C3466  C3467   1.406   .     S
C3467  H2190   1.140   .     S
C3467  C3468   1.403   .     D
C3468  C3470   1.402   .     S
C3468  H2191   1.140   .     S
C3469  C3470   1.404   .     S
C3469  N365    1.363   .     S
C3470  C3471   1.406   .     D
C3471  H2192   1.140   .     S
C3472  C3473   1.409   .     S
C3472  H2193   1.140   .     S
C3472  C3282   1.413   1_565 D
C3473  C3474   1.398   .     S
C3473  C3475   1.408   .     D
C3474  N366    1.356   .     D
C3474  C3284   1.407   1_565 S
C3475  C3476   1.411   .     S
C3475  H2194   1.140   .     S
C3476  C3477   1.406   .     D
C3476  H2195   1.140   .     S
C3477  N366    1.349   .     S
C3478  C3479   1.397   .     D
C3479  H2196   1.140   .     S
C3480  N16     1.308   1_565 D
C3481  H2197   1.140   .     S
C3481  C3482   1.405   .     D
C3482  C3483   1.405   .     S
C3483  C3484   1.403   .     D
C3483  H2198   1.140   .     S
C3484  H2199   1.140   .     S
N365   Cu29    1.915   .     S
N366   Cu20    1.896   1_565 S
N367   C3488   1.433   .     S
C3485  C3490   1.403   .     D
C3485  C3486   1.405   .     S
C3485  N396    1.441   .     S
C3486  C3487   1.399   .     D
C3486  H2200   1.140   .     S
C3487  H2201   1.140   .     S
C3487  C3488   1.407   .     S
C3488  C3489   1.398   .     D
C3489  H2202   1.140   .     S
C3489  C3490   1.393   .     S
C3490  H2203   1.140   .     S
C3491  N448    1.445   .     S
C3491  C3496   1.407   .     D
C3491  C3492   1.404   .     S
C3492  C3493   1.390   .     D
C3492  H2204   1.140   .     S
C3493  C3494   1.396   .     S
C3493  H2205   1.140   .     S
C3494  C3495   1.407   .     D
C3495  C3496   1.403   .     S
C3495  H2206   1.140   .     S
C3496  H2207   1.140   .     S
F183   B22     1.417   .     S
F184   B22     1.416   .     S
C3497  H2209   1.140   .     S
C3498  C3499   1.397   .     S
C3498  C3503   1.401   .     D
C3498  H2210   1.140   .     S
C3499  C3500   1.401   .     D
C3499  H2211   1.140   .     S
C3500  C3501   1.405   .     S
C3501  H2212   1.139   .     S
C3501  C3502   1.395   .     D
C3502  C3503   1.404   .     S
C3502  H2213   1.140   .     S
C3504  N369    1.361   .     D
C3504  C3505   1.406   .     S
C3505  H2214   1.140   .     S
C3505  C3506   1.403   .     D
C3506  C3508   1.402   .     S
C3506  H2215   1.140   .     S
C3507  C3508   1.404   .     S
C3507  N369    1.363   .     S
C3508  C3509   1.406   .     D
C3509  H2216   1.140   .     S
C3510  C3511   1.409   .     S
C3510  H2217   1.140   .     S
C3511  C3513   1.408   .     S
C3511  C3512   1.398   .     D
C3512  N370    1.356   .     S
C3513  H2218   1.140   .     S
C3513  C3514   1.411   .     D
C3514  H2219   1.140   .     S
C3514  C3515   1.406   .     S
C3515  N370    1.349   .     D
C3516  C3517   1.397   .     D
C3517  H2220   1.140   .     S
C3519  H2221   1.140   .     S
C3519  C3520   1.405   .     D
C3520  C3521   1.405   .     S
C3521  H2222   1.140   .     S
C3521  C3522   1.403   .     D
C3522  H2223   1.140   .     S
N369   Cu32    1.915   .     S
N370   Cu17    1.896   .     S
N371   C3526   1.433   .     S
C3523  C3524   1.405   .     S
C3523  N389    1.441   .     S
C3523  C3528   1.403   .     D
C3524  H2224   1.140   .     S
C3524  C3525   1.399   .     D
C3525  C3526   1.407   .     S
C3525  H2225   1.140   .     S
C3526  C3527   1.398   .     D
C3527  C3528   1.393   .     S
C3527  H2226   1.140   .     S
C3528  H2227   1.140   .     S
C3529  C3534   1.407   .     D
C3529  C3530   1.404   .     S
C3529  N441    1.445   .     S
C3530  H2228   1.140   .     S
C3530  C3531   1.390   .     D
C3531  C3532   1.396   .     S
C3531  H2229   1.140   .     S
C3532  C3533   1.407   .     D
C3533  H2230   1.140   .     S
C3533  C3534   1.403   .     S
C3534  H2231   1.140   .     S
F185   B47     1.417   .     S
F186   B47     1.416   .     S
C3535  H2233   1.140   .     S
C3536  H2234   1.140   .     S
C3536  C3537   1.397   .     D
C3536  C3541   1.401   1_565 S
C3537  H2235   1.140   .     S
C3537  C3538   1.401   .     S
C3538  C3539   1.405   .     D
C3539  H2236   1.139   .     S
C3539  C3540   1.395   1_565 S
C3540  H2237   1.140   .     S
C3540  C3541   1.404   .     D
C3540  C3539   1.395   1_545 S
C3541  C3536   1.401   1_545 S
C3542  N373    1.361   .     D
C3542  C3543   1.406   .     S
C3543  H2238   1.140   .     S
C3543  C3544   1.403   .     D
C3544  H2239   1.140   .     S
C3544  C3546   1.402   .     S
C3545  C3546   1.404   .     D
C3545  N373    1.363   .     S
C3546  C3547   1.406   .     S
C3547  H2240   1.140   .     S
C3548  C3549   1.409   .     D
C3548  H2241   1.140   .     S
C3548  C3054   1.413   1_545 S
C3549  C3551   1.408   .     S
C3549  C3550   1.398   .     S
C3550  N374    1.356   .     S
C3550  C3056   1.407   1_545 D
C3551  H2242   1.140   .     S
C3551  C3552   1.411   .     D
C3552  H2243   1.140   .     S
C3552  C3553   1.406   .     S
C3553  N374    1.349   .     D
C3554  C3555   1.397   .     D
C3555  H2244   1.140   .     S
C3556  N56     1.308   1_545 D
C3557  C3558   1.405   .     D
C3557  H2245   1.140   .     S
C3558  C3559   1.405   .     S
C3559  H2246   1.140   .     S
C3559  C3560   1.403   .     D
C3560  H2247   1.140   .     S
N373   Cu26    1.915   .     S
N374   Cu23    1.896   .     S
N375   C3564   1.433   .     S
C3561  C3562   1.405   .     S
C3561  C3566   1.403   .     D
C3561  N390    1.441   .     S
C3562  H2248   1.140   .     S
C3562  C3563   1.399   .     D
C3563  H2249   1.140   .     S
C3563  C3564   1.407   .     S
C3564  C3565   1.398   .     D
C3565  H2250   1.140   .     S
C3565  C3566   1.393   .     S
C3566  H2251   1.140   .     S
C3567  N438    1.445   .     S
C3567  C3572   1.407   .     D
C3567  C3568   1.404   .     S
C3568  C3569   1.390   .     D
C3568  H2252   1.140   .     S
C3569  H2253   1.140   .     S
C3569  C3570   1.396   .     S
C3570  C3571   1.407   .     D
C3571  H2254   1.140   .     S
C3571  C3572   1.403   .     S
C3572  H2255   1.140   .     S
F187   B48     1.417   .     S
F188   B48     1.416   .     S
C3573  H2257   1.140   .     S
C3574  C3575   1.397   .     D
C3574  C3579   1.401   .     S
C3574  H2258   1.140   .     S
C3575  H2259   1.140   .     S
C3575  C3576   1.401   .     S
C3576  C3577   1.405   .     D
C3577  C3578   1.395   .     S
C3577  H2260   1.139   .     S
C3578  H2261   1.140   .     S
C3578  C3579   1.404   .     D
C3580  N377    1.361   .     S
C3580  C3581   1.406   .     D
C3581  H2262   1.140   .     S
C3581  C3582   1.403   .     S
C3582  H2263   1.140   .     S
C3582  C3584   1.402   .     D
C3583  N377    1.363   .     D
C3583  C3584   1.404   .     S
C3584  C3585   1.406   .     S
C3585  H2264   1.140   .     S
C3586  C3587   1.409   .     D
C3586  H2265   1.140   .     S
C3586  C3168   1.413   1_455 S
C3587  C3589   1.408   .     S
C3587  C3588   1.398   .     S
C3588  N378    1.356   .     S
C3588  C3170   1.407   1_455 D
C3589  H2266   1.140   .     S
C3589  C3590   1.411   .     D
C3590  H2267   1.140   .     S
C3590  C3591   1.406   .     S
C3591  N378    1.349   .     D
C3592  C3593   1.397   1_655 D
C3593  H2268   1.140   .     S
C3593  C3592   1.397   1_455 D
C3595  H2269   1.140   .     S
C3595  C3596   1.405   .     S
C3596  C3597   1.405   .     D
C3597  H2270   1.140   .     S
C3597  C3598   1.403   .     S
C3598  H2271   1.140   .     S
N377   Cu31    1.915   .     S
N378   Cu18    1.896   .     S
N379   C3602   1.433   .     S
C3599  C3600   1.405   .     S
C3599  N391    1.441   .     S
C3599  C3604   1.403   .     D
C3600  H2272   1.140   .     S
C3600  C3601   1.399   .     D
C3601  C3602   1.407   .     S
C3601  H2273   1.140   .     S
C3602  C3603   1.398   .     D
C3603  C3604   1.393   .     S
C3603  H2274   1.140   .     S
C3604  H2275   1.140   .     S
C3605  C3610   1.407   .     D
C3605  N447    1.445   .     S
C3605  C3606   1.404   .     S
C3606  H2276   1.140   .     S
C3606  C3607   1.390   .     D
C3607  C3608   1.396   .     S
C3607  H2277   1.140   .     S
C3608  C3609   1.407   .     D
C3609  H2278   1.140   .     S
C3609  C3610   1.403   .     S
C3610  H2279   1.140   .     S
F189   B27     1.417   .     S
F190   B27     1.416   .     S
C3611  H2281   1.140   .     S
C3612  H2282   1.140   .     S
C3612  C3613   1.397   .     D
C3612  C3617   1.401   1_565 S
C3613  C3614   1.401   .     S
C3613  H2283   1.140   .     S
C3614  C3615   1.405   .     D
C3615  H2284   1.139   .     S
C3615  C3616   1.395   1_565 S
C3616  C3617   1.404   .     D
C3616  H2285   1.140   .     S
C3616  C3615   1.395   1_545 S
C3617  C3612   1.401   1_545 S
C3618  N381    1.361   .     S
C3618  C3619   1.406   .     D
C3619  H2286   1.140   .     S
C3619  C3620   1.403   .     S
C3620  C3622   1.402   .     D
C3620  H2287   1.140   .     S
C3621  C3622   1.404   .     S
C3621  N381    1.363   .     D
C3622  C3623   1.406   .     S
C3623  H2288   1.140   .     S
C3624  C3625   1.409   .     D
C3624  H2289   1.140   .     S
C3624  C3130   1.413   1_445 S
C3625  C3626   1.398   .     S
C3625  C3627   1.408   .     S
C3626  N382    1.356   .     S
C3626  C3132   1.407   1_445 D
C3627  H2290   1.140   .     S
C3627  C3628   1.411   .     D
C3628  H2291   1.140   .     S
C3628  C3629   1.406   .     S
C3629  N382    1.349   .     D
C3630  C3631   1.397   1_655 D
C3631  H2292   1.140   .     S
C3631  C3630   1.397   1_455 D
C3632  N64     1.308   1_545 D
C3633  H2293   1.140   .     S
C3633  C3634   1.405   .     S
C3634  C3635   1.405   .     D
C3635  H2294   1.140   .     S
C3635  C3636   1.403   .     S
C3636  H2295   1.140   .     S
N381   Cu25    1.915   .     S
N382   Cu24    1.896   .     S
N383   C3640   1.433   .     S
C3637  C3638   1.405   .     S
C3637  C3642   1.403   .     D
C3637  N392    1.441   .     S
C3638  C3639   1.399   .     D
C3638  H2296   1.140   .     S
C3639  H2297   1.140   .     S
C3639  C3640   1.407   .     S
C3640  C3641   1.398   .     D
C3641  H2298   1.140   .     S
C3641  C3642   1.393   .     S
C3642  H2299   1.140   .     S
C3643  C3644   1.404   .     S
C3643  N439    1.445   .     S
C3643  C3648   1.407   .     D
C3644  H2300   1.140   .     S
C3644  C3645   1.390   .     D
C3645  H2301   1.140   .     S
C3645  C3646   1.396   .     S
C3646  C3647   1.407   .     D
C3647  H2302   1.140   .     S
C3647  C3648   1.403   .     S
C3648  H2303   1.140   .     S
F191   B26     1.417   .     S
F192   B26     1.416   .     S
Cu2    N145    1.915   1_545 S
Cu2    N185    1.915   1_554 S
Cu2    N286    1.896   1_544 S
Cu3    N141    1.915   1_544 S
Cu3    N258    1.896   1_545 S
Cu3    N314    1.896   1_554 S
Cu5    N133    1.915   1_545 S
Cu5    N266    1.896   1_545 S
Cu6    N129    1.915   1_554 S
Cu6    N310    1.896   1_554 S
Cu7    N181    1.915   1_554 S
Cu7    N274    1.896   1_554 S
Cu8    N153    1.915   1_545 S
Cu8    N278    1.896   1_545 S
Cu10   N29     1.915   1_554 S
Cu10   N234    1.896   1_554 S
Cu11   N5      1.915   1_454 S
Cu11   N206    1.896   1_455 S
Cu11   N242    1.896   1_554 S
Cu12   N1      1.915   1_455 S
Cu12   N202    1.896   1_455 S
Cu13   N9      1.915   1_554 S
Cu13   N254    1.896   1_554 S
Cu15   N57     1.915   1_455 S
Cu15   N226    1.896   1_455 S
Cu16   N17     1.915   1_554 S
Cu16   N61     1.915   1_455 S
Cu16   N230    1.896   1_454 S
Cu18   N85     1.915   1_455 S
Cu18   N334    1.896   1_455 S
Cu19   N73     1.915   1_445 S
Cu19   N338    1.896   1_455 S
Cu19   N358    1.896   1_545 S
Cu20   N65     1.915   1_545 S
Cu20   N366    1.896   1_545 S
Cu21   N77     1.915   1_455 S
Cu21   N342    1.896   1_455 S
Cu23   N125    1.915   1_545 S
Cu23   N322    1.896   1_545 S
Cu24   N81     1.915   1_455 S
Cu24   N117    1.915   1_545 S
Cu24   N330    1.896   1_445 S
Cu25   N86     1.896   1_545 S
Cu25   N98     1.896   1_545 S
Cu26   N94     1.896   1_545 S
Cu26   N106    1.896   1_545 S
Cu29   N70     1.896   1_565 S
Cu29   N114    1.896   1_565 S
Cu30   N78     1.896   1_565 S
Cu30   N122    1.896   1_565 S
Cu35   N14     1.896   1_655 S
Cu35   N50     1.896   1_655 S
Cu36   N10     1.896   1_655 S
Cu36   N54     1.896   1_655 S
Cu39   N30     1.896   1_455 S
Cu39   N34     1.896   1_455 S
Cu40   N26     1.896   1_455 S
Cu40   N38     1.896   1_455 S
Cu41   N138    1.896   1_556 S
Cu41   N178    1.896   1_556 S
Cu44   N150    1.896   1_554 S
Cu44   N174    1.896   1_554 S
Cu45   N154    1.896   1_554 S
Cu45   N162    1.896   1_554 S
Cu48   N134    1.896   1_556 S
Cu48   N190    1.896   1_556 S
