data_1209
_audit_creation_date              2023-09-08
_audit_creation_method            'Materials Studio'
_symmetry_space_group_name_H-M    'P1'
_symmetry_Int_Tables_number       1
_symmetry_cell_setting            triclinic
loop_
_symmetry_equiv_pos_as_xyz
  x,y,z
_cell_length_a                    20.3239
_cell_length_b                    47.6649
_cell_length_c                    15.1319
_cell_angle_alpha                 90.0000
_cell_angle_beta                  90.0000
_cell_angle_gamma                 90.0000
loop_
_atom_site_label
_atom_site_type_symbol
_atom_site_fract_x
_atom_site_fract_y
_atom_site_fract_z
_atom_site_U_iso_or_equiv
_atom_site_adp_type
_atom_site_occupancy
C1     C     0.35620   0.39362   0.27996   0.00000  Uiso   1.00
C2     C     0.30273   0.38428   0.32116   0.00000  Uiso   1.00
C3     C     0.39778   0.37475   0.22730   0.00000  Uiso   1.00
C4     C     0.28383   0.35438   0.31780   0.00000  Uiso   1.00
H5     H     0.27439   0.39876   0.36134   0.00000  Uiso   1.00
C6     C     0.38436   0.34713   0.21668   0.00000  Uiso   1.00
H7     H     0.44041   0.38442   0.19795   0.00000  Uiso   1.00
C8     C     0.32436   0.33532   0.26215   0.00000  Uiso   1.00
C9     C     0.23274   0.34654   0.36756   0.00000  Uiso   1.00
C10    C     0.42989   0.32807   0.16050   0.00000  Uiso   1.00
O11    O     0.31091   0.31050   0.25186   0.00000  Uiso   1.00
N12    N     0.21129   0.31821   0.37738   0.00000  Uiso   1.00
H13    H     0.20669   0.36258   0.40415   0.00000  Uiso   1.00
C14    C     0.45832   0.30440   0.21865   0.00000  Uiso   1.00
C15    C     0.39069   0.31564   0.08234   0.00000  Uiso   1.00
C16    C     0.48987   0.34351   0.12036   0.00000  Uiso   1.00
Zn17   Zn    0.24244   0.28820   0.29947   0.00000  Uiso   1.00
C18    C     0.14905   0.31193   0.42249   0.00000  Uiso   1.00
O19    O     0.26866   0.25894   0.22264   0.00000  Uiso   1.00
N20    N     0.17286   0.26560   0.35273   0.00000  Uiso   1.00
C21    C     0.13435   0.27968   0.42126   0.00000  Uiso   1.00
H22    H     0.10882   0.32233   0.38461   0.00000  Uiso   1.00
C23    C     0.24967   0.23467   0.21562   0.00000  Uiso   1.00
C24    C     0.16435   0.23647   0.33521   0.00000  Uiso   1.00
H25    H     0.08123   0.27666   0.40552   0.00000  Uiso   1.00
C26    C     0.27844   0.21663   0.14348   0.00000  Uiso   1.00
C27    C     0.19851   0.22233   0.27444   0.00000  Uiso   1.00
H28    H     0.12672   0.22545   0.37214   0.00000  Uiso   1.00
C29    C     0.25796   0.18970   0.13753   0.00000  Uiso   1.00
C30    C     0.32717   0.22902   0.07484   0.00000  Uiso   1.00
C31    C     0.18048   0.19263   0.26053   0.00000  Uiso   1.00
C32    C     0.20755   0.17767   0.19590   0.00000  Uiso   1.00
H33    H     0.27593   0.17578   0.08686   0.00000  Uiso   1.00
C34    C     0.29251   0.25259   0.02216   0.00000  Uiso   1.00
C35    C     0.38881   0.24044   0.12253   0.00000  Uiso   1.00
C36    C     0.35230   0.20740   0.00606   0.00000  Uiso   1.00
H37    H     0.14162   0.18327   0.29982   0.00000  Uiso   1.00
H38    H     0.42012   0.29220   0.25335   0.00000  Uiso   1.00
H39    H     0.49155   0.31324   0.27010   0.00000  Uiso   1.00
H40    H     0.48691   0.28959   0.17710   0.00000  Uiso   1.00
H41    H     0.34912   0.30266   0.10479   0.00000  Uiso   1.00
H42    H     0.42250   0.30212   0.04058   0.00000  Uiso   1.00
H43    H     0.37055   0.33268   0.04035   0.00000  Uiso   1.00
H44    H     0.52086   0.32885   0.08144   0.00000  Uiso   1.00
H45    H     0.52157   0.35218   0.17360   0.00000  Uiso   1.00
H46    H     0.47413   0.36067   0.07538   0.00000  Uiso   1.00
H47    H     0.25002   0.24393   0.98460   0.00000  Uiso   1.00
H48    H     0.32689   0.26242   0.97425   0.00000  Uiso   1.00
H49    H     0.27322   0.26938   0.06539   0.00000  Uiso   1.00
H50    H     0.42513   0.24873   0.07436   0.00000  Uiso   1.00
H51    H     0.41286   0.22354   0.16156   0.00000  Uiso   1.00
H52    H     0.37684   0.25772   0.16791   0.00000  Uiso   1.00
H53    H     0.37786   0.18963   0.03913   0.00000  Uiso   1.00
H54    H     0.38831   0.21728   0.96060   0.00000  Uiso   1.00
H55    H     0.31127   0.19921   0.96468   0.00000  Uiso   1.00
C56    C     0.37740   0.42202   0.29460   0.00000  Uiso   1.00
C57    C     0.18079   0.15069   0.17364   0.00000  Uiso   1.00
C58    C     0.15644   0.12896   0.14983   0.00000  Uiso   1.00
C59    C     0.39586   0.44531   0.31267   0.00000  Uiso   1.00
C60    C     0.41870   0.47223   0.34219   0.00000  Uiso   1.00
C61    C     0.37595   0.48999   0.38770   0.00000  Uiso   1.00
C62    C     0.48559   0.47864   0.33806   0.00000  Uiso   1.00
C63    C     0.40041   0.51328   0.43312   0.00000  Uiso   1.00
H64    H     0.32425   0.48476   0.39324   0.00000  Uiso   1.00
C65    C     0.51009   0.50219   0.38178   0.00000  Uiso   1.00
H66    H     0.51946   0.46469   0.30477   0.00000  Uiso   1.00
C67    C     0.46839   0.51963   0.43235   0.00000  Uiso   1.00
H68    H     0.36633   0.52480   0.47400   0.00000  Uiso   1.00
H69    H     0.56270   0.50575   0.38127   0.00000  Uiso   1.00
C70    C     0.12498   0.10421   0.11615   0.00000  Uiso   1.00
C71    C     0.08578   0.08774   0.17117   0.00000  Uiso   1.00
C72    C     0.12784   0.09846   0.02576   0.00000  Uiso   1.00
C73    C     0.04789   0.06606   0.13550   0.00000  Uiso   1.00
H74    H     0.08211   0.09247   0.24101   0.00000  Uiso   1.00
C75    C     0.09039   0.07673   0.98998   0.00000  Uiso   1.00
H76    H     0.15702   0.11150   0.98224   0.00000  Uiso   1.00
C77    C     0.04974   0.05996   0.04407   0.00000  Uiso   1.00
H78    H     0.01458   0.05524   0.17922   0.00000  Uiso   1.00
H79    H     0.09118   0.07360   0.91910   0.00000  Uiso   1.00
C80    C     0.70920   0.67765   0.30842   0.00000  Uiso   1.00
C81    C     0.68213   0.69233   0.24294   0.00000  Uiso   1.00
C82    C     0.75966   0.68991   0.36667   0.00000  Uiso   1.00
C83    C     0.69989   0.72200   0.22827   0.00000  Uiso   1.00
H84    H     0.64340   0.68277   0.20350   0.00000  Uiso   1.00
C85    C     0.78037   0.71678   0.35954   0.00000  Uiso   1.00
H86    H     0.77767   0.67619   0.41801   0.00000  Uiso   1.00
C87    C     0.75105   0.73462   0.28699   0.00000  Uiso   1.00
C88    C     0.66547   0.73587   0.16688   0.00000  Uiso   1.00
C89    C     0.82995   0.72932   0.42726   0.00000  Uiso   1.00
O90    O     0.76964   0.75893   0.27947   0.00000  Uiso   1.00
N91    N     0.67346   0.76498   0.14872   0.00000  Uiso   1.00
H92    H     0.62800   0.72465   0.12992   0.00000  Uiso   1.00
C93    C     0.79571   0.75282   0.48042   0.00000  Uiso   1.00
C94    C     0.89077   0.74091   0.37858   0.00000  Uiso   1.00
C95    C     0.85648   0.70777   0.49551   0.00000  Uiso   1.00
Zn96   Zn    0.74293   0.78788   0.20144   0.00000  Uiso   1.00
C97    C     0.63522   0.77865   0.07881   0.00000  Uiso   1.00
O98    O     0.81126   0.81047   0.24852   0.00000  Uiso   1.00
N99    N     0.71133   0.81754   0.12219   0.00000  Uiso   1.00
C100   C     0.64895   0.81095   0.07728   0.00000  Uiso   1.00
H101   H     0.58201   0.77534   0.09301   0.00000  Uiso   1.00
C102   C     0.82435   0.83528   0.23754   0.00000  Uiso   1.00
C103   C     0.73247   0.84595   0.13113   0.00000  Uiso   1.00
H104   H     0.60869   0.82117   0.11524   0.00000  Uiso   1.00
C105   C     0.88429   0.84734   0.28297   0.00000  Uiso   1.00
C106   C     0.78347   0.85408   0.18109   0.00000  Uiso   1.00
H107   H     0.70622   0.86180   0.09373   0.00000  Uiso   1.00
C108   C     0.89728   0.87496   0.27182   0.00000  Uiso   1.00
C109   C     0.93025   0.82850   0.33968   0.00000  Uiso   1.00
C110   C     0.80192   0.88402   0.17711   0.00000  Uiso   1.00
C111   C     0.85529   0.89359   0.21851   0.00000  Uiso   1.00
H112   H     0.93985   0.88480   0.30114   0.00000  Uiso   1.00
C113   C     0.95880   0.80478   0.28211   0.00000  Uiso   1.00
C114   C     0.89149   0.81614   0.41799   0.00000  Uiso   1.00
C115   C     0.99016   0.84416   0.37962   0.00000  Uiso   1.00
H116   H     0.77334   0.89832   0.13637   0.00000  Uiso   1.00
H117   H     0.77545   0.76949   0.43736   0.00000  Uiso   1.00
H118   H     0.75395   0.74405   0.51883   0.00000  Uiso   1.00
H119   H     0.83066   0.76278   0.52760   0.00000  Uiso   1.00
H120   H     0.87800   0.75827   0.33385   0.00000  Uiso   1.00
H121   H     0.92777   0.74917   0.42618   0.00000  Uiso   1.00
H122   H     0.91437   0.72411   0.33878   0.00000  Uiso   1.00
H123   H     0.89369   0.71767   0.53944   0.00000  Uiso   1.00
H124   H     0.81640   0.69969   0.53839   0.00000  Uiso   1.00
H125   H     0.88110   0.68990   0.46188   0.00000  Uiso   1.00
H126   H     0.99168   0.81359   0.23053   0.00000  Uiso   1.00
H127   H     0.98782   0.79018   0.32409   0.00000  Uiso   1.00
H128   H     0.92067   0.79238   0.24762   0.00000  Uiso   1.00
H129   H     0.92352   0.80265   0.45982   0.00000  Uiso   1.00
H130   H     0.87166   0.83322   0.45989   0.00000  Uiso   1.00
H131   H     0.84971   0.80318   0.39580   0.00000  Uiso   1.00
H132   H     0.97438   0.86139   0.42418   0.00000  Uiso   1.00
H133   H     0.02148   0.82966   0.41891   0.00000  Uiso   1.00
H134   H     0.02153   0.85277   0.32623   0.00000  Uiso   1.00
C135   C     0.68259   0.65071   0.33111   0.00000  Uiso   1.00
C136   C     0.87606   0.92201   0.20348   0.00000  Uiso   1.00
C137   C     0.89440   0.94530   0.18530   0.00000  Uiso   1.00
C138   C     0.65815   0.62900   0.35469   0.00000  Uiso   1.00
C139   C     0.62632   0.60427   0.38752   0.00000  Uiso   1.00
C140   C     0.58780   0.58777   0.33135   0.00000  Uiso   1.00
C141   C     0.62803   0.59857   0.47801   0.00000  Uiso   1.00
C142   C     0.54947   0.56609   0.36588   0.00000  Uiso   1.00
H143   H     0.58499   0.59247   0.26139   0.00000  Uiso   1.00
C144   C     0.59015   0.57685   0.51267   0.00000  Uiso   1.00
H145   H     0.65665   0.61164   0.52237   0.00000  Uiso   1.00
C146   C     0.55020   0.56004   0.45738   0.00000  Uiso   1.00
H147   H     0.51674   0.55525   0.32116   0.00000  Uiso   1.00
H148   H     0.59008   0.57375   0.58357   0.00000  Uiso   1.00
C149   C     0.91740   0.97218   0.15594   0.00000  Uiso   1.00
C150   C     0.87501   0.98989   0.10923   0.00000  Uiso   1.00
C151   C     0.98423   0.97860   0.16166   0.00000  Uiso   1.00
C152   C     0.89983   0.01317   0.06430   0.00000  Uiso   1.00
H153   H     0.82337   0.98464   0.10246   0.00000  Uiso   1.00
C154   C     0.00907   0.00214   0.11846   0.00000  Uiso   1.00
H155   H     0.01785   0.96467   0.19582   0.00000  Uiso   1.00
C156   C     0.96778   0.01955   0.06680   0.00000  Uiso   1.00
H157   H     0.86612   0.02466   0.02250   0.00000  Uiso   1.00
H158   H     0.06166   0.00571   0.12029   0.00000  Uiso   1.00
C159   C     0.28674   0.31276   0.82359   0.00000  Uiso   1.00
C160   C     0.22495   0.30622   0.84443   0.00000  Uiso   1.00
C161   C     0.32803   0.29342   0.77160   0.00000  Uiso   1.00
C162   C     0.19462   0.27964   0.81448   0.00000  Uiso   1.00
H163   H     0.19623   0.32096   0.88311   0.00000  Uiso   1.00
C164   C     0.30614   0.26828   0.74164   0.00000  Uiso   1.00
H165   H     0.37758   0.30053   0.75933   0.00000  Uiso   1.00
C166   C     0.23639   0.25991   0.76276   0.00000  Uiso   1.00
C167   C     0.13083   0.27582   0.83290   0.00000  Uiso   1.00
C168   C     0.35171   0.24823   0.68856   0.00000  Uiso   1.00
O169   O     0.21635   0.23722   0.73615   0.00000  Uiso   1.00
N170   N     0.09379   0.25175   0.80598   0.00000  Uiso   1.00
H171   H     0.10542   0.29231   0.86821   0.00000  Uiso   1.00
C172   C     0.36313   0.22119   0.74272   0.00000  Uiso   1.00
C173   C     0.32072   0.24123   0.59770   0.00000  Uiso   1.00
C174   C     0.42060   0.26060   0.66870   0.00000  Uiso   1.00
Zn175  Zn    0.13331   0.21962   0.74628   0.00000  Uiso   1.00
C176   C     0.02187   0.25211   0.79437   0.00000  Uiso   1.00
O177   O     0.16778   0.18846   0.68433   0.00000  Uiso   1.00
N178   N     0.04641   0.20231   0.75784   0.00000  Uiso   1.00
C179   C     0.99464   0.22138   0.78920   0.00000  Uiso   1.00
H180   H     0.01128   0.26211   0.72951   0.00000  Uiso   1.00
C181   C     0.14576   0.16469   0.67641   0.00000  Uiso   1.00
C182   C     0.03774   0.17263   0.75159   0.00000  Uiso   1.00
H183   H     0.95376   0.22082   0.74064   0.00000  Uiso   1.00
C184   C     0.18213   0.14394   0.61980   0.00000  Uiso   1.00
C185   C     0.08412   0.15534   0.72046   0.00000  Uiso   1.00
H186   H     0.99172   0.16362   0.77356   0.00000  Uiso   1.00
C187   C     0.16521   0.11656   0.62658   0.00000  Uiso   1.00
C188   C     0.23631   0.15379   0.55454   0.00000  Uiso   1.00
C189   C     0.07128   0.12481   0.72408   0.00000  Uiso   1.00
C190   C     0.11003   0.10670   0.68163   0.00000  Uiso   1.00
H191   H     0.19064   0.10048   0.58992   0.00000  Uiso   1.00
C192   C     0.20965   0.17782   0.49569   0.00000  Uiso   1.00
C193   C     0.29667   0.16400   0.60707   0.00000  Uiso   1.00
C194   C     0.26031   0.13042   0.49090   0.00000  Uiso   1.00
H195   H     0.02928   0.11701   0.76062   0.00000  Uiso   1.00
H196   H     0.31662   0.21079   0.76171   0.00000  Uiso   1.00
H197   H     0.38999   0.22619   0.80476   0.00000  Uiso   1.00
H198   H     0.39308   0.20588   0.70476   0.00000  Uiso   1.00
H199   H     0.27320   0.23017   0.60297   0.00000  Uiso   1.00
H200   H     0.35364   0.22737   0.55866   0.00000  Uiso   1.00
H201   H     0.31289   0.26081   0.55922   0.00000  Uiso   1.00
H202   H     0.45039   0.24577   0.62859   0.00000  Uiso   1.00
H203   H     0.44818   0.26417   0.73084   0.00000  Uiso   1.00
H204   H     0.41677   0.28055   0.63097   0.00000  Uiso   1.00
H205   H     0.16385   0.17108   0.46145   0.00000  Uiso   1.00
H206   H     0.24629   0.18391   0.44479   0.00000  Uiso   1.00
H207   H     0.19866   0.19705   0.53382   0.00000  Uiso   1.00
H208   H     0.33633   0.17112   0.56190   0.00000  Uiso   1.00
H209   H     0.31640   0.14686   0.64933   0.00000  Uiso   1.00
H210   H     0.28381   0.18177   0.65027   0.00000  Uiso   1.00
H211   H     0.28571   0.11332   0.52748   0.00000  Uiso   1.00
H212   H     0.29639   0.13887   0.44264   0.00000  Uiso   1.00
H213   H     0.21841   0.12154   0.45265   0.00000  Uiso   1.00
C214   C     0.31408   0.33923   0.85201   0.00000  Uiso   1.00
C215   C     0.09396   0.07724   0.67967   0.00000  Uiso   1.00
C216   C     0.08092   0.05270   0.67113   0.00000  Uiso   1.00
C217   C     0.33815   0.36117   0.87550   0.00000  Uiso   1.00
C218   C     0.36979   0.38676   0.90357   0.00000  Uiso   1.00
C219   C     0.36824   0.39482   0.99236   0.00000  Uiso   1.00
C220   C     0.40799   0.40200   0.84377   0.00000  Uiso   1.00
C221   C     0.40682   0.41724   0.02186   0.00000  Uiso   1.00
H222   H     0.33937   0.38306   0.03963   0.00000  Uiso   1.00
C223   C     0.44701   0.42429   0.87316   0.00000  Uiso   1.00
H224   H     0.41054   0.39567   0.77510   0.00000  Uiso   1.00
C225   C     0.44719   0.43243   0.96298   0.00000  Uiso   1.00
H226   H     0.40727   0.42207   0.09172   0.00000  Uiso   1.00
H227   H     0.47974   0.43399   0.82606   0.00000  Uiso   1.00
C228   C     0.06498   0.02393   0.65160   0.00000  Uiso   1.00
C229   C     0.99987   0.01480   0.65723   0.00000  Uiso   1.00
C230   C     0.11207   0.00673   0.61186   0.00000  Uiso   1.00
C231   C     0.98108   0.98942   0.61859   0.00000  Uiso   1.00
H232   H     0.96261   0.02809   0.68645   0.00000  Uiso   1.00
C233   C     0.09324   0.98162   0.57127   0.00000  Uiso   1.00
H234   H     0.16249   0.01384   0.60564   0.00000  Uiso   1.00
C235   C     0.02668   0.97293   0.57091   0.00000  Uiso   1.00
H236   H     0.92934   0.98404   0.61856   0.00000  Uiso   1.00
H237   H     0.13002   0.97067   0.53312   0.00000  Uiso   1.00
C238   C     0.60867   0.60703   0.81891   0.00000  Uiso   1.00
C239   C     0.56940   0.62522   0.77729   0.00000  Uiso   1.00
C240   C     0.66462   0.61678   0.87322   0.00000  Uiso   1.00
C241   C     0.58274   0.65573   0.78056   0.00000  Uiso   1.00
H242   H     0.52672   0.61752   0.74157   0.00000  Uiso   1.00
C243   C     0.68166   0.64414   0.88019   0.00000  Uiso   1.00
H244   H     0.69041   0.60065   0.90945   0.00000  Uiso   1.00
C245   C     0.64508   0.66493   0.82367   0.00000  Uiso   1.00
C246   C     0.53627   0.67312   0.74988   0.00000  Uiso   1.00
C247   C     0.73608   0.65391   0.94569   0.00000  Uiso   1.00
O248   O     0.66752   0.68860   0.81505   0.00000  Uiso   1.00
N249   N     0.54549   0.70274   0.74288   0.00000  Uiso   1.00
H250   H     0.48978   0.66425   0.72865   0.00000  Uiso   1.00
C251   C     0.71003   0.67821   0.00371   0.00000  Uiso   1.00
C252   C     0.79662   0.66375   0.89341   0.00000  Uiso   1.00
C253   C     0.75944   0.63059   0.01013   0.00000  Uiso   1.00
Zn254  Zn    0.63286   0.71979   0.75312   0.00000  Uiso   1.00
C255   C     0.49389   0.72183   0.71071   0.00000  Uiso   1.00
O256   O     0.71641   0.73710   0.76184   0.00000  Uiso   1.00
N257   N     0.59319   0.75201   0.69358   0.00000  Uiso   1.00
C258   C     0.52134   0.75251   0.70546   0.00000  Uiso   1.00
H259   H     0.45292   0.72137   0.75878   0.00000  Uiso   1.00
C260   C     0.73651   0.75974   0.73497   0.00000  Uiso   1.00
C261   C     0.63022   0.77606   0.66678   0.00000  Uiso   1.00
H262   H     0.51129   0.76251   0.77036   0.00000  Uiso   1.00
C263   C     0.80672   0.76785   0.75495   0.00000  Uiso   1.00
C264   C     0.69433   0.77967   0.68423   0.00000  Uiso   1.00
H265   H     0.60457   0.79270   0.63226   0.00000  Uiso   1.00
C266   C     0.82861   0.79296   0.72492   0.00000  Uiso   1.00
C267   C     0.85246   0.74773   0.80794   0.00000  Uiso   1.00
C268   C     0.72462   0.80623   0.65433   0.00000  Uiso   1.00
C269   C     0.78681   0.81256   0.67420   0.00000  Uiso   1.00
H270   H     0.87843   0.79991   0.73654   0.00000  Uiso   1.00
C271   C     0.86225   0.72036   0.75499   0.00000  Uiso   1.00
C272   C     0.82250   0.74133   0.89954   0.00000  Uiso   1.00
C273   C     0.92206   0.75974   0.82599   0.00000  Uiso   1.00
H274   H     0.69551   0.82115   0.61660   0.00000  Uiso   1.00
H275   H     0.70026   0.69744   0.96498   0.00000  Uiso   1.00
H276   H     0.66368   0.67189   0.03700   0.00000  Uiso   1.00
H277   H     0.74654   0.68409   0.05536   0.00000  Uiso   1.00
H278   H     0.78406   0.68150   0.84981   0.00000  Uiso   1.00
H279   H     0.83652   0.67077   0.93873   0.00000  Uiso   1.00
H280   H     0.81585   0.64644   0.85162   0.00000  Uiso   1.00
H281   H     0.79543   0.63900   0.05892   0.00000  Uiso   1.00
H282   H     0.71721   0.62187   0.04771   0.00000  Uiso   1.00
H283   H     0.78479   0.61337   0.97430   0.00000  Uiso   1.00
H284   H     0.88884   0.72487   0.69268   0.00000  Uiso   1.00
H285   H     0.89192   0.70501   0.79348   0.00000  Uiso   1.00
H286   H     0.81524   0.71018   0.73671   0.00000  Uiso   1.00
H287   H     0.85560   0.72754   0.93886   0.00000  Uiso   1.00
H288   H     0.81554   0.76114   0.93707   0.00000  Uiso   1.00
H289   H     0.77467   0.73043   0.89529   0.00000  Uiso   1.00
H290   H     0.91957   0.77979   0.86339   0.00000  Uiso   1.00
H291   H     0.95206   0.74483   0.86574   0.00000  Uiso   1.00
H292   H     0.94863   0.76303   0.76313   0.00000  Uiso   1.00
C293   C     0.59249   0.57760   0.82097   0.00000  Uiso   1.00
C294   C     0.81397   0.83911   0.64637   0.00000  Uiso   1.00
C295   C     0.83787   0.86111   0.62333   0.00000  Uiso   1.00
C296   C     0.57958   0.55306   0.82964   0.00000  Uiso   1.00
C297   C     0.56402   0.52427   0.84926   0.00000  Uiso   1.00
C298   C     0.49908   0.51494   0.84275   0.00000  Uiso   1.00
C299   C     0.61133   0.50722   0.88964   0.00000  Uiso   1.00
C300   C     0.48068   0.48950   0.88104   0.00000  Uiso   1.00
H301   H     0.46165   0.52813   0.81311   0.00000  Uiso   1.00
C302   C     0.59287   0.48202   0.92979   0.00000  Uiso   1.00
H303   H     0.66158   0.51451   0.89663   0.00000  Uiso   1.00
C304   C     0.52647   0.47312   0.92925   0.00000  Uiso   1.00
H305   H     0.42902   0.48397   0.88046   0.00000  Uiso   1.00
H306   H     0.62972   0.47116   0.96843   0.00000  Uiso   1.00
C307   C     0.86938   0.88674   0.59560   0.00000  Uiso   1.00
C308   C     0.86796   0.89473   0.50674   0.00000  Uiso   1.00
C309   C     0.90756   0.90201   0.65572   0.00000  Uiso   1.00
C310   C     0.90681   0.91705   0.47747   0.00000  Uiso   1.00
H311   H     0.83902   0.88299   0.45924   0.00000  Uiso   1.00
C312   C     0.94680   0.92421   0.62657   0.00000  Uiso   1.00
H313   H     0.90998   0.89573   0.72447   0.00000  Uiso   1.00
C314   C     0.94720   0.93225   0.53667   0.00000  Uiso   1.00
H315   H     0.90739   0.92181   0.40758   0.00000  Uiso   1.00
H316   H     0.97952   0.93393   0.67395   0.00000  Uiso   1.00
C317   C     0.01211   0.27011   0.13388   0.00000  Uiso   1.00
C318   C     0.08350   0.26141   0.11980   0.00000  Uiso   1.00
C319   C     0.08784   0.23117   0.08560   0.00000  Uiso   1.00
C320   C     0.03298   0.21176   0.12081   0.00000  Uiso   1.00
H321   H     0.98516   0.26792   0.07051   0.00000  Uiso   1.00
H322   H     0.01080   0.29258   0.15343   0.00000  Uiso   1.00
H323   H     0.05368   0.19028   0.12502   0.00000  Uiso   1.00
H324   H     0.99162   0.21094   0.07334   0.00000  Uiso   1.00
H325   H     0.13658   0.22251   0.10383   0.00000  Uiso   1.00
H326   H     0.08617   0.23142   0.01232   0.00000  Uiso   1.00
H327   H     0.11073   0.26342   0.18319   0.00000  Uiso   1.00
H328   H     0.10704   0.27579   0.07148   0.00000  Uiso   1.00
C329   C     0.85089   0.32438   0.48267   0.00000  Uiso   1.00
C330   C     0.90444   0.31114   0.42524   0.00000  Uiso   1.00
C331   C     0.89643   0.27914   0.41664   0.00000  Uiso   1.00
C332   C     0.85231   0.26623   0.48787   0.00000  Uiso   1.00
H333   H     0.80215   0.32099   0.45067   0.00000  Uiso   1.00
H334   H     0.85985   0.34735   0.48544   0.00000  Uiso   1.00
H335   H     0.95322   0.31595   0.45480   0.00000  Uiso   1.00
H336   H     0.90332   0.32084   0.35843   0.00000  Uiso   1.00
H337   H     0.94583   0.26916   0.41988   0.00000  Uiso   1.00
H338   H     0.87482   0.27410   0.35140   0.00000  Uiso   1.00
H339   H     0.86147   0.24328   0.48919   0.00000  Uiso   1.00
H340   H     0.79990   0.26941   0.46978   0.00000  Uiso   1.00
C341   C     0.53358   0.71213   0.37955   0.00000  Uiso   1.00
C342   C     0.58834   0.73152   0.41563   0.00000  Uiso   1.00
C343   C     0.58433   0.76171   0.38096   0.00000  Uiso   1.00
C344   C     0.51301   0.77054   0.36620   0.00000  Uiso   1.00
H345   H     0.49214   0.71126   0.42651   0.00000  Uiso   1.00
H346   H     0.55426   0.69066   0.37544   0.00000  Uiso   1.00
H347   H     0.63717   0.72280   0.39847   0.00000  Uiso   1.00
H348   H     0.58616   0.73186   0.48888   0.00000  Uiso   1.00
H349   H     0.51193   0.79300   0.34628   0.00000  Uiso   1.00
H350   H     0.48613   0.76850   0.42941   0.00000  Uiso   1.00
H351   H     0.61155   0.76355   0.31776   0.00000  Uiso   1.00
H352   H     0.60809   0.77610   0.42927   0.00000  Uiso   1.00
C353   C     0.34976   0.76513   0.01131   0.00000  Uiso   1.00
C354   C     0.39374   0.77746   0.08410   0.00000  Uiso   1.00
C355   C     0.40455   0.80930   0.07548   0.00000  Uiso   1.00
C356   C     0.35198   0.82331   0.01771   0.00000  Uiso   1.00
H357   H     0.29729   0.76873   0.02787   0.00000  Uiso   1.00
H358   H     0.35784   0.74212   0.00967   0.00000  Uiso   1.00
H359   H     0.44234   0.76675   0.08280   0.00000  Uiso   1.00
H360   H     0.37066   0.77283   0.14850   0.00000  Uiso   1.00
H361   H     0.45364   0.81330   0.04609   0.00000  Uiso   1.00
H362   H     0.40442   0.81903   0.14226   0.00000  Uiso   1.00
H363   H     0.36259   0.84616   0.01521   0.00000  Uiso   1.00
H364   H     0.30304   0.82053   0.04933   0.00000  Uiso   1.00
C365   C     0.64380   0.39362   0.72004   0.00000  Uiso   1.00
C366   C     0.69727   0.38428   0.67884   0.00000  Uiso   1.00
C367   C     0.60222   0.37475   0.77270   0.00000  Uiso   1.00
C368   C     0.71617   0.35438   0.68220   0.00000  Uiso   1.00
H369   H     0.72561   0.39876   0.63866   0.00000  Uiso   1.00
C370   C     0.61564   0.34713   0.78332   0.00000  Uiso   1.00
H371   H     0.55959   0.38442   0.80205   0.00000  Uiso   1.00
C372   C     0.67564   0.33532   0.73785   0.00000  Uiso   1.00
C373   C     0.76726   0.34654   0.63244   0.00000  Uiso   1.00
C374   C     0.57011   0.32807   0.83950   0.00000  Uiso   1.00
O375   O     0.68909   0.31050   0.74814   0.00000  Uiso   1.00
N376   N     0.78871   0.31821   0.62262   0.00000  Uiso   1.00
H377   H     0.79331   0.36258   0.59585   0.00000  Uiso   1.00
C378   C     0.54168   0.30440   0.78135   0.00000  Uiso   1.00
C379   C     0.60931   0.31564   0.91766   0.00000  Uiso   1.00
C380   C     0.51013   0.34351   0.87964   0.00000  Uiso   1.00
Zn381  Zn    0.75756   0.28820   0.70053   0.00000  Uiso   1.00
C382   C     0.85095   0.31193   0.57751   0.00000  Uiso   1.00
O383   O     0.73134   0.25894   0.77736   0.00000  Uiso   1.00
N384   N     0.82714   0.26560   0.64727   0.00000  Uiso   1.00
C385   C     0.86565   0.27968   0.57874   0.00000  Uiso   1.00
H386   H     0.89118   0.32233   0.61539   0.00000  Uiso   1.00
C387   C     0.75033   0.23467   0.78438   0.00000  Uiso   1.00
C388   C     0.83565   0.23647   0.66479   0.00000  Uiso   1.00
H389   H     0.91877   0.27666   0.59448   0.00000  Uiso   1.00
C390   C     0.72156   0.21663   0.85652   0.00000  Uiso   1.00
C391   C     0.80149   0.22233   0.72556   0.00000  Uiso   1.00
H392   H     0.87328   0.22545   0.62786   0.00000  Uiso   1.00
C393   C     0.74204   0.18970   0.86247   0.00000  Uiso   1.00
C394   C     0.67283   0.22902   0.92516   0.00000  Uiso   1.00
C395   C     0.81952   0.19263   0.73947   0.00000  Uiso   1.00
C396   C     0.79245   0.17767   0.80410   0.00000  Uiso   1.00
H397   H     0.72407   0.17578   0.91314   0.00000  Uiso   1.00
C398   C     0.70749   0.25259   0.97784   0.00000  Uiso   1.00
C399   C     0.61119   0.24044   0.87747   0.00000  Uiso   1.00
C400   C     0.64770   0.20740   0.99394   0.00000  Uiso   1.00
H401   H     0.85838   0.18327   0.70018   0.00000  Uiso   1.00
H402   H     0.57988   0.29220   0.74665   0.00000  Uiso   1.00
H403   H     0.50845   0.31324   0.72990   0.00000  Uiso   1.00
H404   H     0.51309   0.28959   0.82290   0.00000  Uiso   1.00
H405   H     0.65088   0.30266   0.89521   0.00000  Uiso   1.00
H406   H     0.57750   0.30212   0.95942   0.00000  Uiso   1.00
H407   H     0.62945   0.33268   0.95965   0.00000  Uiso   1.00
H408   H     0.47914   0.32885   0.91856   0.00000  Uiso   1.00
H409   H     0.47843   0.35218   0.82640   0.00000  Uiso   1.00
H410   H     0.52587   0.36067   0.92462   0.00000  Uiso   1.00
H411   H     0.74998   0.24393   0.01540   0.00000  Uiso   1.00
H412   H     0.67311   0.26242   0.02575   0.00000  Uiso   1.00
H413   H     0.72678   0.26938   0.93461   0.00000  Uiso   1.00
H414   H     0.57487   0.24873   0.92564   0.00000  Uiso   1.00
H415   H     0.58714   0.22354   0.83844   0.00000  Uiso   1.00
H416   H     0.62316   0.25772   0.83209   0.00000  Uiso   1.00
H417   H     0.62214   0.18963   0.96087   0.00000  Uiso   1.00
H418   H     0.61169   0.21728   0.03940   0.00000  Uiso   1.00
H419   H     0.68873   0.19921   0.03532   0.00000  Uiso   1.00
C420   C     0.62260   0.42202   0.70540   0.00000  Uiso   1.00
C421   C     0.81921   0.15069   0.82636   0.00000  Uiso   1.00
C422   C     0.84356   0.12896   0.85017   0.00000  Uiso   1.00
C423   C     0.60414   0.44531   0.68733   0.00000  Uiso   1.00
C424   C     0.58130   0.47223   0.65781   0.00000  Uiso   1.00
C425   C     0.62405   0.48999   0.61230   0.00000  Uiso   1.00
C426   C     0.51441   0.47864   0.66194   0.00000  Uiso   1.00
C427   C     0.59959   0.51328   0.56688   0.00000  Uiso   1.00
H428   H     0.67575   0.48476   0.60676   0.00000  Uiso   1.00
C429   C     0.48991   0.50219   0.61822   0.00000  Uiso   1.00
H430   H     0.48054   0.46469   0.69523   0.00000  Uiso   1.00
C431   C     0.53161   0.51963   0.56765   0.00000  Uiso   1.00
H432   H     0.63367   0.52480   0.52600   0.00000  Uiso   1.00
H433   H     0.43730   0.50575   0.61873   0.00000  Uiso   1.00
C434   C     0.87502   0.10421   0.88385   0.00000  Uiso   1.00
C435   C     0.91422   0.08774   0.82883   0.00000  Uiso   1.00
C436   C     0.87216   0.09846   0.97424   0.00000  Uiso   1.00
C437   C     0.95211   0.06606   0.86450   0.00000  Uiso   1.00
H438   H     0.91789   0.09247   0.75899   0.00000  Uiso   1.00
C439   C     0.90961   0.07673   0.01002   0.00000  Uiso   1.00
H440   H     0.84298   0.11150   0.01776   0.00000  Uiso   1.00
C441   C     0.95026   0.05996   0.95593   0.00000  Uiso   1.00
H442   H     0.98542   0.05524   0.82078   0.00000  Uiso   1.00
H443   H     0.90882   0.07360   0.08090   0.00000  Uiso   1.00
C444   C     0.29080   0.67765   0.69158   0.00000  Uiso   1.00
C445   C     0.31787   0.69233   0.75706   0.00000  Uiso   1.00
C446   C     0.24034   0.68991   0.63333   0.00000  Uiso   1.00
C447   C     0.30011   0.72200   0.77173   0.00000  Uiso   1.00
H448   H     0.35660   0.68277   0.79650   0.00000  Uiso   1.00
C449   C     0.21963   0.71678   0.64046   0.00000  Uiso   1.00
H450   H     0.22233   0.67619   0.58199   0.00000  Uiso   1.00
C451   C     0.24895   0.73462   0.71301   0.00000  Uiso   1.00
C452   C     0.33453   0.73587   0.83312   0.00000  Uiso   1.00
C453   C     0.17005   0.72932   0.57274   0.00000  Uiso   1.00
O454   O     0.23036   0.75893   0.72053   0.00000  Uiso   1.00
N455   N     0.32654   0.76498   0.85128   0.00000  Uiso   1.00
H456   H     0.37200   0.72465   0.87008   0.00000  Uiso   1.00
C457   C     0.20429   0.75282   0.51958   0.00000  Uiso   1.00
C458   C     0.10923   0.74091   0.62142   0.00000  Uiso   1.00
C459   C     0.14352   0.70777   0.50449   0.00000  Uiso   1.00
Zn460  Zn    0.25707   0.78788   0.79856   0.00000  Uiso   1.00
C461   C     0.36478   0.77865   0.92119   0.00000  Uiso   1.00
O462   O     0.18874   0.81047   0.75148   0.00000  Uiso   1.00
N463   N     0.28867   0.81754   0.87781   0.00000  Uiso   1.00
C464   C     0.35105   0.81095   0.92272   0.00000  Uiso   1.00
H465   H     0.41799   0.77534   0.90699   0.00000  Uiso   1.00
C466   C     0.17565   0.83528   0.76246   0.00000  Uiso   1.00
C467   C     0.26753   0.84595   0.86887   0.00000  Uiso   1.00
H468   H     0.39131   0.82117   0.88476   0.00000  Uiso   1.00
C469   C     0.11571   0.84734   0.71703   0.00000  Uiso   1.00
C470   C     0.21653   0.85408   0.81891   0.00000  Uiso   1.00
H471   H     0.29378   0.86180   0.90627   0.00000  Uiso   1.00
C472   C     0.10272   0.87496   0.72818   0.00000  Uiso   1.00
C473   C     0.06975   0.82850   0.66032   0.00000  Uiso   1.00
C474   C     0.19808   0.88402   0.82289   0.00000  Uiso   1.00
C475   C     0.14471   0.89359   0.78149   0.00000  Uiso   1.00
H476   H     0.06015   0.88480   0.69886   0.00000  Uiso   1.00
C477   C     0.04120   0.80478   0.71789   0.00000  Uiso   1.00
C478   C     0.10851   0.81614   0.58201   0.00000  Uiso   1.00
C479   C     0.00984   0.84416   0.62038   0.00000  Uiso   1.00
H480   H     0.22666   0.89832   0.86363   0.00000  Uiso   1.00
H481   H     0.22455   0.76949   0.56264   0.00000  Uiso   1.00
H482   H     0.24605   0.74405   0.48117   0.00000  Uiso   1.00
H483   H     0.16934   0.76278   0.47240   0.00000  Uiso   1.00
H484   H     0.12200   0.75827   0.66615   0.00000  Uiso   1.00
H485   H     0.07223   0.74917   0.57382   0.00000  Uiso   1.00
H486   H     0.08563   0.72411   0.66122   0.00000  Uiso   1.00
H487   H     0.10631   0.71767   0.46056   0.00000  Uiso   1.00
H488   H     0.18360   0.69969   0.46161   0.00000  Uiso   1.00
H489   H     0.11890   0.68990   0.53812   0.00000  Uiso   1.00
H490   H     0.00832   0.81359   0.76947   0.00000  Uiso   1.00
H491   H     0.01218   0.79018   0.67591   0.00000  Uiso   1.00
H492   H     0.07933   0.79238   0.75238   0.00000  Uiso   1.00
H493   H     0.07648   0.80265   0.54018   0.00000  Uiso   1.00
H494   H     0.12834   0.83322   0.54011   0.00000  Uiso   1.00
H495   H     0.15029   0.80318   0.60420   0.00000  Uiso   1.00
H496   H     0.02562   0.86139   0.57582   0.00000  Uiso   1.00
H497   H     0.97852   0.82966   0.58109   0.00000  Uiso   1.00
H498   H     0.97847   0.85277   0.67377   0.00000  Uiso   1.00
C499   C     0.31741   0.65071   0.66889   0.00000  Uiso   1.00
C500   C     0.12394   0.92201   0.79652   0.00000  Uiso   1.00
C501   C     0.10560   0.94530   0.81470   0.00000  Uiso   1.00
C502   C     0.34185   0.62900   0.64531   0.00000  Uiso   1.00
C503   C     0.37368   0.60427   0.61248   0.00000  Uiso   1.00
C504   C     0.41220   0.58777   0.66865   0.00000  Uiso   1.00
C505   C     0.37197   0.59857   0.52199   0.00000  Uiso   1.00
C506   C     0.45053   0.56609   0.63412   0.00000  Uiso   1.00
H507   H     0.41501   0.59247   0.73861   0.00000  Uiso   1.00
C508   C     0.40985   0.57685   0.48733   0.00000  Uiso   1.00
H509   H     0.34335   0.61164   0.47763   0.00000  Uiso   1.00
C510   C     0.44980   0.56004   0.54262   0.00000  Uiso   1.00
H511   H     0.48326   0.55525   0.67884   0.00000  Uiso   1.00
H512   H     0.40992   0.57375   0.41643   0.00000  Uiso   1.00
C513   C     0.08260   0.97218   0.84406   0.00000  Uiso   1.00
C514   C     0.12499   0.98989   0.89077   0.00000  Uiso   1.00
C515   C     0.01577   0.97860   0.83834   0.00000  Uiso   1.00
C516   C     0.10017   0.01317   0.93570   0.00000  Uiso   1.00
H517   H     0.17663   0.98464   0.89754   0.00000  Uiso   1.00
C518   C     0.99093   0.00214   0.88154   0.00000  Uiso   1.00
H519   H     0.98215   0.96467   0.80418   0.00000  Uiso   1.00
C520   C     0.03222   0.01955   0.93320   0.00000  Uiso   1.00
H521   H     0.13388   0.02466   0.97750   0.00000  Uiso   1.00
H522   H     0.93834   0.00571   0.87971   0.00000  Uiso   1.00
C523   C     0.71326   0.31276   0.17641   0.00000  Uiso   1.00
C524   C     0.77505   0.30622   0.15557   0.00000  Uiso   1.00
C525   C     0.67197   0.29342   0.22840   0.00000  Uiso   1.00
C526   C     0.80538   0.27964   0.18552   0.00000  Uiso   1.00
H527   H     0.80377   0.32096   0.11689   0.00000  Uiso   1.00
C528   C     0.69386   0.26828   0.25836   0.00000  Uiso   1.00
H529   H     0.62242   0.30053   0.24067   0.00000  Uiso   1.00
C530   C     0.76361   0.25991   0.23724   0.00000  Uiso   1.00
C531   C     0.86917   0.27582   0.16710   0.00000  Uiso   1.00
C532   C     0.64829   0.24823   0.31144   0.00000  Uiso   1.00
O533   O     0.78365   0.23722   0.26385   0.00000  Uiso   1.00
N534   N     0.90621   0.25175   0.19402   0.00000  Uiso   1.00
H535   H     0.89458   0.29231   0.13179   0.00000  Uiso   1.00
C536   C     0.63687   0.22119   0.25728   0.00000  Uiso   1.00
C537   C     0.67928   0.24123   0.40230   0.00000  Uiso   1.00
C538   C     0.57940   0.26060   0.33130   0.00000  Uiso   1.00
Zn539  Zn    0.86669   0.21962   0.25372   0.00000  Uiso   1.00
C540   C     0.97813   0.25211   0.20563   0.00000  Uiso   1.00
O541   O     0.83222   0.18846   0.31567   0.00000  Uiso   1.00
N542   N     0.95359   0.20231   0.24216   0.00000  Uiso   1.00
C543   C     0.00536   0.22138   0.21080   0.00000  Uiso   1.00
H544   H     0.98872   0.26211   0.27049   0.00000  Uiso   1.00
C545   C     0.85424   0.16469   0.32359   0.00000  Uiso   1.00
C546   C     0.96226   0.17263   0.24841   0.00000  Uiso   1.00
H547   H     0.04624   0.22082   0.25936   0.00000  Uiso   1.00
C548   C     0.81787   0.14394   0.38020   0.00000  Uiso   1.00
C549   C     0.91588   0.15534   0.27954   0.00000  Uiso   1.00
H550   H     0.00828   0.16362   0.22644   0.00000  Uiso   1.00
C551   C     0.83479   0.11656   0.37342   0.00000  Uiso   1.00
C552   C     0.76369   0.15379   0.44546   0.00000  Uiso   1.00
C553   C     0.92872   0.12481   0.27592   0.00000  Uiso   1.00
C554   C     0.88997   0.10670   0.31837   0.00000  Uiso   1.00
H555   H     0.80936   0.10048   0.41008   0.00000  Uiso   1.00
C556   C     0.79035   0.17782   0.50431   0.00000  Uiso   1.00
C557   C     0.70333   0.16400   0.39293   0.00000  Uiso   1.00
C558   C     0.73969   0.13042   0.50910   0.00000  Uiso   1.00
H559   H     0.97072   0.11701   0.23938   0.00000  Uiso   1.00
H560   H     0.68338   0.21079   0.23829   0.00000  Uiso   1.00
H561   H     0.61001   0.22619   0.19524   0.00000  Uiso   1.00
H562   H     0.60692   0.20588   0.29524   0.00000  Uiso   1.00
H563   H     0.72680   0.23017   0.39703   0.00000  Uiso   1.00
H564   H     0.64636   0.22737   0.44134   0.00000  Uiso   1.00
H565   H     0.68711   0.26081   0.44078   0.00000  Uiso   1.00
H566   H     0.54961   0.24577   0.37141   0.00000  Uiso   1.00
H567   H     0.55182   0.26417   0.26916   0.00000  Uiso   1.00
H568   H     0.58323   0.28055   0.36903   0.00000  Uiso   1.00
H569   H     0.83615   0.17108   0.53855   0.00000  Uiso   1.00
H570   H     0.75371   0.18391   0.55521   0.00000  Uiso   1.00
H571   H     0.80134   0.19705   0.46618   0.00000  Uiso   1.00
H572   H     0.66367   0.17112   0.43810   0.00000  Uiso   1.00
H573   H     0.68360   0.14686   0.35067   0.00000  Uiso   1.00
H574   H     0.71619   0.18177   0.34973   0.00000  Uiso   1.00
H575   H     0.71429   0.11332   0.47252   0.00000  Uiso   1.00
H576   H     0.70361   0.13887   0.55736   0.00000  Uiso   1.00
H577   H     0.78159   0.12154   0.54735   0.00000  Uiso   1.00
C578   C     0.68592   0.33923   0.14799   0.00000  Uiso   1.00
C579   C     0.90604   0.07724   0.32033   0.00000  Uiso   1.00
C580   C     0.91908   0.05270   0.32887   0.00000  Uiso   1.00
C581   C     0.66185   0.36117   0.12450   0.00000  Uiso   1.00
C582   C     0.63021   0.38676   0.09643   0.00000  Uiso   1.00
C583   C     0.63176   0.39482   0.00764   0.00000  Uiso   1.00
C584   C     0.59201   0.40200   0.15623   0.00000  Uiso   1.00
C585   C     0.59318   0.41724   0.97814   0.00000  Uiso   1.00
H586   H     0.66063   0.38306   0.96037   0.00000  Uiso   1.00
C587   C     0.55299   0.42429   0.12684   0.00000  Uiso   1.00
H588   H     0.58946   0.39567   0.22490   0.00000  Uiso   1.00
C589   C     0.55281   0.43243   0.03702   0.00000  Uiso   1.00
H590   H     0.59273   0.42207   0.90828   0.00000  Uiso   1.00
H591   H     0.52026   0.43399   0.17394   0.00000  Uiso   1.00
C592   C     0.93502   0.02393   0.34840   0.00000  Uiso   1.00
C593   C     0.00013   0.01480   0.34277   0.00000  Uiso   1.00
C594   C     0.88793   0.00673   0.38814   0.00000  Uiso   1.00
C595   C     0.01892   0.98942   0.38141   0.00000  Uiso   1.00
H596   H     0.03739   0.02809   0.31355   0.00000  Uiso   1.00
C597   C     0.90676   0.98162   0.42873   0.00000  Uiso   1.00
H598   H     0.83751   0.01384   0.39436   0.00000  Uiso   1.00
C599   C     0.97332   0.97293   0.42909   0.00000  Uiso   1.00
H600   H     0.07066   0.98404   0.38144   0.00000  Uiso   1.00
H601   H     0.86998   0.97067   0.46688   0.00000  Uiso   1.00
C602   C     0.39133   0.60703   0.18109   0.00000  Uiso   1.00
C603   C     0.43060   0.62522   0.22271   0.00000  Uiso   1.00
C604   C     0.33538   0.61678   0.12678   0.00000  Uiso   1.00
C605   C     0.41726   0.65573   0.21944   0.00000  Uiso   1.00
H606   H     0.47328   0.61752   0.25843   0.00000  Uiso   1.00
C607   C     0.31834   0.64414   0.11981   0.00000  Uiso   1.00
H608   H     0.30959   0.60065   0.09055   0.00000  Uiso   1.00
C609   C     0.35492   0.66493   0.17633   0.00000  Uiso   1.00
C610   C     0.46373   0.67312   0.25012   0.00000  Uiso   1.00
C611   C     0.26392   0.65391   0.05431   0.00000  Uiso   1.00
O612   O     0.33248   0.68860   0.18495   0.00000  Uiso   1.00
N613   N     0.45451   0.70274   0.25712   0.00000  Uiso   1.00
H614   H     0.51022   0.66425   0.27135   0.00000  Uiso   1.00
C615   C     0.28997   0.67821   0.99629   0.00000  Uiso   1.00
C616   C     0.20338   0.66375   0.10659   0.00000  Uiso   1.00
C617   C     0.24056   0.63059   0.98987   0.00000  Uiso   1.00
Zn618  Zn    0.36714   0.71979   0.24688   0.00000  Uiso   1.00
C619   C     0.50611   0.72183   0.28929   0.00000  Uiso   1.00
O620   O     0.28359   0.73710   0.23816   0.00000  Uiso   1.00
N621   N     0.40681   0.75201   0.30642   0.00000  Uiso   1.00
C622   C     0.47866   0.75251   0.29454   0.00000  Uiso   1.00
H623   H     0.54708   0.72137   0.24122   0.00000  Uiso   1.00
C624   C     0.26349   0.75974   0.26503   0.00000  Uiso   1.00
C625   C     0.36978   0.77606   0.33322   0.00000  Uiso   1.00
H626   H     0.48871   0.76251   0.22964   0.00000  Uiso   1.00
C627   C     0.19328   0.76785   0.24505   0.00000  Uiso   1.00
C628   C     0.30567   0.77967   0.31577   0.00000  Uiso   1.00
H629   H     0.39543   0.79270   0.36774   0.00000  Uiso   1.00
C630   C     0.17139   0.79296   0.27508   0.00000  Uiso   1.00
C631   C     0.14754   0.74773   0.19206   0.00000  Uiso   1.00
C632   C     0.27538   0.80623   0.34567   0.00000  Uiso   1.00
C633   C     0.21319   0.81256   0.32580   0.00000  Uiso   1.00
H634   H     0.12157   0.79991   0.26346   0.00000  Uiso   1.00
C635   C     0.13775   0.72036   0.24501   0.00000  Uiso   1.00
C636   C     0.17750   0.74133   0.10046   0.00000  Uiso   1.00
C637   C     0.07794   0.75974   0.17401   0.00000  Uiso   1.00
H638   H     0.30449   0.82115   0.38340   0.00000  Uiso   1.00
H639   H     0.29974   0.69744   0.03502   0.00000  Uiso   1.00
H640   H     0.33632   0.67189   0.96300   0.00000  Uiso   1.00
H641   H     0.25346   0.68409   0.94464   0.00000  Uiso   1.00
H642   H     0.21594   0.68150   0.15019   0.00000  Uiso   1.00
H643   H     0.16348   0.67077   0.06127   0.00000  Uiso   1.00
H644   H     0.18415   0.64644   0.14838   0.00000  Uiso   1.00
H645   H     0.20457   0.63900   0.94108   0.00000  Uiso   1.00
H646   H     0.28279   0.62187   0.95229   0.00000  Uiso   1.00
H647   H     0.21521   0.61337   0.02570   0.00000  Uiso   1.00
H648   H     0.11116   0.72487   0.30732   0.00000  Uiso   1.00
H649   H     0.10808   0.70501   0.20652   0.00000  Uiso   1.00
H650   H     0.18476   0.71018   0.26329   0.00000  Uiso   1.00
H651   H     0.14440   0.72754   0.06114   0.00000  Uiso   1.00
H652   H     0.18446   0.76114   0.06293   0.00000  Uiso   1.00
H653   H     0.22533   0.73043   0.10471   0.00000  Uiso   1.00
H654   H     0.08043   0.77979   0.13661   0.00000  Uiso   1.00
H655   H     0.04794   0.74483   0.13426   0.00000  Uiso   1.00
H656   H     0.05137   0.76303   0.23687   0.00000  Uiso   1.00
C657   C     0.40751   0.57760   0.17903   0.00000  Uiso   1.00
C658   C     0.18603   0.83911   0.35363   0.00000  Uiso   1.00
C659   C     0.16213   0.86111   0.37667   0.00000  Uiso   1.00
C660   C     0.42042   0.55306   0.17036   0.00000  Uiso   1.00
C661   C     0.43598   0.52427   0.15074   0.00000  Uiso   1.00
C662   C     0.50092   0.51494   0.15725   0.00000  Uiso   1.00
C663   C     0.38867   0.50722   0.11036   0.00000  Uiso   1.00
C664   C     0.51932   0.48950   0.11896   0.00000  Uiso   1.00
H665   H     0.53835   0.52813   0.18689   0.00000  Uiso   1.00
C666   C     0.40713   0.48202   0.07021   0.00000  Uiso   1.00
H667   H     0.33842   0.51451   0.10337   0.00000  Uiso   1.00
C668   C     0.47353   0.47312   0.07075   0.00000  Uiso   1.00
H669   H     0.57098   0.48397   0.11954   0.00000  Uiso   1.00
H670   H     0.37028   0.47116   0.03157   0.00000  Uiso   1.00
C671   C     0.13062   0.88674   0.40440   0.00000  Uiso   1.00
C672   C     0.13204   0.89473   0.49326   0.00000  Uiso   1.00
C673   C     0.09244   0.90201   0.34428   0.00000  Uiso   1.00
C674   C     0.09319   0.91705   0.52253   0.00000  Uiso   1.00
H675   H     0.16098   0.88299   0.54076   0.00000  Uiso   1.00
C676   C     0.05320   0.92421   0.37343   0.00000  Uiso   1.00
H677   H     0.09002   0.89573   0.27553   0.00000  Uiso   1.00
C678   C     0.05280   0.93225   0.46333   0.00000  Uiso   1.00
H679   H     0.09261   0.92181   0.59242   0.00000  Uiso   1.00
H680   H     0.02048   0.93393   0.32605   0.00000  Uiso   1.00
C681   C     0.98789   0.27011   0.86612   0.00000  Uiso   1.00
C682   C     0.91650   0.26141   0.88020   0.00000  Uiso   1.00
C683   C     0.91216   0.23117   0.91440   0.00000  Uiso   1.00
C684   C     0.96702   0.21176   0.87919   0.00000  Uiso   1.00
H685   H     0.01484   0.26792   0.92949   0.00000  Uiso   1.00
H686   H     0.98920   0.29258   0.84657   0.00000  Uiso   1.00
H687   H     0.94632   0.19028   0.87498   0.00000  Uiso   1.00
H688   H     0.00838   0.21094   0.92666   0.00000  Uiso   1.00
H689   H     0.86342   0.22251   0.89617   0.00000  Uiso   1.00
H690   H     0.91383   0.23142   0.98768   0.00000  Uiso   1.00
H691   H     0.88927   0.26342   0.81681   0.00000  Uiso   1.00
H692   H     0.89296   0.27579   0.92852   0.00000  Uiso   1.00
C693   C     0.14911   0.32438   0.51733   0.00000  Uiso   1.00
C694   C     0.09556   0.31114   0.57476   0.00000  Uiso   1.00
C695   C     0.10357   0.27914   0.58336   0.00000  Uiso   1.00
C696   C     0.14769   0.26623   0.51213   0.00000  Uiso   1.00
H697   H     0.19785   0.32099   0.54933   0.00000  Uiso   1.00
H698   H     0.14015   0.34735   0.51456   0.00000  Uiso   1.00
H699   H     0.04678   0.31595   0.54520   0.00000  Uiso   1.00
H700   H     0.09668   0.32084   0.64157   0.00000  Uiso   1.00
H701   H     0.05417   0.26916   0.58012   0.00000  Uiso   1.00
H702   H     0.12518   0.27410   0.64860   0.00000  Uiso   1.00
H703   H     0.13853   0.24328   0.51081   0.00000  Uiso   1.00
H704   H     0.20010   0.26941   0.53022   0.00000  Uiso   1.00
C705   C     0.46642   0.71213   0.62045   0.00000  Uiso   1.00
C706   C     0.41166   0.73152   0.58437   0.00000  Uiso   1.00
C707   C     0.41567   0.76171   0.61904   0.00000  Uiso   1.00
C708   C     0.48699   0.77054   0.63380   0.00000  Uiso   1.00
H709   H     0.50786   0.71126   0.57349   0.00000  Uiso   1.00
H710   H     0.44574   0.69066   0.62456   0.00000  Uiso   1.00
H711   H     0.36283   0.72280   0.60153   0.00000  Uiso   1.00
H712   H     0.41384   0.73186   0.51112   0.00000  Uiso   1.00
H713   H     0.48807   0.79300   0.65372   0.00000  Uiso   1.00
H714   H     0.51387   0.76850   0.57059   0.00000  Uiso   1.00
H715   H     0.38845   0.76355   0.68224   0.00000  Uiso   1.00
H716   H     0.39191   0.77610   0.57073   0.00000  Uiso   1.00
C717   C     0.65024   0.76513   0.98869   0.00000  Uiso   1.00
C718   C     0.60626   0.77746   0.91590   0.00000  Uiso   1.00
C719   C     0.59545   0.80930   0.92452   0.00000  Uiso   1.00
C720   C     0.64802   0.82331   0.98229   0.00000  Uiso   1.00
H721   H     0.70271   0.76873   0.97213   0.00000  Uiso   1.00
H722   H     0.64216   0.74212   0.99033   0.00000  Uiso   1.00
H723   H     0.55766   0.76675   0.91720   0.00000  Uiso   1.00
H724   H     0.62934   0.77283   0.85150   0.00000  Uiso   1.00
H725   H     0.54636   0.81330   0.95391   0.00000  Uiso   1.00
H726   H     0.59558   0.81903   0.85774   0.00000  Uiso   1.00
H727   H     0.63741   0.84616   0.98479   0.00000  Uiso   1.00
H728   H     0.69696   0.82053   0.95067   0.00000  Uiso   1.00
C729   C     0.00000   0.03985   0.00000   0.00000  Uiso   1.00
C730   C     0.50000   0.53992   0.50000   0.00000  Uiso   1.00
C731   C     0.00000   0.95240   0.50000   0.00000  Uiso   1.00
C732   C     0.50000   0.45259   0.00000   0.00000  Uiso   1.00
loop_
_geom_bond_atom_site_label_1
_geom_bond_atom_site_label_2
_geom_bond_distance
_geom_bond_site_symmetry_2
_ccdc_geom_bond_type
C1     C2      1.330   .     D
C1     C3      1.469   .     S
C1     C56     1.438   .     S
C2     C4      1.477   .     S
C2     H5      1.085   .     S
C3     C6      1.354   .     D
C3     H7      1.077   .     S
C4     C8      1.488   .     S
C4     C9      1.336   .     D
C6     C8      1.509   .     S
C6     C10     1.551   .     S
C8     O11     1.224   .     D
C9     N12     1.427   .     S
C9     H13     1.082   .     S
C10    C14     1.543   .     S
C10    C15     1.544   .     S
C10    C16     1.548   .     S
O11    Zn17    1.893   .     S
N12    Zn17    1.959   .     S
N12    C18     1.468   .     S
C14    H38     1.103   .     S
C14    H39     1.113   .     S
C14    H40     1.110   .     S
C15    H41     1.101   .     S
C15    H42     1.110   .     S
C15    H43     1.109   .     S
C16    H44     1.110   .     S
C16    H45     1.111   .     S
C16    H46     1.111   .     S
Zn17   O19     1.892   .     S
Zn17   N20     1.952   .     S
C18    C21     1.566   .     S
C18    H22     1.115   .     S
C18    C693    1.553   .     S
O19    C23     1.224   .     D
N20    C21     1.462   .     S
N20    C24     1.424   .     S
C21    H25     1.115   .     S
C21    C696    1.541   .     S
C23    C26     1.508   .     S
C23    C27     1.490   .     S
C24    C27     1.335   .     D
C24    H28     1.083   .     S
C26    C29     1.352   .     D
C26    C30     1.552   .     S
C27    C31     1.477   .     S
C29    C32     1.469   .     S
C29    H33     1.078   .     S
C30    C34     1.547   .     S
C30    C35     1.545   .     S
C30    C36     1.551   .     S
C31    C32     1.330   .     D
C31    H37     1.085   .     S
C32    C57     1.436   .     S
C34    H49     1.105   .     S
C34    H47     1.113   1_554 S
C34    H48     1.111   1_554 S
C35    H50     1.110   .     S
C35    H51     1.112   .     S
C35    H52     1.100   .     S
C36    H53     1.113   .     S
C36    H54     1.109   1_554 S
C36    H55     1.113   1_554 S
H47    C34     1.113   1_556 S
H48    C34     1.111   1_556 S
H54    C36     1.109   1_556 S
H55    C36     1.113   1_556 S
C56    C59     1.203   .     T
C57    C58     1.203   .     T
C58    C70     1.435   .     S
C59    C60     1.436   .     S
C60    C61     1.395   .     D
C60    C62     1.395   .     S
C61    C63     1.397   .     S
C61    H64     1.083   .     S
C62    C65     1.395   .     D
C62    H66     1.082   .     S
C63    C67     1.414   .     D
C63    H68     1.079   .     S
C65    C67     1.412   .     S
C65    H69     1.083   .     S
C67    C730    1.548   .     S
C70    C71     1.394   .     S
C70    C72     1.396   .     D
C71    C73     1.397   .     D
C71    H74     1.083   .     S
C72    C75     1.395   1_554 S
C72    H76     1.082   1_554 S
C73    C77     1.414   .     S
C73    H78     1.078   .     S
C75    H79     1.083   .     S
C75    C72     1.395   1_556 S
C75    C77     1.411   1_556 D
H76    C72     1.082   1_556 S
C77    C729    1.544   .     S
C77    C75     1.411   1_554 D
C80    C81     1.332   .     D
C80    C82     1.473   .     S
C80    C135    1.435   .     S
C81    C83     1.476   .     S
C81    H84     1.088   .     S
C82    C85     1.352   .     D
C82    H86     1.079   .     S
C83    C87     1.494   .     S
C83    C88     1.338   .     D
C85    C87     1.511   .     S
C85    C89     1.557   .     S
C87    O90     1.224   .     D
C88    N91     1.424   .     S
C88    H92     1.086   .     S
C89    C93     1.545   .     S
C89    C94     1.541   .     S
C89    C95     1.553   .     S
O90    Zn96    1.896   .     S
N91    Zn96    1.955   .     S
N91    C97     1.465   .     S
C93    H117    1.107   .     S
C93    H118    1.110   .     S
C93    H119    1.113   .     S
C94    H120    1.100   .     S
C94    H121    1.113   .     S
C94    H122    1.111   .     S
C95    H123    1.112   .     S
C95    H124    1.110   .     S
C95    H125    1.111   .     S
Zn96   O98     1.896   .     S
Zn96   N99     1.962   .     S
C97    C100    1.565   .     S
C97    H101    1.114   .     S
C97    C717    1.539   1_554 S
O98    C102    1.223   .     D
N99    C100    1.472   .     S
N99    C103    1.427   .     S
C100   H104    1.112   .     S
C100   C720    1.554   1_554 S
C102   C105    1.512   .     S
C102   C106    1.491   .     S
C103   C106    1.340   .     D
C103   H107    1.084   .     S
C105   C108    1.353   .     D
C105   C109    1.554   .     S
C106   C110    1.477   .     S
C108   C111    1.472   .     S
C108   H112    1.080   .     S
C109   C113    1.541   .     S
C109   C114    1.540   .     S
C109   C115    1.551   .     S
C110   C111    1.333   .     D
C110   H116    1.087   .     S
C111   C136    1.437   .     S
C113   H126    1.110   .     S
C113   H127    1.112   .     S
C113   H128    1.106   .     S
C114   H129    1.113   .     S
C114   H130    1.108   .     S
C114   H131    1.102   .     S
C115   H132    1.110   .     S
C115   H133    1.112   1_655 S
C115   H134    1.108   1_655 S
H133   C115    1.112   1_455 S
H134   C115    1.108   1_455 S
C135   C138    1.202   .     T
C136   C137    1.203   .     T
C137   C149    1.434   .     S
C138   C139    1.433   .     S
C139   C140    1.398   .     D
C139   C141    1.396   .     S
C140   C142    1.396   .     S
C140   H143    1.084   .     S
C141   C144    1.393   .     D
C141   H145    1.085   .     S
C142   C146    1.414   .     D
C142   H147    1.080   .     S
C144   C146    1.415   .     S
C144   H148    1.083   .     S
C146   C730    1.542   .     S
C149   C150    1.398   .     S
C149   C151    1.395   .     D
C150   H153    1.084   .     S
C150   C152    1.396   1_565 D
C151   C154    1.393   1_665 S
C151   H155    1.084   1_655 S
C152   C156    1.415   .     S
C152   H157    1.081   .     S
C152   C150    1.396   1_545 D
C154   H158    1.083   .     S
C154   C151    1.393   1_445 S
C154   C156    1.416   1_455 D
H155   C151    1.084   1_455 S
C156   C154    1.416   1_655 D
C156   C729    1.545   1_655 S
C159   C160    1.332   .     D
C159   C161    1.474   .     S
C159   C214    1.444   .     S
C160   C162    1.480   .     S
C160   H163    1.085   .     S
C161   C164    1.356   .     D
C161   H165    1.079   .     S
C162   C166    1.489   .     S
C162   C167    1.339   .     D
C164   C166    1.507   .     S
C164   C168    1.554   .     S
C166   O169    1.224   .     D
C167   N170    1.431   .     S
C167   H171    1.082   .     S
C168   C172    1.545   .     S
C168   C173    1.549   .     S
C168   C174    1.549   .     S
O169   Zn175   1.891   .     S
N170   Zn175   1.951   .     S
N170   C176    1.472   .     S
C172   H196    1.105   .     S
C172   H197    1.112   .     S
C172   H198    1.110   .     S
C173   H199    1.103   .     S
C173   H200    1.110   .     S
C173   H201    1.111   .     S
C174   H202    1.111   .     S
C174   H203    1.108   .     S
C174   H204    1.112   .     S
Zn175  O177    1.891   .     S
Zn175  N178    1.957   .     S
C176   H180    1.112   .     S
C176   C179    1.568   1_455 S
C176   C681    1.547   1_455 S
O177   C181    1.224   .     D
N178   C182    1.429   .     S
N178   C179    1.469   1_455 S
C179   H183    1.109   .     S
C179   C684    1.543   .     S
C179   C176    1.568   1_655 S
C179   N178    1.469   1_655 S
C181   C184    1.503   .     S
C181   C185    1.487   .     S
C182   C185    1.338   .     D
C182   H186    1.082   1_455 S
C184   C187    1.354   .     D
C184   C188    1.552   .     S
C185   C189    1.479   .     S
H186   C182    1.082   1_655 S
C187   C190    1.474   .     S
C187   H191    1.078   .     S
C188   C192    1.549   .     S
C188   C193    1.541   .     S
C188   C194    1.551   .     S
C189   C190    1.333   .     D
C189   H195    1.083   .     S
C190   C215    1.442   .     S
C192   H205    1.113   .     S
C192   H206    1.110   .     S
C192   H207    1.106   .     S
C193   H208    1.110   .     S
C193   H209    1.112   .     S
C193   H210    1.101   .     S
C194   H211    1.112   .     S
C194   H212    1.111   .     S
C194   H213    1.113   .     S
C214   C217    1.208   .     T
C215   C216    1.206   .     T
C216   C228    1.440   .     S
C217   C218    1.443   .     S
C218   C219    1.398   .     S
C218   C220    1.396   .     D
C219   C221    1.399   1_556 D
C219   H222    1.082   1_556 S
C220   C223    1.398   .     S
C220   H224    1.083   .     S
C221   H226    1.082   .     S
C221   C219    1.399   1_554 D
C221   C225    1.411   1_554 S
H222   C219    1.082   1_554 S
C223   C225    1.413   .     D
C223   H227    1.079   .     S
C225   C221    1.411   1_556 S
C225   C732    1.546   1_556 S
C228   C230    1.396   .     D
C228   C229    1.396   1_455 S
C229   H232    1.082   .     S
C229   C228    1.396   1_655 S
C229   C231    1.397   1_545 D
C230   H234    1.083   .     S
C230   C233    1.399   1_545 S
C231   H236    1.082   .     S
C231   C229    1.397   1_565 D
C231   C235    1.413   1_655 S
C233   C235    1.415   .     D
C233   H237    1.079   .     S
C233   C230    1.399   1_565 S
C235   C731    1.550   .     S
C235   C231    1.413   1_455 S
C238   C239    1.336   .     D
C238   C240    1.478   .     S
C238   C293    1.441   .     S
C239   C241    1.480   .     S
C239   H242    1.086   .     S
C240   C243    1.353   .     D
C240   H244    1.080   .     S
C241   C245    1.491   .     S
C241   C246    1.340   .     D
C243   C245    1.505   .     S
C243   C247    1.556   .     S
C245   O248    1.224   .     D
C246   N249    1.428   .     S
C246   H250    1.084   .     S
C247   C252    1.536   .     S
C247   C251    1.547   1_556 S
C247   C253    1.553   1_556 S
O248   Zn254   1.893   .     S
N249   Zn254   1.959   .     S
N249   C255    1.471   .     S
C251   H276    1.110   .     S
C251   H277    1.114   .     S
C251   C247    1.547   1_554 S
C251   H275    1.106   1_554 S
C252   H278    1.103   .     S
C252   H279    1.113   .     S
C252   H280    1.111   .     S
C253   H281    1.114   .     S
C253   H282    1.110   .     S
C253   C247    1.553   1_554 S
C253   H283    1.110   1_554 S
Zn254  O256    1.893   .     S
Zn254  N257    1.955   .     S
C255   C258    1.567   .     S
C255   H259    1.106   .     S
C255   C705    1.546   .     S
O256   C260    1.223   .     D
N257   C258    1.471   .     S
N257   C261    1.430   .     S
C258   H262    1.111   .     S
C258   C708    1.550   .     S
C260   C263    1.509   .     S
C260   C264    1.492   .     S
C261   C264    1.341   .     D
C261   H265    1.083   .     S
C263   C266    1.355   .     D
C263   C267    1.558   .     S
C264   C268    1.479   .     S
C266   C269    1.478   .     S
C266   H270    1.080   .     S
C267   C271    1.544   .     S
C267   C272    1.544   .     S
C267   C273    1.550   .     S
C268   C269    1.334   .     D
C268   H274    1.087   .     S
C269   C294    1.443   .     S
C271   H284    1.108   .     S
C271   H285    1.113   .     S
C271   H286    1.107   .     S
C272   H287    1.113   .     S
C272   H288    1.111   .     S
C272   H289    1.104   .     S
C273   H290    1.112   .     S
C273   H291    1.113   .     S
C273   H292    1.105   .     S
H275   C251    1.106   1_556 S
H283   C253    1.110   1_556 S
C293   C296    1.206   .     T
C294   C295    1.207   .     T
C295   C307    1.442   .     S
C296   C297    1.439   .     S
C297   C298    1.396   .     D
C297   C299    1.399   .     S
C298   C300    1.395   .     S
C298   H301    1.084   .     S
C299   C302    1.397   .     D
C299   H303    1.084   .     S
C300   C304    1.417   .     D
C300   H305    1.083   .     S
C302   C304    1.415   .     S
C302   H306    1.082   .     S
C304   C732    1.547   1_556 S
C307   C308    1.398   .     D
C307   C309    1.400   .     S
C308   C310    1.397   .     S
C308   H311    1.084   .     S
C309   C312    1.397   .     D
C309   H313    1.084   .     S
C310   C314    1.415   .     D
C310   H315    1.082   .     S
C312   C314    1.413   .     S
C312   H316    1.082   .     S
C314   C731    1.543   1_655 S
C317   C318    1.524   .     S
C317   H322    1.111   .     S
C317   H321    1.109   1_455 S
C317   C540    1.547   1_455 S
C318   C319    1.534   .     S
C318   H327    1.112   .     S
C318   H328    1.111   .     S
C319   C320    1.544   .     S
C319   H325    1.108   .     S
C319   H326    1.109   .     S
C320   H323    1.109   .     S
C320   C543    1.543   .     S
C320   H324    1.106   1_455 S
H321   C317    1.109   1_655 S
H324   C320    1.106   1_655 S
C329   C330    1.529   .     S
C329   H333    1.114   .     S
C329   H334    1.111   .     S
C329   C382    1.553   .     S
C330   C331    1.539   .     S
C330   H335    1.112   .     S
C330   H336    1.112   .     S
C331   C332    1.531   .     S
C331   H337    1.112   .     S
C331   H338    1.107   .     S
C332   H339    1.110   .     S
C332   H340    1.110   .     S
C332   C385    1.541   .     S
C341   C342    1.546   .     S
C341   H345    1.103   .     S
C341   H346    1.108   .     S
C341   C619    1.546   .     S
C342   C343    1.534   .     S
C342   H347    1.107   .     S
C342   H348    1.109   .     S
C343   C344    1.526   .     S
C343   H351    1.108   .     S
C343   H352    1.113   .     S
C344   H349    1.112   .     S
C344   H350    1.106   .     S
C344   C622    1.550   .     S
C353   C354    1.535   .     S
C353   H357    1.109   .     S
C353   H358    1.109   .     S
C353   C461    1.539   1_554 S
C354   C355    1.539   .     S
C354   H359    1.112   .     S
C354   H360    1.104   .     S
C355   C356    1.534   .     S
C355   H361    1.109   .     S
C355   H362    1.112   .     S
C356   H363    1.111   .     S
C356   H364    1.112   .     S
C356   C464    1.554   1_554 S
C365   C366    1.330   .     D
C365   C367    1.469   .     S
C365   C420    1.438   .     S
C366   C368    1.477   .     S
C366   H369    1.085   .     S
C367   C370    1.354   .     D
C367   H371    1.077   .     S
C368   C372    1.488   .     S
C368   C373    1.336   .     D
C370   C372    1.509   .     S
C370   C374    1.551   .     S
C372   O375    1.224   .     D
C373   N376    1.427   .     S
C373   H377    1.082   .     S
C374   C378    1.543   .     S
C374   C379    1.544   .     S
C374   C380    1.548   .     S
O375   Zn381   1.893   .     S
N376   Zn381   1.959   .     S
N376   C382    1.468   .     S
C378   H402    1.103   .     S
C378   H403    1.113   .     S
C378   H404    1.110   .     S
C379   H405    1.101   .     S
C379   H406    1.110   .     S
C379   H407    1.109   .     S
C380   H408    1.110   .     S
C380   H409    1.111   .     S
C380   H410    1.111   .     S
Zn381  O383    1.892   .     S
Zn381  N384    1.952   .     S
C382   C385    1.566   .     S
C382   H386    1.115   .     S
O383   C387    1.224   .     D
N384   C385    1.462   .     S
N384   C388    1.424   .     S
C385   H389    1.115   .     S
C387   C390    1.508   .     S
C387   C391    1.490   .     S
C388   C391    1.335   .     D
C388   H392    1.083   .     S
C390   C393    1.352   .     D
C390   C394    1.552   .     S
C391   C395    1.477   .     S
C393   C396    1.469   .     S
C393   H397    1.078   .     S
C394   C398    1.547   .     S
C394   C399    1.545   .     S
C394   C400    1.551   .     S
C395   C396    1.330   .     D
C395   H401    1.085   .     S
C396   C421    1.436   .     S
C398   H413    1.105   .     S
C398   H411    1.113   1_556 S
C398   H412    1.111   1_556 S
C399   H414    1.110   .     S
C399   H415    1.112   .     S
C399   H416    1.100   .     S
C400   H417    1.113   .     S
C400   H418    1.109   1_556 S
C400   H419    1.113   1_556 S
H411   C398    1.113   1_554 S
H412   C398    1.111   1_554 S
H418   C400    1.109   1_554 S
H419   C400    1.113   1_554 S
C420   C423    1.203   .     T
C421   C422    1.203   .     T
C422   C434    1.435   .     S
C423   C424    1.436   .     S
C424   C425    1.395   .     D
C424   C426    1.395   .     S
C425   C427    1.397   .     S
C425   H428    1.083   .     S
C426   C429    1.395   .     D
C426   H430    1.082   .     S
C427   C431    1.414   .     D
C427   H432    1.079   .     S
C429   C431    1.412   .     S
C429   H433    1.083   .     S
C431   C730    1.548   .     S
C434   C435    1.394   .     S
C434   C436    1.396   .     D
C435   C437    1.397   .     D
C435   H438    1.083   .     S
C436   C439    1.395   1_556 S
C436   H440    1.082   1_556 S
C437   C441    1.414   .     S
C437   H442    1.078   .     S
C439   H443    1.083   .     S
C439   C436    1.395   1_554 S
C439   C441    1.411   1_554 D
H440   C436    1.082   1_554 S
C441   C439    1.411   1_556 D
C441   C729    1.544   1_656 S
C444   C445    1.332   .     D
C444   C446    1.473   .     S
C444   C499    1.435   .     S
C445   C447    1.476   .     S
C445   H448    1.088   .     S
C446   C449    1.352   .     D
C446   H450    1.079   .     S
C447   C451    1.494   .     S
C447   C452    1.338   .     D
C449   C451    1.511   .     S
C449   C453    1.557   .     S
C451   O454    1.224   .     D
C452   N455    1.424   .     S
C452   H456    1.086   .     S
C453   C457    1.545   .     S
C453   C458    1.541   .     S
C453   C459    1.553   .     S
O454   Zn460   1.896   .     S
N455   Zn460   1.955   .     S
N455   C461    1.465   .     S
C457   H481    1.107   .     S
C457   H482    1.110   .     S
C457   H483    1.113   .     S
C458   H484    1.100   .     S
C458   H485    1.113   .     S
C458   H486    1.111   .     S
C459   H487    1.112   .     S
C459   H488    1.110   .     S
C459   H489    1.111   .     S
Zn460  O462    1.896   .     S
Zn460  N463    1.962   .     S
C461   C464    1.565   .     S
C461   H465    1.114   .     S
C461   C353    1.539   1_556 S
O462   C466    1.223   .     D
N463   C464    1.472   .     S
N463   C467    1.427   .     S
C464   H468    1.112   .     S
C464   C356    1.554   1_556 S
C466   C469    1.512   .     S
C466   C470    1.491   .     S
C467   C470    1.340   .     D
C467   H471    1.084   .     S
C469   C472    1.353   .     D
C469   C473    1.554   .     S
C470   C474    1.477   .     S
C472   C475    1.472   .     S
C472   H476    1.080   .     S
C473   C477    1.541   .     S
C473   C478    1.540   .     S
C473   C479    1.551   .     S
C474   C475    1.333   .     D
C474   H480    1.087   .     S
C475   C500    1.437   .     S
C477   H490    1.110   .     S
C477   H491    1.112   .     S
C477   H492    1.106   .     S
C478   H493    1.113   .     S
C478   H494    1.108   .     S
C478   H495    1.102   .     S
C479   H496    1.110   .     S
C479   H497    1.112   1_455 S
C479   H498    1.108   1_455 S
H497   C479    1.112   1_655 S
H498   C479    1.108   1_655 S
C499   C502    1.202   .     T
C500   C501    1.203   .     T
C501   C513    1.434   .     S
C502   C503    1.433   .     S
C503   C504    1.398   .     D
C503   C505    1.396   .     S
C504   C506    1.396   .     S
C504   H507    1.084   .     S
C505   C508    1.393   .     D
C505   H509    1.085   .     S
C506   C510    1.414   .     D
C506   H511    1.080   .     S
C508   C510    1.415   .     S
C508   H512    1.083   .     S
C510   C730    1.542   .     S
C513   C514    1.398   .     S
C513   C515    1.395   .     D
C514   H517    1.084   .     S
C514   C516    1.396   1_565 D
C515   C518    1.393   1_465 S
C515   H519    1.084   1_455 S
C516   C520    1.415   .     S
C516   H521    1.081   .     S
C516   C514    1.396   1_545 D
C518   H522    1.083   .     S
C518   C515    1.393   1_645 S
C518   C520    1.416   1_655 D
H519   C515    1.084   1_655 S
C520   C518    1.416   1_455 D
C520   C729    1.545   1_556 S
C523   C524    1.332   .     D
C523   C525    1.474   .     S
C523   C578    1.444   .     S
C524   C526    1.480   .     S
C524   H527    1.085   .     S
C525   C528    1.356   .     D
C525   H529    1.079   .     S
C526   C530    1.489   .     S
C526   C531    1.339   .     D
C528   C530    1.507   .     S
C528   C532    1.554   .     S
C530   O533    1.224   .     D
C531   N534    1.431   .     S
C531   H535    1.082   .     S
C532   C536    1.545   .     S
C532   C537    1.549   .     S
C532   C538    1.549   .     S
O533   Zn539   1.891   .     S
N534   Zn539   1.951   .     S
N534   C540    1.472   .     S
C536   H560    1.105   .     S
C536   H561    1.112   .     S
C536   H562    1.110   .     S
C537   H563    1.103   .     S
C537   H564    1.110   .     S
C537   H565    1.111   .     S
C538   H566    1.111   .     S
C538   H567    1.108   .     S
C538   H568    1.112   .     S
Zn539  O541    1.891   .     S
Zn539  N542    1.957   .     S
C540   H544    1.112   .     S
C540   C317    1.547   1_655 S
C540   C543    1.568   1_655 S
O541   C545    1.224   .     D
N542   C546    1.429   .     S
N542   C543    1.469   1_655 S
C543   H547    1.109   .     S
C543   C540    1.568   1_455 S
C543   N542    1.469   1_455 S
C545   C548    1.503   .     S
C545   C549    1.487   .     S
C546   C549    1.338   .     D
C546   H550    1.082   1_655 S
C548   C551    1.354   .     D
C548   C552    1.552   .     S
C549   C553    1.479   .     S
H550   C546    1.082   1_455 S
C551   C554    1.474   .     S
C551   H555    1.078   .     S
C552   C556    1.549   .     S
C552   C557    1.541   .     S
C552   C558    1.551   .     S
C553   C554    1.333   .     D
C553   H559    1.083   .     S
C554   C579    1.442   .     S
C556   H569    1.113   .     S
C556   H570    1.110   .     S
C556   H571    1.106   .     S
C557   H572    1.110   .     S
C557   H573    1.112   .     S
C557   H574    1.101   .     S
C558   H575    1.112   .     S
C558   H576    1.111   .     S
C558   H577    1.113   .     S
C578   C581    1.208   .     T
C579   C580    1.206   .     T
C580   C592    1.440   .     S
C581   C582    1.443   .     S
C582   C583    1.398   .     S
C582   C584    1.396   .     D
C583   C585    1.399   1_554 D
C583   H586    1.082   1_554 S
C584   C587    1.398   .     S
C584   H588    1.083   .     S
C585   H590    1.082   .     S
C585   C583    1.399   1_556 D
C585   C589    1.411   1_556 S
H586   C583    1.082   1_556 S
C587   C589    1.413   .     D
C587   H591    1.079   .     S
C589   C732    1.546   .     S
C589   C585    1.411   1_554 S
C592   C594    1.396   .     D
C592   C593    1.396   1_655 S
C593   H596    1.082   .     S
C593   C592    1.396   1_455 S
C593   C595    1.397   1_545 D
C594   H598    1.083   .     S
C594   C597    1.399   1_545 S
C595   H600    1.082   .     S
C595   C593    1.397   1_565 D
C595   C599    1.413   1_455 S
C597   C599    1.415   .     D
C597   H601    1.079   .     S
C597   C594    1.399   1_565 S
C599   C595    1.413   1_655 S
C599   C731    1.550   1_655 S
C602   C603    1.336   .     D
C602   C604    1.478   .     S
C602   C657    1.441   .     S
C603   C605    1.480   .     S
C603   H606    1.086   .     S
C604   C607    1.353   .     D
C604   H608    1.080   .     S
C605   C609    1.491   .     S
C605   C610    1.340   .     D
C607   C609    1.505   .     S
C607   C611    1.556   .     S
C609   O612    1.224   .     D
C610   N613    1.428   .     S
C610   H614    1.084   .     S
C611   C616    1.536   .     S
C611   C615    1.547   1_554 S
C611   C617    1.553   1_554 S
O612   Zn618   1.893   .     S
N613   Zn618   1.959   .     S
N613   C619    1.471   .     S
C615   H640    1.110   .     S
C615   H641    1.114   .     S
C615   C611    1.547   1_556 S
C615   H639    1.106   1_556 S
C616   H642    1.103   .     S
C616   H643    1.113   .     S
C616   H644    1.111   .     S
C617   H645    1.114   .     S
C617   H646    1.110   .     S
C617   C611    1.553   1_556 S
C617   H647    1.110   1_556 S
Zn618  O620    1.893   .     S
Zn618  N621    1.955   .     S
C619   C622    1.567   .     S
C619   H623    1.106   .     S
O620   C624    1.223   .     D
N621   C622    1.471   .     S
N621   C625    1.430   .     S
C622   H626    1.111   .     S
C624   C627    1.509   .     S
C624   C628    1.492   .     S
C625   C628    1.341   .     D
C625   H629    1.083   .     S
C627   C630    1.355   .     D
C627   C631    1.558   .     S
C628   C632    1.479   .     S
C630   C633    1.478   .     S
C630   H634    1.080   .     S
C631   C635    1.544   .     S
C631   C636    1.544   .     S
C631   C637    1.550   .     S
C632   C633    1.334   .     D
C632   H638    1.087   .     S
C633   C658    1.443   .     S
C635   H648    1.108   .     S
C635   H649    1.113   .     S
C635   H650    1.107   .     S
C636   H651    1.113   .     S
C636   H652    1.111   .     S
C636   H653    1.104   .     S
C637   H654    1.112   .     S
C637   H655    1.113   .     S
C637   H656    1.105   .     S
H639   C615    1.106   1_554 S
H647   C617    1.110   1_554 S
C657   C660    1.206   .     T
C658   C659    1.207   .     T
C659   C671    1.442   .     S
C660   C661    1.439   .     S
C661   C662    1.396   .     D
C661   C663    1.399   .     S
C662   C664    1.395   .     S
C662   H665    1.084   .     S
C663   C666    1.397   .     D
C663   H667    1.084   .     S
C664   C668    1.417   .     D
C664   H669    1.083   .     S
C666   C668    1.415   .     S
C666   H670    1.082   .     S
C668   C732    1.547   .     S
C671   C672    1.398   .     D
C671   C673    1.400   .     S
C672   C674    1.397   .     S
C672   H675    1.084   .     S
C673   C676    1.397   .     D
C673   H677    1.084   .     S
C674   C678    1.415   .     D
C674   H679    1.082   .     S
C676   C678    1.413   .     S
C676   H680    1.082   .     S
C678   C731    1.543   .     S
C681   C682    1.524   .     S
C681   H686    1.111   .     S
C681   C176    1.547   1_655 S
C681   H685    1.109   1_655 S
C682   C683    1.534   .     S
C682   H691    1.112   .     S
C682   H692    1.111   .     S
C683   C684    1.544   .     S
C683   H689    1.108   .     S
C683   H690    1.109   .     S
C684   H687    1.109   .     S
C684   H688    1.106   1_655 S
H685   C681    1.109   1_455 S
H688   C684    1.106   1_455 S
C693   C694    1.529   .     S
C693   H697    1.114   .     S
C693   H698    1.111   .     S
C694   C695    1.539   .     S
C694   H699    1.112   .     S
C694   H700    1.112   .     S
C695   C696    1.531   .     S
C695   H701    1.112   .     S
C695   H702    1.107   .     S
C696   H703    1.110   .     S
C696   H704    1.110   .     S
C705   C706    1.546   .     S
C705   H709    1.103   .     S
C705   H710    1.108   .     S
C706   C707    1.534   .     S
C706   H711    1.107   .     S
C706   H712    1.109   .     S
C707   C708    1.526   .     S
C707   H715    1.108   .     S
C707   H716    1.113   .     S
C708   H713    1.112   .     S
C708   H714    1.106   .     S
C717   C718    1.535   .     S
C717   H721    1.109   .     S
C717   H722    1.109   .     S
C717   C97     1.539   1_556 S
C718   C719    1.539   .     S
C718   H723    1.112   .     S
C718   H724    1.104   .     S
C719   C720    1.534   .     S
C719   H725    1.109   .     S
C719   H726    1.112   .     S
C720   H727    1.111   .     S
C720   H728    1.112   .     S
C720   C100    1.554   1_556 S
C729   C156    1.545   1_455 S
C729   C441    1.544   1_454 S
C729   C520    1.545   1_554 S
C731   C314    1.543   1_455 S
C731   C599    1.550   1_455 S
C732   C225    1.546   1_554 S
C732   C304    1.547   1_554 S
