data_1213
_audit_creation_date              2023-09-08
_audit_creation_method            'Materials Studio'
_symmetry_space_group_name_H-M    'P1'
_symmetry_Int_Tables_number       1
_symmetry_cell_setting            triclinic
loop_
_symmetry_equiv_pos_as_xyz
  x,y,z
_cell_length_a                    52.0050
_cell_length_b                    52.0050
_cell_length_c                    8.0140
_cell_angle_alpha                 90.0000
_cell_angle_beta                  90.0000
_cell_angle_gamma                 120.0000
loop_
_atom_site_label
_atom_site_type_symbol
_atom_site_fract_x
_atom_site_fract_y
_atom_site_fract_z
_atom_site_U_iso_or_equiv
_atom_site_adp_type
_atom_site_occupancy
C1     C     0.41560   0.72537   0.13527   0.00000  Uiso   1.00
C2     C     0.44650   0.73947   0.13912   0.00000  Uiso   1.00
C3     C     0.46157   0.72685   0.06164   0.00000  Uiso   1.00
C4     C     0.44514   0.69980  -0.02367   0.00000  Uiso   1.00
C5     C     0.41416   0.68587  -0.03027   0.00000  Uiso   1.00
C6     C     0.39891   0.69828   0.05058   0.00000  Uiso   1.00
N7     N     0.49341   0.74259   0.07145   0.00000  Uiso   1.00
C8     C     0.51119   0.73301   0.02760   0.00000  Uiso   1.00
C9     C     0.54358   0.75223   0.04719   0.00000  Uiso   1.00
C10    C     0.56253   0.74111   0.00827   0.00000  Uiso   1.00
C11    C     0.59323   0.75890   0.02895   0.00000  Uiso   1.00
C12    C     0.60532   0.78791   0.09114   0.00000  Uiso   1.00
C13    C     0.58660   0.79946   0.12353   0.00000  Uiso   1.00
C14    C     0.55593   0.78166   0.10394   0.00000  Uiso   1.00
C15    C     0.63767   0.80729   0.10533   0.00000  Uiso   1.00
C16    C     0.65500   0.80621   0.23849   0.00000  Uiso   1.00
C17    C     0.68540   0.82525   0.24340   0.00000  Uiso   1.00
C18    C     0.70034   0.84593   0.11382   0.00000  Uiso   1.00
C19    C     0.68319   0.84762  -0.01654   0.00000  Uiso   1.00
C20    C     0.65233   0.82891  -0.01958   0.00000  Uiso   1.00
C21    C     0.73262   0.86601   0.10784   0.00000  Uiso   1.00
C22    C     0.75132   0.85610   0.04516   0.00000  Uiso   1.00
C23    C     0.78197   0.87561   0.03578   0.00000  Uiso   1.00
C24    C     0.79422   0.90540   0.08675   0.00000  Uiso   1.00
C25    C     0.77529   0.91529   0.14633   0.00000  Uiso   1.00
C26    C     0.74467   0.89577   0.15588   0.00000  Uiso   1.00
C27    C     0.82647   0.92649   0.07920   0.00000  Uiso   1.00
N28    N     0.64679   0.78870   0.37690   0.00000  Uiso   1.00
C29    C     0.67231   0.79759   0.46153   0.00000  Uiso   1.00
N30    N     0.69626   0.81987   0.38488   0.00000  Uiso   1.00
N31    N     0.84481   0.91811   0.02737   0.00000  Uiso   1.00
C32    C     0.87661   0.93634   0.02071   0.00000  Uiso   1.00
C33    C     0.89250   0.92646  -0.07435   0.00000  Uiso   1.00
C34    C     0.92349   0.94305  -0.08332   0.00000  Uiso   1.00
C35    C     0.93922   0.96980   0.00498   0.00000  Uiso   1.00
C36    C     0.92327   0.97950   0.10250   0.00000  Uiso   1.00
C37    C     0.89229   0.96301   0.11046   0.00000  Uiso   1.00
C38    C     0.61801   0.76420   0.42898   0.00000  Uiso   1.00
C39    C     0.72656   0.83359   0.44925   0.00000  Uiso   1.00
C40    C     0.59977   0.77566   0.51683   0.00000  Uiso   1.00
C41    C     0.74057   0.81477   0.40499   0.00000  Uiso   1.00
Au42   Au    0.67454   0.77979   0.67673   0.00000  Uiso   1.00
Cl43   Cl    0.67687   0.75933   0.92048   0.00000  Uiso   1.00
C44    C     0.36585   0.68331   0.04627   0.00000  Uiso   1.00
C45    C     0.97221   0.98710  -0.00066   0.00000  Uiso   1.00
C46    C     0.35137   0.70000   0.04565   0.00000  Uiso   1.00
C47    C     0.98727   0.01474  -0.00103   0.00000  Uiso   1.00
C48    C     0.74443   0.39310   0.69117   0.00000  Uiso   1.00
C49    C     0.77543   0.40942   0.69454   0.00000  Uiso   1.00
C50    C     0.79224   0.40264   0.58515   0.00000  Uiso   1.00
C51    C     0.77733   0.37856   0.47324   0.00000  Uiso   1.00
C52    C     0.74631   0.36208   0.47093   0.00000  Uiso   1.00
C53    C     0.72960   0.36905   0.57980   0.00000  Uiso   1.00
N54    N     0.82411   0.42027   0.59458   0.00000  Uiso   1.00
C55    C     0.84296   0.41943   0.49152   0.00000  Uiso   1.00
C56    C     0.87530   0.43841   0.51595   0.00000  Uiso   1.00
C57    C     0.89465   0.43550   0.40602   0.00000  Uiso   1.00
C58    C     0.92535   0.45309   0.42518   0.00000  Uiso   1.00
C59    C     0.93730   0.47392   0.55354   0.00000  Uiso   1.00
C60    C     0.91815   0.47720   0.66305   0.00000  Uiso   1.00
C61    C     0.88728   0.45926   0.64583   0.00000  Uiso   1.00
C62    C     0.96973   0.49363   0.56371   0.00000  Uiso   1.00
C63    C     0.98954   0.48510   0.63064   0.00000  Uiso   1.00
C64    C     0.01993   0.50434   0.63032   0.00000  Uiso   1.00
C65    C     0.03241   0.53296   0.55835   0.00000  Uiso   1.00
C66    C     0.01285   0.54151   0.49029   0.00000  Uiso   1.00
C67    C     0.98204   0.52217   0.49293   0.00000  Uiso   1.00
C68    C     0.06453   0.55381   0.54868   0.00000  Uiso   1.00
C69    C     0.08207   0.54903   0.43426   0.00000  Uiso   1.00
C70    C     0.11292   0.56734   0.43502   0.00000  Uiso   1.00
C71    C     0.12653   0.59106   0.54843   0.00000  Uiso   1.00
C72    C     0.10870   0.59670   0.65671   0.00000  Uiso   1.00
C73    C     0.07786   0.57821   0.65665   0.00000  Uiso   1.00
C74    C     0.15913   0.60942   0.56039   0.00000  Uiso   1.00
N75    N     0.98386   0.45966   0.70973   0.00000  Uiso   1.00
C76    C     0.01070   0.46424   0.75709   0.00000  Uiso   1.00
N77    N     0.03323   0.49108   0.71098   0.00000  Uiso   1.00
N78    N     0.17621   0.60170   0.48278   0.00000  Uiso   1.00
C79    C     0.20808   0.61623   0.49022   0.00000  Uiso   1.00
C80    C     0.22209   0.60367   0.40039   0.00000  Uiso   1.00
C81    C     0.25290   0.61637   0.40478   0.00000  Uiso   1.00
C82    C     0.27045   0.64207   0.49959   0.00000  Uiso   1.00
C83    C     0.25645   0.65468   0.59017   0.00000  Uiso   1.00
C84    C     0.22559   0.64200   0.58551   0.00000  Uiso   1.00
C85    C     0.95583   0.43360   0.75984   0.00000  Uiso   1.00
C86    C     0.06417   0.50210   0.75864   0.00000  Uiso   1.00
C87    C     0.94575   0.43950   0.92592   0.00000  Uiso   1.00
C88    C     0.07814   0.48888   0.64529   0.00000  Uiso   1.00
Au89   Au    0.01632   0.43567   0.89487   0.00000  Uiso   1.00
Cl90   Cl    0.02265   0.40326   1.05162   0.00000  Uiso   1.00
C91    C     0.69673   0.35139   0.57808   0.00000  Uiso   1.00
C92    C     0.30332   0.65587   0.50229   0.00000  Uiso   1.00
C93    C     0.67977   0.36555   0.57808   0.00000  Uiso   1.00
C94    C     0.32149   0.68335   0.50244   0.00000  Uiso   1.00
H95    H     0.40362   0.73580   0.20121   0.00000  Uiso   1.00
H96    H     0.45981   0.76164   0.20627   0.00000  Uiso   1.00
H97    H     0.45706   0.68914  -0.08780   0.00000  Uiso   1.00
H98    H     0.40094   0.66417  -0.10187   0.00000  Uiso   1.00
H99    H     0.50178   0.70972  -0.02613   0.00000  Uiso   1.00
H100   H     0.55290   0.71746  -0.04046   0.00000  Uiso   1.00
H101   H     0.60852   0.74986  -0.00472   0.00000  Uiso   1.00
H102   H     0.59639   0.82348   0.16606   0.00000  Uiso   1.00
H103   H     0.54072   0.79095   0.13400   0.00000  Uiso   1.00
H104   H     0.69437   0.86437  -0.12161   0.00000  Uiso   1.00
H105   H     0.63904   0.83137  -0.12524   0.00000  Uiso   1.00
H106   H     0.74156   0.83213   0.00178   0.00000  Uiso   1.00
H107   H     0.79720   0.86744  -0.01334   0.00000  Uiso   1.00
H108   H     0.78485   0.93936   0.18730   0.00000  Uiso   1.00
H109   H     0.72949   0.90415   0.20298   0.00000  Uiso   1.00
H110   H     0.83563   0.95055   0.11922   0.00000  Uiso   1.00
H111   H     0.88021   0.90463  -0.14582   0.00000  Uiso   1.00
H112   H     0.93613   0.93485  -0.16279   0.00000  Uiso   1.00
H113   H     0.93559   0.00106   0.17638   0.00000  Uiso   1.00
H114   H     0.87964   0.97118   0.19000   0.00000  Uiso   1.00
H115   H     0.61198   0.74031   0.40179   0.00000  Uiso   1.00
H116   H     0.73634   0.85539   0.52114   0.00000  Uiso   1.00
H117   H     0.57460   0.76343   0.50202   0.00000  Uiso   1.00
H118   H     0.61128   0.79648   0.59745   0.00000  Uiso   1.00
H119   H     0.72640   0.79179   0.34793   0.00000  Uiso   1.00
H120   H     0.76521   0.82369   0.42898   0.00000  Uiso   1.00
H121   H     0.36491   0.72529   0.04473   0.00000  Uiso   1.00
H122   H     0.97576   0.02851  -0.00172   0.00000  Uiso   1.00
H123   H     0.73101   0.39919   0.77862   0.00000  Uiso   1.00
H124   H     0.78731   0.42848   0.78691   0.00000  Uiso   1.00
H125   H     0.79062   0.37252   0.38443   0.00000  Uiso   1.00
H126   H     0.73442   0.34280   0.37996   0.00000  Uiso   1.00
H127   H     0.83464   0.40382   0.37957   0.00000  Uiso   1.00
H128   H     0.88535   0.41867   0.29993   0.00000  Uiso   1.00
H129   H     0.94091   0.45050   0.33541   0.00000  Uiso   1.00
H130   H     0.92762   0.49450   0.76674   0.00000  Uiso   1.00
H131   H     0.87180   0.46157   0.73753   0.00000  Uiso   1.00
H132   H     0.02199   0.56444   0.43195   0.00000  Uiso   1.00
H133   H     0.96690   0.52988   0.43658   0.00000  Uiso   1.00
H134   H     0.07119   0.53014   0.34001   0.00000  Uiso   1.00
H135   H     0.12714   0.56306   0.34344   0.00000  Uiso   1.00
H136   H     0.11935   0.61646   0.74545   0.00000  Uiso   1.00
H137   H     0.06353   0.58299   0.74461   0.00000  Uiso   1.00
H138   H     0.16960   0.63061   0.63821   0.00000  Uiso   1.00
H139   H     0.20833   0.58284   0.32252   0.00000  Uiso   1.00
H140   H     0.26408   0.60591   0.33104   0.00000  Uiso   1.00
H141   H     0.27025   0.67544   0.66845   0.00000  Uiso   1.00
H142   H     0.21442   0.65249   0.65905   0.00000  Uiso   1.00
H143   H     0.94512   0.41308   0.67661   0.00000  Uiso   1.00
H144   H     0.07429   0.51826   0.86731   0.00000  Uiso   1.00
H145   H     0.92120   0.42704   0.96044   0.00000  Uiso   1.00
H146   H     0.96273   0.45640   1.01621   0.00000  Uiso   1.00
H147   H     0.06340   0.46841   0.56690   0.00000  Uiso   1.00
H148   H     0.10332   0.49947   0.63894   0.00000  Uiso   1.00
H149   H     0.69127   0.39083   0.57808   0.00000  Uiso   1.00
H150   H     0.31306   0.69980   0.50272   0.00000  Uiso   1.00
C151   C     0.27463   0.69023   0.13527   0.00000  Uiso   1.00
C152   C     0.26053   0.70703   0.13912   0.00000  Uiso   1.00
C153   C     0.27315   0.73472   0.06164   0.00000  Uiso   1.00
C154   C     0.30020   0.74534  -0.02367   0.00000  Uiso   1.00
C155   C     0.31413   0.72829  -0.03027   0.00000  Uiso   1.00
C156   C     0.30172   0.70063   0.05058   0.00000  Uiso   1.00
N157   N     0.25741   0.75082   0.07145   0.00000  Uiso   1.00
C158   C     0.26699   0.77818   0.02760   0.00000  Uiso   1.00
C159   C     0.24777   0.79135   0.04719   0.00000  Uiso   1.00
C160   C     0.25889   0.82142   0.00827   0.00000  Uiso   1.00
C161   C     0.24110   0.83433   0.02895   0.00000  Uiso   1.00
C162   C     0.21209   0.81741   0.09114   0.00000  Uiso   1.00
C163   C     0.20054   0.78714   0.12353   0.00000  Uiso   1.00
C164   C     0.21834   0.77427   0.10394   0.00000  Uiso   1.00
C165   C     0.19271   0.83038   0.10533   0.00000  Uiso   1.00
C166   C     0.19379   0.84879   0.23849   0.00000  Uiso   1.00
C167   C     0.17475   0.86015   0.24340   0.00000  Uiso   1.00
C168   C     0.15407   0.85441   0.11382   0.00000  Uiso   1.00
C169   C     0.15238   0.83557  -0.01654   0.00000  Uiso   1.00
C170   C     0.17109   0.82342  -0.01958   0.00000  Uiso   1.00
C171   C     0.13399   0.86661   0.10784   0.00000  Uiso   1.00
C172   C     0.14390   0.89522   0.04516   0.00000  Uiso   1.00
C173   C     0.12439   0.90636   0.03578   0.00000  Uiso   1.00
C174   C     0.09460   0.88882   0.08675   0.00000  Uiso   1.00
C175   C     0.08471   0.86000   0.14633   0.00000  Uiso   1.00
C176   C     0.10423   0.84890   0.15588   0.00000  Uiso   1.00
C177   C     0.07351   0.89998   0.07920   0.00000  Uiso   1.00
N178   N     0.21130   0.85809   0.37690   0.00000  Uiso   1.00
C179   C     0.20241   0.87472   0.46153   0.00000  Uiso   1.00
N180   N     0.18013   0.87639   0.38488   0.00000  Uiso   1.00
N181   N     0.08189   0.92670   0.02737   0.00000  Uiso   1.00
C182   C     0.06366   0.94027   0.02071   0.00000  Uiso   1.00
C183   C     0.07354   0.96604  -0.07435   0.00000  Uiso   1.00
C184   C     0.05695   0.98044  -0.08332   0.00000  Uiso   1.00
C185   C     0.03020   0.96942   0.00498   0.00000  Uiso   1.00
C186   C     0.02050   0.94377   0.10250   0.00000  Uiso   1.00
C187   C     0.03699   0.92928   0.11046   0.00000  Uiso   1.00
C188   C     0.23580   0.85381   0.42898   0.00000  Uiso   1.00
C189   C     0.16641   0.89297   0.44925   0.00000  Uiso   1.00
C190   C     0.22434   0.82411   0.51683   0.00000  Uiso   1.00
C191   C     0.18523   0.92580   0.40499   0.00000  Uiso   1.00
Au192  Au    0.22021   0.89475   0.67673   0.00000  Uiso   1.00
Cl193  Cl    0.24067   0.91754   0.92048   0.00000  Uiso   1.00
C194   C     0.31669   0.68254   0.04627   0.00000  Uiso   1.00
C195   C     0.01290   0.98511  -0.00066   0.00000  Uiso   1.00
C196   C     0.30000   0.65137   0.04565   0.00000  Uiso   1.00
C197   C     0.98526   0.97253  -0.00103   0.00000  Uiso   1.00
C198   C     0.60690   0.35133   0.69117   0.00000  Uiso   1.00
C199   C     0.59058   0.36601   0.69454   0.00000  Uiso   1.00
C200   C     0.59736   0.38960   0.58515   0.00000  Uiso   1.00
C201   C     0.62144   0.39877   0.47324   0.00000  Uiso   1.00
C202   C     0.63792   0.38423   0.47093   0.00000  Uiso   1.00
C203   C     0.63095   0.36055   0.57980   0.00000  Uiso   1.00
N204   N     0.57973   0.40384   0.59458   0.00000  Uiso   1.00
C205   C     0.58057   0.42353   0.49152   0.00000  Uiso   1.00
C206   C     0.56159   0.43689   0.51595   0.00000  Uiso   1.00
C207   C     0.56450   0.45915   0.40602   0.00000  Uiso   1.00
C208   C     0.54691   0.47226   0.42518   0.00000  Uiso   1.00
C209   C     0.52608   0.46338   0.55354   0.00000  Uiso   1.00
C210   C     0.52280   0.44095   0.66305   0.00000  Uiso   1.00
C211   C     0.54074   0.42802   0.64583   0.00000  Uiso   1.00
C212   C     0.50637   0.47610   0.56371   0.00000  Uiso   1.00
C213   C     0.51490   0.50444   0.63064   0.00000  Uiso   1.00
C214   C     0.49566   0.51559   0.63032   0.00000  Uiso   1.00
C215   C     0.46704   0.49945   0.55835   0.00000  Uiso   1.00
C216   C     0.45849   0.47134   0.49029   0.00000  Uiso   1.00
C217   C     0.47783   0.45987   0.49293   0.00000  Uiso   1.00
C218   C     0.44619   0.51072   0.54868   0.00000  Uiso   1.00
C219   C     0.45097   0.53304   0.43426   0.00000  Uiso   1.00
C220   C     0.43266   0.54558   0.43502   0.00000  Uiso   1.00
C221   C     0.40894   0.53547   0.54843   0.00000  Uiso   1.00
C222   C     0.40330   0.51200   0.65671   0.00000  Uiso   1.00
C223   C     0.42179   0.49965   0.65665   0.00000  Uiso   1.00
C224   C     0.39058   0.54971   0.56039   0.00000  Uiso   1.00
N225   N     0.54034   0.52420   0.70973   0.00000  Uiso   1.00
C226   C     0.53576   0.54646   0.75709   0.00000  Uiso   1.00
N227   N     0.50892   0.54215   0.71098   0.00000  Uiso   1.00
N228   N     0.39830   0.57451   0.48278   0.00000  Uiso   1.00
C229   C     0.38377   0.59185   0.49022   0.00000  Uiso   1.00
C230   C     0.39633   0.61842   0.40039   0.00000  Uiso   1.00
C231   C     0.38363   0.63653   0.40478   0.00000  Uiso   1.00
C232   C     0.35793   0.62838   0.49959   0.00000  Uiso   1.00
C233   C     0.34532   0.60177   0.59017   0.00000  Uiso   1.00
C234   C     0.35800   0.58359   0.58551   0.00000  Uiso   1.00
C235   C     0.56640   0.52223   0.75984   0.00000  Uiso   1.00
C236   C     0.49790   0.56207   0.75864   0.00000  Uiso   1.00
C237   C     0.56050   0.50625   0.92592   0.00000  Uiso   1.00
C238   C     0.51112   0.58926   0.64529   0.00000  Uiso   1.00
Au239  Au    0.56433   0.58065   0.89487   0.00000  Uiso   1.00
Cl240  Cl    0.59674   0.61939   1.05162   0.00000  Uiso   1.00
C241   C     0.64861   0.34534   0.57808   0.00000  Uiso   1.00
C242   C     0.34413   0.64745   0.50229   0.00000  Uiso   1.00
C243   C     0.63445   0.31422   0.57808   0.00000  Uiso   1.00
C244   C     0.31665   0.63814   0.50244   0.00000  Uiso   1.00
H245   H     0.26420   0.66782   0.20121   0.00000  Uiso   1.00
H246   H     0.23836   0.69818   0.20627   0.00000  Uiso   1.00
H247   H     0.31086   0.76792  -0.08780   0.00000  Uiso   1.00
H248   H     0.33583   0.73677  -0.10187   0.00000  Uiso   1.00
H249   H     0.29028   0.79206  -0.02613   0.00000  Uiso   1.00
H250   H     0.28254   0.83544  -0.04046   0.00000  Uiso   1.00
H251   H     0.25014   0.85866  -0.00472   0.00000  Uiso   1.00
H252   H     0.17652   0.77291   0.16606   0.00000  Uiso   1.00
H253   H     0.20905   0.74977   0.13400   0.00000  Uiso   1.00
H254   H     0.13563   0.83000  -0.12161   0.00000  Uiso   1.00
H255   H     0.16863   0.80767  -0.12524   0.00000  Uiso   1.00
H256   H     0.16787   0.90943   0.00178   0.00000  Uiso   1.00
H257   H     0.13256   0.92976  -0.01334   0.00000  Uiso   1.00
H258   H     0.06064   0.84549   0.18730   0.00000  Uiso   1.00
H259   H     0.09585   0.82534   0.20298   0.00000  Uiso   1.00
H260   H     0.04945   0.88508   0.11922   0.00000  Uiso   1.00
H261   H     0.09537   0.97558  -0.14582   0.00000  Uiso   1.00
H262   H     0.06515   0.00128  -0.16279   0.00000  Uiso   1.00
H263   H     0.99894   0.93453   0.17638   0.00000  Uiso   1.00
H264   H     0.02882   0.90845   0.19000   0.00000  Uiso   1.00
H265   H     0.25969   0.87167   0.40179   0.00000  Uiso   1.00
H266   H     0.14461   0.88094   0.52114   0.00000  Uiso   1.00
H267   H     0.23657   0.81117   0.50202   0.00000  Uiso   1.00
H268   H     0.20352   0.81480   0.59745   0.00000  Uiso   1.00
H269   H     0.20821   0.93461   0.34793   0.00000  Uiso   1.00
H270   H     0.17631   0.94152   0.42898   0.00000  Uiso   1.00
H271   H     0.27471   0.63962   0.04473   0.00000  Uiso   1.00
H272   H     0.97149   0.94725  -0.00172   0.00000  Uiso   1.00
H273   H     0.60081   0.33182   0.77862   0.00000  Uiso   1.00
H274   H     0.57152   0.35884   0.78691   0.00000  Uiso   1.00
H275   H     0.62748   0.41809   0.38443   0.00000  Uiso   1.00
H276   H     0.65720   0.39162   0.37996   0.00000  Uiso   1.00
H277   H     0.59618   0.43081   0.37957   0.00000  Uiso   1.00
H278   H     0.58133   0.46669   0.29993   0.00000  Uiso   1.00
H279   H     0.54950   0.49041   0.33541   0.00000  Uiso   1.00
H280   H     0.50550   0.43312   0.76674   0.00000  Uiso   1.00
H281   H     0.53843   0.41022   0.73753   0.00000  Uiso   1.00
H282   H     0.43556   0.45755   0.43195   0.00000  Uiso   1.00
H283   H     0.47012   0.43703   0.43658   0.00000  Uiso   1.00
H284   H     0.46986   0.54105   0.34001   0.00000  Uiso   1.00
H285   H     0.43694   0.56408   0.34344   0.00000  Uiso   1.00
H286   H     0.38354   0.50289   0.74545   0.00000  Uiso   1.00
H287   H     0.41701   0.48054   0.74461   0.00000  Uiso   1.00
H288   H     0.36939   0.53899   0.63821   0.00000  Uiso   1.00
H289   H     0.41716   0.62549   0.32252   0.00000  Uiso   1.00
H290   H     0.39409   0.65817   0.33104   0.00000  Uiso   1.00
H291   H     0.32456   0.59480   0.66845   0.00000  Uiso   1.00
H292   H     0.34751   0.56193   0.65905   0.00000  Uiso   1.00
H293   H     0.58692   0.53204   0.67661   0.00000  Uiso   1.00
H294   H     0.48174   0.55603   0.86731   0.00000  Uiso   1.00
H295   H     0.57296   0.49416   0.96044   0.00000  Uiso   1.00
H296   H     0.54360   0.50633   1.01621   0.00000  Uiso   1.00
H297   H     0.53159   0.59500   0.56690   0.00000  Uiso   1.00
H298   H     0.50053   0.60385   0.63894   0.00000  Uiso   1.00
H299   H     0.60917   0.30044   0.57808   0.00000  Uiso   1.00
H300   H     0.30020   0.61326   0.50272   0.00000  Uiso   1.00
C301   C     0.30977   0.58440   0.13527   0.00000  Uiso   1.00
C302   C     0.29297   0.55350   0.13912   0.00000  Uiso   1.00
C303   C     0.26528   0.53843   0.06164   0.00000  Uiso   1.00
C304   C     0.25466   0.55486  -0.02367   0.00000  Uiso   1.00
C305   C     0.27171   0.58584  -0.03027   0.00000  Uiso   1.00
C306   C     0.29937   0.60109   0.05058   0.00000  Uiso   1.00
N307   N     0.24918   0.50659   0.07145   0.00000  Uiso   1.00
C308   C     0.22182   0.48881   0.02760   0.00000  Uiso   1.00
C309   C     0.20865   0.45642   0.04719   0.00000  Uiso   1.00
C310   C     0.17858   0.43747   0.00827   0.00000  Uiso   1.00
C311   C     0.16567   0.40677   0.02895   0.00000  Uiso   1.00
C312   C     0.18259   0.39468   0.09114   0.00000  Uiso   1.00
C313   C     0.21286   0.41340   0.12353   0.00000  Uiso   1.00
C314   C     0.22573   0.44407   0.10394   0.00000  Uiso   1.00
C315   C     0.16962   0.36233   0.10533   0.00000  Uiso   1.00
C316   C     0.15121   0.34500   0.23849   0.00000  Uiso   1.00
C317   C     0.13985   0.31460   0.24340   0.00000  Uiso   1.00
C318   C     0.14559   0.29966   0.11382   0.00000  Uiso   1.00
C319   C     0.16443   0.31681  -0.01654   0.00000  Uiso   1.00
C320   C     0.17658   0.34767  -0.01958   0.00000  Uiso   1.00
C321   C     0.13339   0.26738   0.10784   0.00000  Uiso   1.00
C322   C     0.10478   0.24868   0.04516   0.00000  Uiso   1.00
C323   C     0.09364   0.21803   0.03578   0.00000  Uiso   1.00
C324   C     0.11118   0.20578   0.08675   0.00000  Uiso   1.00
C325   C     0.14000   0.22471   0.14633   0.00000  Uiso   1.00
C326   C     0.15110   0.25533   0.15588   0.00000  Uiso   1.00
C327   C     0.10002   0.17353   0.07920   0.00000  Uiso   1.00
N328   N     0.14191   0.35321   0.37690   0.00000  Uiso   1.00
C329   C     0.12528   0.32769   0.46153   0.00000  Uiso   1.00
N330   N     0.12361   0.30374   0.38488   0.00000  Uiso   1.00
N331   N     0.07330   0.15519   0.02737   0.00000  Uiso   1.00
C332   C     0.05973   0.12339   0.02071   0.00000  Uiso   1.00
C333   C     0.03396   0.10750  -0.07435   0.00000  Uiso   1.00
C334   C     0.01956   0.07651  -0.08332   0.00000  Uiso   1.00
C335   C     0.03058   0.06078   0.00498   0.00000  Uiso   1.00
C336   C     0.05623   0.07673   0.10250   0.00000  Uiso   1.00
C337   C     0.07072   0.10771   0.11046   0.00000  Uiso   1.00
C338   C     0.14619   0.38199   0.42898   0.00000  Uiso   1.00
C339   C     0.10703   0.27344   0.44925   0.00000  Uiso   1.00
C340   C     0.17589   0.40023   0.51683   0.00000  Uiso   1.00
C341   C     0.07420   0.25943   0.40499   0.00000  Uiso   1.00
Au342  Au    0.10525   0.32546   0.67673   0.00000  Uiso   1.00
Cl343  Cl    0.08246   0.32313   0.92048   0.00000  Uiso   1.00
C344   C     0.31746   0.63415   0.04627   0.00000  Uiso   1.00
C345   C     0.01489   0.02779  -0.00066   0.00000  Uiso   1.00
C346   C     0.34863   0.64863   0.04565   0.00000  Uiso   1.00
C347   C     0.02747   0.01273  -0.00103   0.00000  Uiso   1.00
C348   C     0.64867   0.25557   0.69117   0.00000  Uiso   1.00
C349   C     0.63399   0.22457   0.69454   0.00000  Uiso   1.00
C350   C     0.61040   0.20776   0.58515   0.00000  Uiso   1.00
C351   C     0.60123   0.22267   0.47324   0.00000  Uiso   1.00
C352   C     0.61577   0.25369   0.47093   0.00000  Uiso   1.00
C353   C     0.63945   0.27040   0.57980   0.00000  Uiso   1.00
N354   N     0.59616   0.17589   0.59458   0.00000  Uiso   1.00
C355   C     0.57647   0.15704   0.49152   0.00000  Uiso   1.00
C356   C     0.56311   0.12470   0.51595   0.00000  Uiso   1.00
C357   C     0.54085   0.10535   0.40602   0.00000  Uiso   1.00
C358   C     0.52774   0.07465   0.42518   0.00000  Uiso   1.00
C359   C     0.53662   0.06270   0.55354   0.00000  Uiso   1.00
C360   C     0.55905   0.08185   0.66305   0.00000  Uiso   1.00
C361   C     0.57198   0.11272   0.64583   0.00000  Uiso   1.00
C362   C     0.52390   0.03027   0.56371   0.00000  Uiso   1.00
C363   C     0.49556   0.01046   0.63064   0.00000  Uiso   1.00
C364   C     0.48441   0.98007   0.63032   0.00000  Uiso   1.00
C365   C     0.50055   0.96759   0.55835   0.00000  Uiso   1.00
C366   C     0.52866   0.98715   0.49029   0.00000  Uiso   1.00
C367   C     0.54013   0.01796   0.49293   0.00000  Uiso   1.00
C368   C     0.48928   0.93547   0.54868   0.00000  Uiso   1.00
C369   C     0.46696   0.91793   0.43426   0.00000  Uiso   1.00
C370   C     0.45442   0.88708   0.43502   0.00000  Uiso   1.00
C371   C     0.46453   0.87347   0.54843   0.00000  Uiso   1.00
C372   C     0.48800   0.89130   0.65671   0.00000  Uiso   1.00
C373   C     0.50035   0.92214   0.65665   0.00000  Uiso   1.00
C374   C     0.45029   0.84087   0.56039   0.00000  Uiso   1.00
N375   N     0.47580   0.01614   0.70973   0.00000  Uiso   1.00
C376   C     0.45354   0.98930   0.75709   0.00000  Uiso   1.00
N377   N     0.45785   0.96677   0.71098   0.00000  Uiso   1.00
N378   N     0.42549   0.82379   0.48278   0.00000  Uiso   1.00
C379   C     0.40815   0.79192   0.49022   0.00000  Uiso   1.00
C380   C     0.38158   0.77791   0.40039   0.00000  Uiso   1.00
C381   C     0.36347   0.74710   0.40478   0.00000  Uiso   1.00
C382   C     0.37162   0.72955   0.49959   0.00000  Uiso   1.00
C383   C     0.39823   0.74355   0.59017   0.00000  Uiso   1.00
C384   C     0.41641   0.77441   0.58551   0.00000  Uiso   1.00
C385   C     0.47777   0.04417   0.75984   0.00000  Uiso   1.00
C386   C     0.43793   0.93583   0.75864   0.00000  Uiso   1.00
C387   C     0.49375   0.05425   0.92592   0.00000  Uiso   1.00
C388   C     0.41074   0.92186   0.64529   0.00000  Uiso   1.00
Au389  Au    0.41935   0.98368   0.89487   0.00000  Uiso   1.00
Cl390  Cl    0.38061   0.97735   1.05162   0.00000  Uiso   1.00
C391   C     0.65466   0.30327   0.57808   0.00000  Uiso   1.00
C392   C     0.35255   0.69668   0.50229   0.00000  Uiso   1.00
C393   C     0.68578   0.32023   0.57808   0.00000  Uiso   1.00
C394   C     0.36186   0.67851   0.50244   0.00000  Uiso   1.00
H395   H     0.33218   0.59638   0.20121   0.00000  Uiso   1.00
H396   H     0.30182   0.54019   0.20627   0.00000  Uiso   1.00
H397   H     0.23208   0.54294  -0.08780   0.00000  Uiso   1.00
H398   H     0.26323   0.59906  -0.10187   0.00000  Uiso   1.00
H399   H     0.20794   0.49822  -0.02613   0.00000  Uiso   1.00
H400   H     0.16456   0.44710  -0.04046   0.00000  Uiso   1.00
H401   H     0.14134   0.39148  -0.00472   0.00000  Uiso   1.00
H402   H     0.22709   0.40361   0.16606   0.00000  Uiso   1.00
H403   H     0.25023   0.45928   0.13400   0.00000  Uiso   1.00
H404   H     0.17000   0.30563  -0.12161   0.00000  Uiso   1.00
H405   H     0.19233   0.36096  -0.12524   0.00000  Uiso   1.00
H406   H     0.09057   0.25844   0.00178   0.00000  Uiso   1.00
H407   H     0.07024   0.20280  -0.01334   0.00000  Uiso   1.00
H408   H     0.15451   0.21515   0.18730   0.00000  Uiso   1.00
H409   H     0.17466   0.27051   0.20298   0.00000  Uiso   1.00
H410   H     0.11492   0.16437   0.11922   0.00000  Uiso   1.00
H411   H     0.02442   0.11979  -0.14582   0.00000  Uiso   1.00
H412   H     0.99872   0.06387  -0.16279   0.00000  Uiso   1.00
H413   H     0.06547   0.06441   0.17638   0.00000  Uiso   1.00
H414   H     0.09155   0.12036   0.19000   0.00000  Uiso   1.00
H415   H     0.12833   0.38802   0.40179   0.00000  Uiso   1.00
H416   H     0.11906   0.26366   0.52114   0.00000  Uiso   1.00
H417   H     0.18883   0.42540   0.50202   0.00000  Uiso   1.00
H418   H     0.18520   0.38872   0.59745   0.00000  Uiso   1.00
H419   H     0.06539   0.27360   0.34793   0.00000  Uiso   1.00
H420   H     0.05848   0.23479   0.42898   0.00000  Uiso   1.00
H421   H     0.36038   0.63509   0.04473   0.00000  Uiso   1.00
H422   H     0.05275   0.02424  -0.00172   0.00000  Uiso   1.00
H423   H     0.66818   0.26899   0.77862   0.00000  Uiso   1.00
H424   H     0.64116   0.21269   0.78691   0.00000  Uiso   1.00
H425   H     0.58191   0.20938   0.38443   0.00000  Uiso   1.00
H426   H     0.60838   0.26558   0.37996   0.00000  Uiso   1.00
H427   H     0.56919   0.16536   0.37957   0.00000  Uiso   1.00
H428   H     0.53331   0.11465   0.29993   0.00000  Uiso   1.00
H429   H     0.50959   0.05909   0.33541   0.00000  Uiso   1.00
H430   H     0.56688   0.07238   0.76674   0.00000  Uiso   1.00
H431   H     0.58978   0.12820   0.73753   0.00000  Uiso   1.00
H432   H     0.54245   0.97801   0.43195   0.00000  Uiso   1.00
H433   H     0.56297   0.03310   0.43658   0.00000  Uiso   1.00
H434   H     0.45895   0.92881   0.34001   0.00000  Uiso   1.00
H435   H     0.43592   0.87286   0.34344   0.00000  Uiso   1.00
H436   H     0.49711   0.88065   0.74545   0.00000  Uiso   1.00
H437   H     0.51946   0.93647   0.74461   0.00000  Uiso   1.00
H438   H     0.46101   0.83040   0.63821   0.00000  Uiso   1.00
H439   H     0.37451   0.79167   0.32252   0.00000  Uiso   1.00
H440   H     0.34183   0.73592   0.33104   0.00000  Uiso   1.00
H441   H     0.40520   0.72975   0.66845   0.00000  Uiso   1.00
H442   H     0.43807   0.78558   0.65905   0.00000  Uiso   1.00
H443   H     0.46796   0.05488   0.67661   0.00000  Uiso   1.00
H444   H     0.44397   0.92571   0.86731   0.00000  Uiso   1.00
H445   H     0.50584   0.07880   0.96044   0.00000  Uiso   1.00
H446   H     0.49367   0.03727   1.01621   0.00000  Uiso   1.00
H447   H     0.40500   0.93660   0.56690   0.00000  Uiso   1.00
H448   H     0.39615   0.89668   0.63894   0.00000  Uiso   1.00
H449   H     0.69956   0.30873   0.57808   0.00000  Uiso   1.00
H450   H     0.38674   0.68694   0.50272   0.00000  Uiso   1.00
loop_
_geom_bond_atom_site_label_1
_geom_bond_atom_site_label_2
_geom_bond_distance
_geom_bond_site_symmetry_2
_ccdc_geom_bond_type
C1     C2      1.394   .     S
C1     C6      1.406   .     D
C1     H95     1.140   .     S
C2     C3      1.395   .     D
C2     H96     1.140   .     S
C3     C4      1.405   .     S
C3     N7      1.436   .     S
C4     C5      1.399   .     D
C4     H97     1.140   .     S
C5     C6      1.406   .     S
C5     H98     1.140   .     S
C6     C44     1.492   .     S
N7     C8      1.299   .     D
C8     C9      1.476   .     S
C8     H99     1.140   .     S
C9     C10     1.405   .     D
C9     C14     1.407   .     S
C10    C11     1.398   .     S
C10    H100    1.140   .     S
C11    C12     1.404   .     D
C11    H101    1.140   .     S
C12    C13     1.400   .     S
C12    C15     1.471   .     S
C13    C14     1.396   .     D
C13    H102    1.140   .     S
C14    H103    1.140   .     S
C15    C16     1.416   .     D
C15    C20     1.411   .     S
C16    C17     1.384   .     S
C16    N28     1.361   .     S
C17    C18     1.415   .     D
C17    N30     1.357   .     S
C18    C19     1.405   .     S
C18    C21     1.469   .     S
C19    C20     1.401   .     D
C19    H104    1.140   .     S
C20    H105    1.140   .     S
C21    C22     1.402   .     D
C21    C26     1.402   .     S
C22    C23     1.399   .     S
C22    H106    1.140   .     S
C23    C24     1.409   .     D
C23    H107    1.140   .     S
C24    C25     1.403   .     S
C24    C27     1.476   .     S
C25    C26     1.398   .     D
C25    H108    1.140   .     S
C26    H109    1.140   .     S
C27    N31     1.299   .     D
C27    H110    1.140   .     S
N28    C29     1.350   .     D
N28    C38     1.460   .     S
C29    N30     1.352   .     S
C29    Au42    1.988   .     S
N30    C39     1.461   .     S
N31    C32     1.438   .     S
C32    C33     1.397   .     D
C32    C37     1.405   .     S
C33    C34     1.399   .     S
C33    H111    1.140   .     S
C34    C35     1.403   .     D
C34    H112    1.140   .     S
C35    C36     1.404   .     S
C35    C45     1.487   .     S
C36    C37     1.398   .     D
C36    H113    1.140   1_565 S
C37    H114    1.140   .     S
C38    C40     1.522   .     D
C38    H115    1.140   .     S
C39    C41     1.526   .     D
C39    H116    1.140   .     S
C40    H117    1.140   .     S
C40    H118    1.140   .     S
C41    H119    1.140   .     S
C41    H120    1.140   .     S
Au42   Cl43    2.256   .     S
C44    C46     1.405   .     S
C44    C346    1.562   .     D
C45    C197    1.245   .     S
C45    C47     1.247   1_565 D
C46    C194    1.562   .     D
C46    H121    1.140   .     S
C47    H122    1.140   .     S
C47    C45     1.247   1_545 D
C47    C345    1.245   1_655 S
C48    C49     1.397   .     S
C48    C53     1.411   .     D
C48    H123    1.140   .     S
C49    C50     1.402   .     D
C49    H124    1.140   .     S
C50    C51     1.415   .     S
C50    N54     1.440   .     S
C51    C52     1.398   .     D
C51    H125    1.140   .     S
C52    C53     1.401   .     S
C52    H126    1.140   .     S
C53    C91     1.482   .     S
N54    C55     1.299   .     D
C55    C56     1.477   .     S
C55    H127    1.140   .     S
C56    C57     1.401   .     D
C56    C61     1.404   .     S
C57    C58     1.396   .     S
C57    H128    1.140   .     S
C58    C59     1.395   .     D
C58    H129    1.140   .     S
C59    C60     1.400   .     S
C59    C62     1.474   .     S
C60    C61     1.403   .     D
C60    H130    1.140   .     S
C61    H131    1.140   .     S
C62    C63     1.415   .     S
C62    C67     1.409   .     D
C63    N75     1.360   .     S
C63    C64     1.385   1_655 D
C64    C65     1.415   .     S
C64    N77     1.360   .     S
C64    C63     1.385   1_455 D
C65    C66     1.408   .     D
C65    C68     1.470   .     S
C66    H132    1.140   .     S
C66    C67     1.403   1_455 S
C67    H133    1.140   .     S
C67    C66     1.403   1_655 S
C68    C69     1.401   .     S
C68    C73     1.400   .     D
C69    C70     1.398   .     D
C69    H134    1.140   .     S
C70    C71     1.406   .     S
C70    H135    1.140   .     S
C71    C72     1.404   .     D
C71    C74     1.475   .     S
C72    C73     1.398   .     S
C72    H136    1.140   .     S
C73    H137    1.140   .     S
C74    N78     1.301   .     D
C74    H138    1.140   .     S
N75    C85     1.465   .     S
N75    C76     1.348   1_655 S
C76    N77     1.350   .     D
C76    Au89    1.987   .     S
C76    N75     1.348   1_455 S
N77    C86     1.463   .     S
N78    C79     1.438   .     S
C79    C80     1.397   .     S
C79    C84     1.410   .     D
C80    C81     1.395   .     D
C80    H139    1.140   .     S
C81    C82     1.406   .     S
C81    H140    1.140   .     S
C82    C83     1.402   .     D
C82    C92     1.487   .     S
C83    C84     1.398   .     S
C83    H141    1.140   .     S
C84    H142    1.140   .     S
C85    C87     1.517   .     D
C85    H143    1.140   .     S
C86    C88     1.525   .     D
C86    H144    1.140   .     S
C87    H145    1.140   .     S
C87    H146    1.140   .     S
C88    H147    1.140   .     S
C88    H148    1.140   .     S
Au89   Cl90    2.254   .     S
C91    C93     1.403   .     S
C91    C393    1.424   .     D
C92    C94     1.259   .     D
C92    C244    1.404   .     S
C93    C241    1.424   .     D
C93    H149    1.140   .     S
C94    C392    1.404   .     S
C94    H150    1.140   .     S
H113   C36     1.140   1_545 S
C151   C152    1.394   .     D
C151   C156    1.406   .     S
C151   H245    1.140   .     S
C152   C153    1.395   .     S
C152   H246    1.140   .     S
C153   C154    1.405   .     D
C153   N157    1.436   .     S
C154   C155    1.399   .     S
C154   H247    1.140   .     S
C155   C156    1.406   .     D
C155   H248    1.140   .     S
C156   C194    1.492   .     S
N157   C158    1.299   .     D
C158   C159    1.476   .     S
C158   H249    1.140   .     S
C159   C160    1.405   .     S
C159   C164    1.407   .     D
C160   C161    1.398   .     D
C160   H250    1.140   .     S
C161   C162    1.404   .     S
C161   H251    1.140   .     S
C162   C163    1.400   .     D
C162   C165    1.471   .     S
C163   C164    1.396   .     S
C163   H252    1.140   .     S
C164   H253    1.140   .     S
C165   C166    1.416   .     S
C165   C170    1.411   .     D
C166   C167    1.384   .     D
C166   N178    1.361   .     S
C167   C168    1.415   .     S
C167   N180    1.357   .     S
C168   C169    1.405   .     D
C168   C171    1.469   .     S
C169   C170    1.401   .     S
C169   H254    1.140   .     S
C170   H255    1.140   .     S
C171   C172    1.402   .     S
C171   C176    1.402   .     D
C172   C173    1.399   .     D
C172   H256    1.140   .     S
C173   C174    1.409   .     S
C173   H257    1.140   .     S
C174   C175    1.403   .     D
C174   C177    1.476   .     S
C175   C176    1.398   .     S
C175   H258    1.140   .     S
C176   H259    1.140   .     S
C177   N181    1.299   .     D
C177   H260    1.140   .     S
N178   C179    1.350   .     D
N178   C188    1.460   .     S
C179   N180    1.352   .     S
C179   Au192   1.988   .     S
N180   C189    1.461   .     S
N181   C182    1.438   .     S
C182   C183    1.397   .     S
C182   C187    1.405   .     D
C183   C184    1.399   .     D
C183   H261    1.140   .     S
C184   C185    1.403   .     S
C184   H262    1.140   1_565 S
C185   C186    1.404   .     D
C185   C195    1.487   .     S
C186   C187    1.398   .     S
C186   H263    1.140   1_455 S
C187   H264    1.140   .     S
C188   C190    1.522   .     D
C188   H265    1.140   .     S
C189   C191    1.526   .     D
C189   H266    1.140   .     S
C190   H267    1.140   .     S
C190   H268    1.140   .     S
C191   H269    1.140   .     S
C191   H270    1.140   .     S
Au192  Cl193   2.256   .     S
C194   C196    1.405   .     S
C195   C197    1.247   1_455 D
C195   C347    1.245   1_565 S
C196   C344    1.562   .     D
C196   H271    1.140   .     S
C197   H272    1.140   .     S
C197   C195    1.247   1_655 D
C198   C199    1.397   .     S
C198   C203    1.411   .     D
C198   H273    1.140   .     S
C199   C200    1.402   .     D
C199   H274    1.140   .     S
C200   C201    1.415   .     S
C200   N204    1.440   .     S
C201   C202    1.398   .     D
C201   H275    1.140   .     S
C202   C203    1.401   .     S
C202   H276    1.140   .     S
C203   C241    1.482   .     S
N204   C205    1.299   .     D
C205   C206    1.477   .     S
C205   H277    1.140   .     S
C206   C207    1.401   .     D
C206   C211    1.404   .     S
C207   C208    1.396   .     S
C207   H278    1.140   .     S
C208   C209    1.395   .     D
C208   H279    1.140   .     S
C209   C210    1.400   .     S
C209   C212    1.474   .     S
C210   C211    1.403   .     D
C210   H280    1.140   .     S
C211   H281    1.140   .     S
C212   C213    1.415   .     D
C212   C217    1.409   .     S
C213   C214    1.385   .     S
C213   N225    1.360   .     S
C214   C215    1.415   .     D
C214   N227    1.360   .     S
C215   C216    1.408   .     S
C215   C218    1.470   .     S
C216   C217    1.403   .     D
C216   H282    1.140   .     S
C217   H283    1.140   .     S
C218   C219    1.401   .     D
C218   C223    1.400   .     S
C219   C220    1.398   .     S
C219   H284    1.140   .     S
C220   C221    1.406   .     D
C220   H285    1.140   .     S
C221   C222    1.404   .     S
C221   C224    1.475   .     S
C222   C223    1.398   .     D
C222   H286    1.140   .     S
C223   H287    1.140   .     S
C224   N228    1.301   .     D
C224   H288    1.140   .     S
N225   C226    1.348   .     D
N225   C235    1.465   .     S
C226   N227    1.350   .     S
C226   Au239   1.987   .     S
N227   C236    1.463   .     S
N228   C229    1.438   .     S
C229   C230    1.397   .     D
C229   C234    1.410   .     S
C230   C231    1.395   .     S
C230   H289    1.140   .     S
C231   C232    1.406   .     D
C231   H290    1.140   .     S
C232   C233    1.402   .     S
C232   C242    1.487   .     S
C233   C234    1.398   .     D
C233   H291    1.140   .     S
C234   H292    1.140   .     S
C235   C237    1.517   .     D
C235   H293    1.140   .     S
C236   C238    1.525   .     D
C236   H294    1.140   .     S
C237   H295    1.140   .     S
C237   H296    1.140   .     S
C238   H297    1.140   .     S
C238   H298    1.140   .     S
Au239  Cl240   2.254   .     S
C241   C243    1.403   .     S
C242   C244    1.259   .     D
C242   C394    1.404   .     S
C243   C391    1.424   .     D
C243   H299    1.140   .     S
C244   H300    1.140   .     S
H262   C184    1.140   1_545 S
H263   C186    1.140   1_655 S
C301   C302    1.394   .     S
C301   C306    1.406   .     D
C301   H395    1.140   .     S
C302   C303    1.395   .     D
C302   H396    1.140   .     S
C303   C304    1.405   .     S
C303   N307    1.436   .     S
C304   C305    1.399   .     D
C304   H397    1.140   .     S
C305   C306    1.406   .     S
C305   H398    1.140   .     S
C306   C344    1.492   .     S
N307   C308    1.299   .     D
C308   C309    1.476   .     S
C308   H399    1.140   .     S
C309   C310    1.405   .     D
C309   C314    1.407   .     S
C310   C311    1.398   .     S
C310   H400    1.140   .     S
C311   C312    1.404   .     D
C311   H401    1.140   .     S
C312   C313    1.400   .     S
C312   C315    1.471   .     S
C313   C314    1.396   .     D
C313   H402    1.140   .     S
C314   H403    1.140   .     S
C315   C316    1.416   .     D
C315   C320    1.411   .     S
C316   C317    1.384   .     S
C316   N328    1.361   .     S
C317   C318    1.415   .     D
C317   N330    1.357   .     S
C318   C319    1.405   .     S
C318   C321    1.469   .     S
C319   C320    1.401   .     D
C319   H404    1.140   .     S
C320   H405    1.140   .     S
C321   C322    1.402   .     D
C321   C326    1.402   .     S
C322   C323    1.399   .     S
C322   H406    1.140   .     S
C323   C324    1.409   .     D
C323   H407    1.140   .     S
C324   C325    1.403   .     S
C324   C327    1.476   .     S
C325   C326    1.398   .     D
C325   H408    1.140   .     S
C326   H409    1.140   .     S
C327   N331    1.299   .     D
C327   H410    1.140   .     S
N328   C329    1.350   .     D
N328   C338    1.460   .     S
C329   N330    1.352   .     S
C329   Au342   1.988   .     S
N330   C339    1.461   .     S
N331   C332    1.438   .     S
C332   C333    1.397   .     D
C332   C337    1.405   .     S
C333   C334    1.399   .     S
C333   H411    1.140   .     S
C334   C335    1.403   .     D
C334   H412    1.140   1_455 S
C335   C336    1.404   .     S
C335   C345    1.487   .     S
C336   C337    1.398   .     D
C336   H413    1.140   .     S
C337   H414    1.140   .     S
C338   C340    1.522   .     D
C338   H415    1.140   .     S
C339   C341    1.526   .     D
C339   H416    1.140   .     S
C340   H417    1.140   .     S
C340   H418    1.140   .     S
C341   H419    1.140   .     S
C341   H420    1.140   .     S
Au342  Cl343   2.256   .     S
C344   C346    1.405   .     S
C345   C347    1.247   .     D
C345   C47     1.245   1_455 S
C346   H421    1.140   .     S
C347   H422    1.140   .     S
C347   C195    1.245   1_545 S
C348   C349    1.397   .     S
C348   C353    1.411   .     D
C348   H423    1.140   .     S
C349   C350    1.402   .     D
C349   H424    1.140   .     S
C350   C351    1.415   .     S
C350   N354    1.440   .     S
C351   C352    1.398   .     D
C351   H425    1.140   .     S
C352   C353    1.401   .     S
C352   H426    1.140   .     S
C353   C391    1.482   .     S
N354   C355    1.299   .     D
C355   C356    1.477   .     S
C355   H427    1.140   .     S
C356   C357    1.401   .     D
C356   C361    1.404   .     S
C357   C358    1.396   .     S
C357   H428    1.140   .     S
C358   C359    1.395   .     D
C358   H429    1.140   .     S
C359   C360    1.400   .     S
C359   C362    1.474   .     S
C360   C361    1.403   .     D
C360   H430    1.140   .     S
C361   H431    1.140   .     S
C362   C363    1.415   .     D
C362   C367    1.409   .     S
C363   N375    1.360   .     S
C363   C364    1.385   1_545 S
C364   C365    1.415   .     D
C364   N377    1.360   .     S
C364   C363    1.385   1_565 S
C365   C366    1.408   .     S
C365   C368    1.470   .     S
C366   H432    1.140   .     S
C366   C367    1.403   1_565 D
C367   H433    1.140   .     S
C367   C366    1.403   1_545 D
C368   C369    1.401   .     D
C368   C373    1.400   .     S
C369   C370    1.398   .     S
C369   H434    1.140   .     S
C370   C371    1.406   .     D
C370   H435    1.140   .     S
C371   C372    1.404   .     S
C371   C374    1.475   .     S
C372   C373    1.398   .     D
C372   H436    1.140   .     S
C373   H437    1.140   .     S
C374   N378    1.301   .     D
C374   H438    1.140   .     S
N375   C385    1.465   .     S
N375   C376    1.348   1_545 S
C376   N377    1.350   .     D
C376   Au389   1.987   .     S
C376   N375    1.348   1_565 S
N377   C386    1.463   .     S
N378   C379    1.438   .     S
C379   C380    1.397   .     D
C379   C384    1.410   .     S
C380   C381    1.395   .     S
C380   H439    1.140   .     S
C381   C382    1.406   .     D
C381   H440    1.140   .     S
C382   C383    1.402   .     S
C382   C392    1.487   .     S
C383   C384    1.398   .     D
C383   H441    1.140   .     S
C384   H442    1.140   .     S
C385   C387    1.517   .     D
C385   H443    1.140   .     S
C386   C388    1.525   .     D
C386   H444    1.140   .     S
C387   H445    1.140   .     S
C387   H446    1.140   .     S
C388   H447    1.140   .     S
C388   H448    1.140   .     S
Au389  Cl390   2.254   .     S
C391   C393    1.403   .     S
C392   C394    1.259   .     D
C393   H449    1.140   .     S
C394   H450    1.140   .     S
H412   C334    1.140   1_655 S
