data_1214
_audit_creation_date              2023-09-08
_audit_creation_method            'Materials Studio'
_symmetry_space_group_name_H-M    'P1'
_symmetry_Int_Tables_number       1
_symmetry_cell_setting            triclinic
loop_
_symmetry_equiv_pos_as_xyz
  x,y,z
_cell_length_a                    52.0237
_cell_length_b                    52.0237
_cell_length_c                    10.3049
_cell_angle_alpha                 90.0000
_cell_angle_beta                  90.0000
_cell_angle_gamma                 120.0000
loop_
_atom_site_label
_atom_site_type_symbol
_atom_site_fract_x
_atom_site_fract_y
_atom_site_fract_z
_atom_site_U_iso_or_equiv
_atom_site_adp_type
_atom_site_occupancy
C1     C     0.92195   0.93958   0.85729   0.00000  Uiso   1.00
C2     C     0.89113   0.92375   0.87149   0.00000  Uiso   1.00
C3     C     0.87333   0.93315   0.80963   0.00000  Uiso   1.00
C4     C     0.88695   0.95860   0.73019   0.00000  Uiso   1.00
C5     C     0.91779   0.97432   0.71503   0.00000  Uiso   1.00
C6     C     0.93573   0.96523   0.77961   0.00000  Uiso   1.00
N7     N     0.84190   0.91687   0.83441   0.00000  Uiso   1.00
C8     C     0.82162   0.91987   0.77411   0.00000  Uiso   1.00
C9     C     0.79003   0.90183   0.81059   0.00000  Uiso   1.00
C10    C     0.76874   0.90431   0.73708   0.00000  Uiso   1.00
C11    C     0.73855   0.88674   0.76492   0.00000  Uiso   1.00
C12    C     0.72925   0.86771   0.87229   0.00000  Uiso   1.00
C13    C     0.75047   0.86493   0.94580   0.00000  Uiso   1.00
C14    C     0.78067   0.88194   0.91568   0.00000  Uiso   1.00
C15    C     0.69731   0.84784   0.89706   0.00000  Uiso   1.00
C16    C     0.67713   0.85717   0.93661   0.00000  Uiso   1.00
C17    C     0.64736   0.83730   0.94914   0.00000  Uiso   1.00
C18    C     0.63520   0.80699   0.91546   0.00000  Uiso   1.00
C19    C     0.65526   0.79730   0.88307   0.00000  Uiso   1.00
C20    C     0.68577   0.81732   0.87555   0.00000  Uiso   1.00
C21    C     0.60308   0.78616   0.89652   0.00000  Uiso   1.00
C22    C     0.58587   0.79479   0.82376   0.00000  Uiso   1.00
C23    C     0.55530   0.77581   0.81104   0.00000  Uiso   1.00
C24    C     0.54165   0.74733   0.86668   0.00000  Uiso   1.00
C25    C     0.55931   0.73772   0.92904   0.00000  Uiso   1.00
C26    C     0.58973   0.75708   0.94523   0.00000  Uiso   1.00
C27    C     0.50909   0.72796   0.86631   0.00000  Uiso   1.00
N28    N     0.68204   0.88429   0.97375   0.00000  Uiso   1.00
C29    C     0.65518   0.88158   1.01126   0.00000  Uiso   1.00
N30    N     0.63389   0.85176   0.99858   0.00000  Uiso   1.00
N31    N     0.49204   0.73817   0.82887   0.00000  Uiso   1.00
C32    C     0.46016   0.72269   0.83209   0.00000  Uiso   1.00
C33    C     0.44558   0.73473   0.76274   0.00000  Uiso   1.00
C34    C     0.41465   0.72103   0.76400   0.00000  Uiso   1.00
C35    C     0.39758   0.69507   0.83687   0.00000  Uiso   1.00
C36    C     0.41228   0.68323   0.90846   0.00000  Uiso   1.00
C37    C     0.44324   0.69688   0.90653   0.00000  Uiso   1.00
C38    C     0.70968   0.91302   0.97639   0.00000  Uiso   1.00
C39    C     0.60487   0.83913   1.06346   0.00000  Uiso   1.00
C40    C     0.72915   0.91511   1.09083   0.00000  Uiso   1.00
C41    C     0.58575   0.85058   1.00266   0.00000  Uiso   1.00
Au42   Au    0.64516   0.90619   0.89276   0.00000  Uiso   1.00
Cl43   Cl    0.63385   0.93362   0.75957   0.00000  Uiso   1.00
C44    C     0.96868   0.98302   0.77064   0.00000  Uiso   1.00
C45    C     0.36462   0.68050   0.83857   0.00000  Uiso   1.00
C46    C     0.35060   0.69763   0.83876   0.00000  Uiso   1.00
C47    C     0.98320   0.01420   0.76995   0.00000  Uiso   1.00
C48    C     0.41188   0.72740   0.41036   0.00000  Uiso   1.00
C49    C     0.44280   0.74352   0.41959   0.00000  Uiso   1.00
C50    C     0.46025   0.73405   0.35501   0.00000  Uiso   1.00
C51    C     0.44615   0.70811   0.27880   0.00000  Uiso   1.00
C52    C     0.41521   0.69212   0.26857   0.00000  Uiso   1.00
C53    C     0.39765   0.70139   0.33514   0.00000  Uiso   1.00
N54    N     0.49188   0.75079   0.37356   0.00000  Uiso   1.00
C55    C     0.51168   0.74824   0.30687   0.00000  Uiso   1.00
C56    C     0.54360   0.76659   0.33703   0.00000  Uiso   1.00
C57    C     0.56421   0.76420   0.25808   0.00000  Uiso   1.00
C58    C     0.59462   0.78183   0.28083   0.00000  Uiso   1.00
C59    C     0.60490   0.80107   0.38742   0.00000  Uiso   1.00
C60    C     0.58437   0.80388   0.46587   0.00000  Uiso   1.00
C61    C     0.55391   0.78665   0.44152   0.00000  Uiso   1.00
C62    C     0.63705   0.82097   0.40660   0.00000  Uiso   1.00
C63    C     0.65749   0.81160   0.44048   0.00000  Uiso   1.00
C64    C     0.68739   0.83130   0.44643   0.00000  Uiso   1.00
C65    C     0.69935   0.86146   0.41049   0.00000  Uiso   1.00
C66    C     0.67909   0.87128   0.38459   0.00000  Uiso   1.00
C67    C     0.64849   0.85145   0.38456   0.00000  Uiso   1.00
C68    C     0.73120   0.88189   0.38318   0.00000  Uiso   1.00
C69    C     0.74733   0.87248   0.30706   0.00000  Uiso   1.00
C70    C     0.77772   0.89117   0.28668   0.00000  Uiso   1.00
C71    C     0.79221   0.92010   0.33782   0.00000  Uiso   1.00
C72    C     0.77553   0.93036   0.40386   0.00000  Uiso   1.00
C73    C     0.74534   0.91135   0.42751   0.00000  Uiso   1.00
C74    C     0.82471   0.93936   0.32904   0.00000  Uiso   1.00
N75    N     0.65275   0.78459   0.47834   0.00000  Uiso   1.00
C76    C     0.67989   0.78721   0.50988   0.00000  Uiso   1.00
N77    N     0.70120   0.81691   0.49284   0.00000  Uiso   1.00
N78    N     0.84128   0.92880   0.28919   0.00000  Uiso   1.00
C79    C     0.87318   0.94436   0.28580   0.00000  Uiso   1.00
C80    C     0.88712   0.93194   0.21437   0.00000  Uiso   1.00
C81    C     0.91805   0.94564   0.21039   0.00000  Uiso   1.00
C82    C     0.93578   0.97198   0.27989   0.00000  Uiso   1.00
C83    C     0.92172   0.98422   0.35332   0.00000  Uiso   1.00
C84    C     0.89077   0.97059   0.35662   0.00000  Uiso   1.00
C85    C     0.62492   0.75611   0.48663   0.00000  Uiso   1.00
C86    C     0.73082   0.82973   0.55223   0.00000  Uiso   1.00
C87    C     0.60609   0.75542   0.60150   0.00000  Uiso   1.00
C88    C     0.74914   0.81771   0.48838   0.00000  Uiso   1.00
Au89   Au    0.68827   0.76178   0.38902   0.00000  Uiso   1.00
Cl90   Cl    0.69774   0.73342   0.25318   0.00000  Uiso   1.00
C91    C     0.36466   0.68360   0.32935   0.00000  Uiso   1.00
C92    C     0.96873   0.98636   0.27776   0.00000  Uiso   1.00
C93    C     0.98255   0.96905   0.27761   0.00000  Uiso   1.00
C94    C     0.35009   0.65242   0.32890   0.00000  Uiso   1.00
H95    H     0.93619   0.93175   0.90891   0.00000  Uiso   1.00
H96    H     0.88020   0.90290   0.93410   0.00000  Uiso   1.00
H97    H     0.87281   0.96646   0.67791   0.00000  Uiso   1.00
H98    H     0.92865   0.99474   0.64978   0.00000  Uiso   1.00
H99    H     0.82811   0.93662   0.69173   0.00000  Uiso   1.00
H100   H     0.77598   0.92082   0.65340   0.00000  Uiso   1.00
H101   H     0.72138   0.88786   0.70012   0.00000  Uiso   1.00
H102   H     0.74313   0.84873   1.03068   0.00000  Uiso   1.00
H103   H     0.79770   0.87964   0.97660   0.00000  Uiso   1.00
H104   H     0.64672   0.77281   0.86249   0.00000  Uiso   1.00
H105   H     0.70174   0.80898   0.85164   0.00000  Uiso   1.00
H106   H     0.59682   0.81744   0.77448   0.00000  Uiso   1.00
H107   H     0.54133   0.78340   0.75539   0.00000  Uiso   1.00
H108   H     0.54887   0.71400   0.96686   0.00000  Uiso   1.00
H109   H     0.60385   0.74930   0.99823   0.00000  Uiso   1.00
H110   H     0.49874   0.70387   0.89901   0.00000  Uiso   1.00
H111   H     0.45895   0.75597   0.70426   0.00000  Uiso   1.00
H112   H     0.40304   0.73089   0.70563   0.00000  Uiso   1.00
H113   H     0.39894   0.66229   0.96887   0.00000  Uiso   1.00
H114   H     0.45489   0.68712   0.96535   0.00000  Uiso   1.00
H115   H     0.71415   0.93031   0.89840   0.00000  Uiso   1.00
H116   H     0.59933   0.82300   1.14772   0.00000  Uiso   1.00
H117   H     0.74812   0.91038   1.07635   0.00000  Uiso   1.00
H118   H     0.72476   0.92141   1.19099   0.00000  Uiso   1.00
H119   H     0.57077   0.83841   0.91669   0.00000  Uiso   1.00
H120   H     0.58645   0.87131   1.04322   0.00000  Uiso   1.00
H121   H     0.66404   0.94871   0.75957   0.00000  Uiso   1.00
H122   H     0.36449   0.72289   0.83907   0.00000  Uiso   1.00
H123   H     0.96969   0.02597   0.76881   0.00000  Uiso   1.00
H124   H     0.39793   0.73529   0.46409   0.00000  Uiso   1.00
H125   H     0.45410   0.76466   0.48028   0.00000  Uiso   1.00
H126   H     0.45998   0.70007   0.22511   0.00000  Uiso   1.00
H127   H     0.40395   0.67132   0.20574   0.00000  Uiso   1.00
H128   H     0.50451   0.73164   0.22359   0.00000  Uiso   1.00
H129   H     0.55621   0.74772   0.17414   0.00000  Uiso   1.00
H130   H     0.61120   0.78059   0.21246   0.00000  Uiso   1.00
H131   H     0.59249   0.82029   0.55008   0.00000  Uiso   1.00
H132   H     0.53738   0.78886   0.50648   0.00000  Uiso   1.00
H133   H     0.68755   0.89572   0.36321   0.00000  Uiso   1.00
H134   H     0.63239   0.85993   0.36647   0.00000  Uiso   1.00
H135   H     0.73564   0.84944   0.26135   0.00000  Uiso   1.00
H136   H     0.79085   0.88298   0.22842   0.00000  Uiso   1.00
H137   H     0.78659   0.95436   0.43864   0.00000  Uiso   1.00
H138   H     0.73203   0.91973   0.48311   0.00000  Uiso   1.00
H139   H     0.83551   0.96377   0.35737   0.00000  Uiso   1.00
H140   H     0.87323   0.91040   0.15852   0.00000  Uiso   1.00
H141   H     0.92914   0.93547   0.15041   0.00000  Uiso   1.00
H142   H     0.93558   0.00549   0.41101   0.00000  Uiso   1.00
H143   H     0.87967   0.98071   0.41682   0.00000  Uiso   1.00
H144   H     0.61983   0.73798   0.41214   0.00000  Uiso   1.00
H145   H     0.73729   0.84638   0.63502   0.00000  Uiso   1.00
H146   H     0.58138   0.73839   0.60439   0.00000  Uiso   1.00
H147   H     0.61673   0.77193   0.68446   0.00000  Uiso   1.00
H148   H     0.73772   0.79667   0.42708   0.00000  Uiso   1.00
H149   H     0.77424   0.82977   0.50197   0.00000  Uiso   1.00
H150   H     0.72793   0.74851   0.25318   0.00000  Uiso   1.00
H151   H     0.96851   0.94380   0.27736   0.00000  Uiso   1.00
H152   H     0.36356   0.64061   0.32816   0.00000  Uiso   1.00
C153   C     0.06042   0.98237   0.85729   0.00000  Uiso   1.00
C154   C     0.07625   0.96738   0.87149   0.00000  Uiso   1.00
C155   C     0.06685   0.94018   0.80963   0.00000  Uiso   1.00
C156   C     0.04140   0.92835   0.73019   0.00000  Uiso   1.00
C157   C     0.02568   0.94347   0.71503   0.00000  Uiso   1.00
C158   C     0.03477   0.97050   0.77961   0.00000  Uiso   1.00
N159   N     0.08313   0.92503   0.83441   0.00000  Uiso   1.00
C160   C     0.08013   0.90175   0.77411   0.00000  Uiso   1.00
C161   C     0.09817   0.88820   0.81059   0.00000  Uiso   1.00
C162   C     0.09569   0.86443   0.73708   0.00000  Uiso   1.00
C163   C     0.11326   0.85181   0.76492   0.00000  Uiso   1.00
C164   C     0.13229   0.86154   0.87229   0.00000  Uiso   1.00
C165   C     0.13507   0.88554   0.94580   0.00000  Uiso   1.00
C166   C     0.11806   0.89873   0.91568   0.00000  Uiso   1.00
C167   C     0.15216   0.84947   0.89706   0.00000  Uiso   1.00
C168   C     0.14283   0.81996   0.93661   0.00000  Uiso   1.00
C169   C     0.16270   0.81006   0.94914   0.00000  Uiso   1.00
C170   C     0.19301   0.82821   0.91546   0.00000  Uiso   1.00
C171   C     0.20270   0.85796   0.88307   0.00000  Uiso   1.00
C172   C     0.18268   0.86845   0.87555   0.00000  Uiso   1.00
C173   C     0.21384   0.81692   0.89652   0.00000  Uiso   1.00
C174   C     0.20521   0.79108   0.82376   0.00000  Uiso   1.00
C175   C     0.22419   0.77949   0.81104   0.00000  Uiso   1.00
C176   C     0.25267   0.79432   0.86668   0.00000  Uiso   1.00
C177   C     0.26228   0.82159   0.92904   0.00000  Uiso   1.00
C178   C     0.24292   0.83265   0.94523   0.00000  Uiso   1.00
C179   C     0.27204   0.78113   0.86631   0.00000  Uiso   1.00
N180   N     0.11571   0.79775   0.97375   0.00000  Uiso   1.00
C181   C     0.11842   0.77360   1.01126   0.00000  Uiso   1.00
N182   N     0.14824   0.78213   0.99858   0.00000  Uiso   1.00
N183   N     0.26183   0.75387   0.82887   0.00000  Uiso   1.00
C184   C     0.27731   0.73747   0.83209   0.00000  Uiso   1.00
C185   C     0.26527   0.71085   0.76274   0.00000  Uiso   1.00
C186   C     0.27897   0.69362   0.76400   0.00000  Uiso   1.00
C187   C     0.30493   0.70251   0.83687   0.00000  Uiso   1.00
C188   C     0.31677   0.72905   0.90846   0.00000  Uiso   1.00
C189   C     0.30312   0.74636   0.90653   0.00000  Uiso   1.00
C190   C     0.08698   0.79666   0.97639   0.00000  Uiso   1.00
C191   C     0.16087   0.76574   1.06346   0.00000  Uiso   1.00
C192   C     0.08489   0.81404   1.09083   0.00000  Uiso   1.00
C193   C     0.14942   0.73517   1.00266   0.00000  Uiso   1.00
Au194  Au    0.09381   0.73897   0.89276   0.00000  Uiso   1.00
Cl195  Cl    0.06638   0.70023   0.75957   0.00000  Uiso   1.00
C196   C     0.01698   0.98566   0.77064   0.00000  Uiso   1.00
C197   C     0.31950   0.68412   0.83857   0.00000  Uiso   1.00
C198   C     0.30237   0.65297   0.83876   0.00000  Uiso   1.00
C199   C     0.98580   0.96900   0.76995   0.00000  Uiso   1.00
C200   C     0.27260   0.68448   0.41036   0.00000  Uiso   1.00
C201   C     0.25648   0.69928   0.41959   0.00000  Uiso   1.00
C202   C     0.26595   0.72620   0.35501   0.00000  Uiso   1.00
C203   C     0.29189   0.73804   0.27880   0.00000  Uiso   1.00
C204   C     0.30788   0.72309   0.26857   0.00000  Uiso   1.00
C205   C     0.29861   0.69626   0.33514   0.00000  Uiso   1.00
N206   N     0.24921   0.74109   0.37356   0.00000  Uiso   1.00
C207   C     0.25176   0.76344   0.30687   0.00000  Uiso   1.00
C208   C     0.23341   0.77701   0.33703   0.00000  Uiso   1.00
C209   C     0.23580   0.80001   0.25808   0.00000  Uiso   1.00
C210   C     0.21817   0.81279   0.28083   0.00000  Uiso   1.00
C211   C     0.19893   0.80383   0.38742   0.00000  Uiso   1.00
C212   C     0.19612   0.78049   0.46587   0.00000  Uiso   1.00
C213   C     0.21335   0.76726   0.44152   0.00000  Uiso   1.00
C214   C     0.17903   0.81608   0.40660   0.00000  Uiso   1.00
C215   C     0.18840   0.84589   0.44048   0.00000  Uiso   1.00
C216   C     0.16870   0.85609   0.44643   0.00000  Uiso   1.00
C217   C     0.13854   0.83789   0.41049   0.00000  Uiso   1.00
C218   C     0.12872   0.80781   0.38459   0.00000  Uiso   1.00
C219   C     0.14855   0.79704   0.38456   0.00000  Uiso   1.00
C220   C     0.11811   0.84931   0.38318   0.00000  Uiso   1.00
C221   C     0.12752   0.87485   0.30706   0.00000  Uiso   1.00
C222   C     0.10883   0.88655   0.28668   0.00000  Uiso   1.00
C223   C     0.07990   0.87211   0.33782   0.00000  Uiso   1.00
C224   C     0.06964   0.84517   0.40386   0.00000  Uiso   1.00
C225   C     0.08865   0.83399   0.42751   0.00000  Uiso   1.00
C226   C     0.06064   0.88535   0.32904   0.00000  Uiso   1.00
N227   N     0.21541   0.86816   0.47834   0.00000  Uiso   1.00
C228   C     0.21279   0.89268   0.50988   0.00000  Uiso   1.00
N229   N     0.18309   0.88429   0.49284   0.00000  Uiso   1.00
N230   N     0.07120   0.91248   0.28919   0.00000  Uiso   1.00
C231   C     0.05564   0.92882   0.28580   0.00000  Uiso   1.00
C232   C     0.06806   0.95518   0.21437   0.00000  Uiso   1.00
C233   C     0.05436   0.97241   0.21039   0.00000  Uiso   1.00
C234   C     0.02802   0.96380   0.27989   0.00000  Uiso   1.00
C235   C     0.01578   0.93750   0.35332   0.00000  Uiso   1.00
C236   C     0.02941   0.92018   0.35662   0.00000  Uiso   1.00
C237   C     0.24389   0.86881   0.48663   0.00000  Uiso   1.00
C238   C     0.17027   0.90109   0.55223   0.00000  Uiso   1.00
C239   C     0.24458   0.85067   0.60150   0.00000  Uiso   1.00
C240   C     0.18229   0.93143   0.48838   0.00000  Uiso   1.00
Au241  Au    0.23822   0.92649   0.38902   0.00000  Uiso   1.00
Cl242  Cl    0.26658   0.96432   0.25318   0.00000  Uiso   1.00
C243   C     0.31640   0.68106   0.32935   0.00000  Uiso   1.00
C244   C     0.01364   0.98237   0.27776   0.00000  Uiso   1.00
C245   C     0.03095   0.01350   0.27761   0.00000  Uiso   1.00
C246   C     0.34758   0.69767   0.32890   0.00000  Uiso   1.00
H247   H     0.06825   0.00444   0.90891   0.00000  Uiso   1.00
H248   H     0.09710   0.97730   0.93410   0.00000  Uiso   1.00
H249   H     0.03354   0.90635   0.67791   0.00000  Uiso   1.00
H250   H     0.00526   0.93391   0.64978   0.00000  Uiso   1.00
H251   H     0.06338   0.89149   0.69173   0.00000  Uiso   1.00
H252   H     0.07918   0.85516   0.65340   0.00000  Uiso   1.00
H253   H     0.11214   0.83352   0.70012   0.00000  Uiso   1.00
H254   H     0.15127   0.89440   1.03068   0.00000  Uiso   1.00
H255   H     0.12036   0.91806   0.97660   0.00000  Uiso   1.00
H256   H     0.22719   0.87391   0.86249   0.00000  Uiso   1.00
H257   H     0.19102   0.89276   0.85164   0.00000  Uiso   1.00
H258   H     0.18256   0.77938   0.77448   0.00000  Uiso   1.00
H259   H     0.21660   0.75793   0.75539   0.00000  Uiso   1.00
H260   H     0.28600   0.83487   0.96686   0.00000  Uiso   1.00
H261   H     0.25070   0.85456   0.99823   0.00000  Uiso   1.00
H262   H     0.29613   0.79487   0.89901   0.00000  Uiso   1.00
H263   H     0.24403   0.70298   0.70426   0.00000  Uiso   1.00
H264   H     0.26911   0.67215   0.70563   0.00000  Uiso   1.00
H265   H     0.33771   0.73664   0.96887   0.00000  Uiso   1.00
H266   H     0.31288   0.76776   0.96535   0.00000  Uiso   1.00
H267   H     0.06969   0.78384   0.89840   0.00000  Uiso   1.00
H268   H     0.17700   0.77633   1.14772   0.00000  Uiso   1.00
H269   H     0.08962   0.83774   1.07635   0.00000  Uiso   1.00
H270   H     0.07859   0.80335   1.19099   0.00000  Uiso   1.00
H271   H     0.16159   0.73237   0.91669   0.00000  Uiso   1.00
H272   H     0.12869   0.71514   1.04322   0.00000  Uiso   1.00
H273   H     0.05129   0.71532   0.75957   0.00000  Uiso   1.00
H274   H     0.27711   0.64160   0.83907   0.00000  Uiso   1.00
H275   H     0.97403   0.94372   0.76881   0.00000  Uiso   1.00
H276   H     0.26471   0.66264   0.46409   0.00000  Uiso   1.00
H277   H     0.23534   0.68944   0.48028   0.00000  Uiso   1.00
H278   H     0.29993   0.75991   0.22511   0.00000  Uiso   1.00
H279   H     0.32868   0.73263   0.20574   0.00000  Uiso   1.00
H280   H     0.26836   0.77288   0.22359   0.00000  Uiso   1.00
H281   H     0.25228   0.80849   0.17414   0.00000  Uiso   1.00
H282   H     0.21941   0.83060   0.21246   0.00000  Uiso   1.00
H283   H     0.17971   0.77220   0.55008   0.00000  Uiso   1.00
H284   H     0.21114   0.74852   0.50648   0.00000  Uiso   1.00
H285   H     0.10428   0.79183   0.36321   0.00000  Uiso   1.00
H286   H     0.14007   0.77247   0.36647   0.00000  Uiso   1.00
H287   H     0.15056   0.88620   0.26135   0.00000  Uiso   1.00
H288   H     0.11702   0.90787   0.22842   0.00000  Uiso   1.00
H289   H     0.04564   0.83224   0.43864   0.00000  Uiso   1.00
H290   H     0.08027   0.81230   0.48311   0.00000  Uiso   1.00
H291   H     0.03623   0.87175   0.35737   0.00000  Uiso   1.00
H292   H     0.08960   0.96283   0.15852   0.00000  Uiso   1.00
H293   H     0.06453   0.99366   0.15041   0.00000  Uiso   1.00
H294   H     0.99451   0.93010   0.41101   0.00000  Uiso   1.00
H295   H     0.01929   0.89896   0.41682   0.00000  Uiso   1.00
H296   H     0.26202   0.88185   0.41214   0.00000  Uiso   1.00
H297   H     0.15362   0.89091   0.63502   0.00000  Uiso   1.00
H298   H     0.26161   0.84298   0.60439   0.00000  Uiso   1.00
H299   H     0.22807   0.84480   0.68446   0.00000  Uiso   1.00
H300   H     0.20333   0.94105   0.42708   0.00000  Uiso   1.00
H301   H     0.17023   0.94448   0.50197   0.00000  Uiso   1.00
H302   H     0.25149   0.97941   0.25318   0.00000  Uiso   1.00
H303   H     0.05620   0.02471   0.27736   0.00000  Uiso   1.00
H304   H     0.35939   0.72295   0.32816   0.00000  Uiso   1.00
C305   C     0.01763   0.07805   0.85729   0.00000  Uiso   1.00
C306   C     0.03262   0.10887   0.87149   0.00000  Uiso   1.00
C307   C     0.05982   0.12667   0.80963   0.00000  Uiso   1.00
C308   C     0.07165   0.11305   0.73019   0.00000  Uiso   1.00
C309   C     0.05653   0.08221   0.71503   0.00000  Uiso   1.00
C310   C     0.02950   0.06427   0.77961   0.00000  Uiso   1.00
N311   N     0.07497   0.15810   0.83441   0.00000  Uiso   1.00
C312   C     0.09825   0.17838   0.77411   0.00000  Uiso   1.00
C313   C     0.11180   0.20997   0.81059   0.00000  Uiso   1.00
C314   C     0.13557   0.23126   0.73708   0.00000  Uiso   1.00
C315   C     0.14819   0.26145   0.76492   0.00000  Uiso   1.00
C316   C     0.13846   0.27075   0.87229   0.00000  Uiso   1.00
C317   C     0.11446   0.24953   0.94580   0.00000  Uiso   1.00
C318   C     0.10127   0.21933   0.91568   0.00000  Uiso   1.00
C319   C     0.15053   0.30269   0.89706   0.00000  Uiso   1.00
C320   C     0.18004   0.32287   0.93661   0.00000  Uiso   1.00
C321   C     0.18994   0.35264   0.94914   0.00000  Uiso   1.00
C322   C     0.17179   0.36480   0.91546   0.00000  Uiso   1.00
C323   C     0.14204   0.34474   0.88307   0.00000  Uiso   1.00
C324   C     0.13155   0.31423   0.87555   0.00000  Uiso   1.00
C325   C     0.18308   0.39692   0.89652   0.00000  Uiso   1.00
C326   C     0.20892   0.41413   0.82376   0.00000  Uiso   1.00
C327   C     0.22051   0.44470   0.81104   0.00000  Uiso   1.00
C328   C     0.20568   0.45835   0.86668   0.00000  Uiso   1.00
C329   C     0.17841   0.44069   0.92904   0.00000  Uiso   1.00
C330   C     0.16735   0.41027   0.94523   0.00000  Uiso   1.00
C331   C     0.21887   0.49091   0.86631   0.00000  Uiso   1.00
N332   N     0.20225   0.31796   0.97375   0.00000  Uiso   1.00
C333   C     0.22640   0.34482   1.01126   0.00000  Uiso   1.00
N334   N     0.21787   0.36611   0.99858   0.00000  Uiso   1.00
N335   N     0.24613   0.50796   0.82887   0.00000  Uiso   1.00
C336   C     0.26253   0.53984   0.83209   0.00000  Uiso   1.00
C337   C     0.28915   0.55442   0.76274   0.00000  Uiso   1.00
C338   C     0.30638   0.58535   0.76400   0.00000  Uiso   1.00
C339   C     0.29749   0.60242   0.83687   0.00000  Uiso   1.00
C340   C     0.27095   0.58772   0.90846   0.00000  Uiso   1.00
C341   C     0.25364   0.55676   0.90653   0.00000  Uiso   1.00
C342   C     0.20334   0.29032   0.97639   0.00000  Uiso   1.00
C343   C     0.23426   0.39513   1.06346   0.00000  Uiso   1.00
C344   C     0.18596   0.27085   1.09083   0.00000  Uiso   1.00
C345   C     0.26483   0.41425   1.00266   0.00000  Uiso   1.00
Au346  Au    0.26103   0.35484   0.89276   0.00000  Uiso   1.00
Cl347  Cl    0.29977   0.36615   0.75957   0.00000  Uiso   1.00
C348   C     0.01434   0.03132   0.77064   0.00000  Uiso   1.00
C349   C     0.31588   0.63538   0.83857   0.00000  Uiso   1.00
C350   C     0.34703   0.64940   0.83876   0.00000  Uiso   1.00
C351   C     0.03100   0.01680   0.76995   0.00000  Uiso   1.00
C352   C     0.31552   0.58812   0.41036   0.00000  Uiso   1.00
C353   C     0.30072   0.55720   0.41959   0.00000  Uiso   1.00
C354   C     0.27380   0.53975   0.35501   0.00000  Uiso   1.00
C355   C     0.26196   0.55385   0.27880   0.00000  Uiso   1.00
C356   C     0.27691   0.58479   0.26857   0.00000  Uiso   1.00
C357   C     0.30374   0.60235   0.33514   0.00000  Uiso   1.00
N358   N     0.25891   0.50812   0.37356   0.00000  Uiso   1.00
C359   C     0.23656   0.48832   0.30687   0.00000  Uiso   1.00
C360   C     0.22299   0.45640   0.33703   0.00000  Uiso   1.00
C361   C     0.19999   0.43579   0.25808   0.00000  Uiso   1.00
C362   C     0.18721   0.40538   0.28083   0.00000  Uiso   1.00
C363   C     0.19617   0.39510   0.38742   0.00000  Uiso   1.00
C364   C     0.21951   0.41563   0.46587   0.00000  Uiso   1.00
C365   C     0.23274   0.44609   0.44152   0.00000  Uiso   1.00
C366   C     0.18392   0.36295   0.40660   0.00000  Uiso   1.00
C367   C     0.15411   0.34251   0.44048   0.00000  Uiso   1.00
C368   C     0.14391   0.31261   0.44643   0.00000  Uiso   1.00
C369   C     0.16211   0.30065   0.41049   0.00000  Uiso   1.00
C370   C     0.19219   0.32091   0.38459   0.00000  Uiso   1.00
C371   C     0.20296   0.35151   0.38456   0.00000  Uiso   1.00
C372   C     0.15069   0.26880   0.38318   0.00000  Uiso   1.00
C373   C     0.12515   0.25267   0.30706   0.00000  Uiso   1.00
C374   C     0.11345   0.22228   0.28668   0.00000  Uiso   1.00
C375   C     0.12789   0.20779   0.33782   0.00000  Uiso   1.00
C376   C     0.15483   0.22447   0.40386   0.00000  Uiso   1.00
C377   C     0.16601   0.25466   0.42751   0.00000  Uiso   1.00
C378   C     0.11465   0.17529   0.32904   0.00000  Uiso   1.00
N379   N     0.13184   0.34725   0.47834   0.00000  Uiso   1.00
C380   C     0.10732   0.32011   0.50988   0.00000  Uiso   1.00
N381   N     0.11571   0.29880   0.49284   0.00000  Uiso   1.00
N382   N     0.08752   0.15872   0.28919   0.00000  Uiso   1.00
C383   C     0.07118   0.12682   0.28580   0.00000  Uiso   1.00
C384   C     0.04482   0.11288   0.21437   0.00000  Uiso   1.00
C385   C     0.02759   0.08195   0.21039   0.00000  Uiso   1.00
C386   C     0.03620   0.06422   0.27989   0.00000  Uiso   1.00
C387   C     0.06250   0.07828   0.35332   0.00000  Uiso   1.00
C388   C     0.07982   0.10923   0.35662   0.00000  Uiso   1.00
C389   C     0.13119   0.37508   0.48663   0.00000  Uiso   1.00
C390   C     0.09891   0.26918   0.55223   0.00000  Uiso   1.00
C391   C     0.14933   0.39391   0.60150   0.00000  Uiso   1.00
C392   C     0.06857   0.25086   0.48838   0.00000  Uiso   1.00
Au393  Au    0.07351   0.31173   0.38902   0.00000  Uiso   1.00
Cl394  Cl    0.03568   0.30226   0.25318   0.00000  Uiso   1.00
C395   C     0.31894   0.63534   0.32935   0.00000  Uiso   1.00
C396   C     0.01763   0.03127   0.27776   0.00000  Uiso   1.00
C397   C     0.98650   0.01745   0.27761   0.00000  Uiso   1.00
C398   C     0.30233   0.64991   0.32890   0.00000  Uiso   1.00
H399   H     0.99556   0.06381   0.90891   0.00000  Uiso   1.00
H400   H     0.02270   0.11980   0.93410   0.00000  Uiso   1.00
H401   H     0.09365   0.12719   0.67791   0.00000  Uiso   1.00
H402   H     0.06609   0.07135   0.64978   0.00000  Uiso   1.00
H403   H     0.10851   0.17189   0.69173   0.00000  Uiso   1.00
H404   H     0.14484   0.22402   0.65340   0.00000  Uiso   1.00
H405   H     0.16648   0.27862   0.70012   0.00000  Uiso   1.00
H406   H     0.10560   0.25687   1.03068   0.00000  Uiso   1.00
H407   H     0.08194   0.20230   0.97660   0.00000  Uiso   1.00
H408   H     0.12609   0.35328   0.86249   0.00000  Uiso   1.00
H409   H     0.10724   0.29826   0.85164   0.00000  Uiso   1.00
H410   H     0.22062   0.40318   0.77448   0.00000  Uiso   1.00
H411   H     0.24207   0.45867   0.75539   0.00000  Uiso   1.00
H412   H     0.16513   0.45113   0.96686   0.00000  Uiso   1.00
H413   H     0.14544   0.39615   0.99823   0.00000  Uiso   1.00
H414   H     0.20513   0.50126   0.89901   0.00000  Uiso   1.00
H415   H     0.29702   0.54105   0.70426   0.00000  Uiso   1.00
H416   H     0.32785   0.59696   0.70563   0.00000  Uiso   1.00
H417   H     0.26336   0.60106   0.96887   0.00000  Uiso   1.00
H418   H     0.23224   0.54511   0.96535   0.00000  Uiso   1.00
H419   H     0.21616   0.28585   0.89840   0.00000  Uiso   1.00
H420   H     0.22367   0.40067   1.14772   0.00000  Uiso   1.00
H421   H     0.16226   0.25188   1.07635   0.00000  Uiso   1.00
H422   H     0.19665   0.27524   1.19099   0.00000  Uiso   1.00
H423   H     0.26763   0.42923   0.91669   0.00000  Uiso   1.00
H424   H     0.28486   0.41355   1.04322   0.00000  Uiso   1.00
H425   H     0.28468   0.33596   0.75957   0.00000  Uiso   1.00
H426   H     0.35840   0.63551   0.83907   0.00000  Uiso   1.00
H427   H     0.05628   0.03031   0.76881   0.00000  Uiso   1.00
H428   H     0.33736   0.60207   0.46409   0.00000  Uiso   1.00
H429   H     0.31056   0.54590   0.48028   0.00000  Uiso   1.00
H430   H     0.24009   0.54002   0.22511   0.00000  Uiso   1.00
H431   H     0.26737   0.59605   0.20574   0.00000  Uiso   1.00
H432   H     0.22712   0.49549   0.22359   0.00000  Uiso   1.00
H433   H     0.19151   0.44379   0.17414   0.00000  Uiso   1.00
H434   H     0.16940   0.38880   0.21246   0.00000  Uiso   1.00
H435   H     0.22780   0.40751   0.55008   0.00000  Uiso   1.00
H436   H     0.25148   0.46262   0.50648   0.00000  Uiso   1.00
H437   H     0.20817   0.31245   0.36321   0.00000  Uiso   1.00
H438   H     0.22753   0.36761   0.36647   0.00000  Uiso   1.00
H439   H     0.11380   0.26436   0.26135   0.00000  Uiso   1.00
H440   H     0.09213   0.20915   0.22842   0.00000  Uiso   1.00
H441   H     0.16776   0.21341   0.43864   0.00000  Uiso   1.00
H442   H     0.18770   0.26797   0.48311   0.00000  Uiso   1.00
H443   H     0.12825   0.16449   0.35737   0.00000  Uiso   1.00
H444   H     0.03717   0.12677   0.15852   0.00000  Uiso   1.00
H445   H     0.00634   0.07086   0.15041   0.00000  Uiso   1.00
H446   H     0.06990   0.06442   0.41101   0.00000  Uiso   1.00
H447   H     0.10104   0.12033   0.41682   0.00000  Uiso   1.00
H448   H     0.11815   0.38017   0.41214   0.00000  Uiso   1.00
H449   H     0.10909   0.26271   0.63502   0.00000  Uiso   1.00
H450   H     0.15702   0.41862   0.60439   0.00000  Uiso   1.00
H451   H     0.15520   0.38327   0.68446   0.00000  Uiso   1.00
H452   H     0.05895   0.26228   0.42708   0.00000  Uiso   1.00
H453   H     0.05552   0.22576   0.50197   0.00000  Uiso   1.00
H454   H     0.02059   0.27207   0.25318   0.00000  Uiso   1.00
H455   H     0.97529   0.03149   0.27736   0.00000  Uiso   1.00
H456   H     0.27705   0.63644   0.32816   0.00000  Uiso   1.00
loop_
_geom_bond_atom_site_label_1
_geom_bond_atom_site_label_2
_geom_bond_distance
_geom_bond_site_symmetry_2
_ccdc_geom_bond_type
C1     C2      1.396   .     S
C1     C6      1.407   .     D
C1     H95     1.140   .     S
C2     C3      1.399   .     D
C2     H96     1.140   .     S
C3     C4      1.410   .     S
C3     N7      1.439   .     S
C4     C5      1.398   .     D
C4     H97     1.140   .     S
C5     C6      1.407   .     S
C5     H98     1.140   .     S
C6     C44     1.489   .     S
N7     C8      1.299   .     D
C8     C9      1.477   .     S
C8     H99     1.140   .     S
C9     C10     1.400   .     D
C9     C14     1.406   .     S
C10    C11     1.396   .     S
C10    H100    1.140   .     S
C11    C12     1.400   .     D
C11    H101    1.140   .     S
C12    C13     1.405   .     S
C12    C15     1.475   .     S
C13    C14     1.399   .     D
C13    H102    1.140   .     S
C14    H103    1.140   .     S
C15    C16     1.419   .     D
C15    C20     1.406   .     S
C16    C17     1.372   .     S
C16    N28     1.357   .     S
C17    C18     1.418   .     D
C17    N30     1.358   .     S
C18    C19     1.407   .     S
C18    C21     1.481   .     S
C19    C20     1.399   .     D
C19    H104    1.140   .     S
C20    H105    1.140   .     S
C21    C22     1.403   .     D
C21    C26     1.404   .     S
C22    C23     1.397   .     S
C22    H106    1.140   .     S
C23    C24     1.406   .     D
C23    H107    1.140   .     S
C24    C25     1.402   .     S
C24    C27     1.476   .     S
C25    C26     1.397   .     D
C25    H108    1.140   .     S
C26    H109    1.140   .     S
C27    N31     1.300   .     D
C27    H110    1.140   .     S
N28    C29     1.387   .     D
N28    C38     1.467   .     S
C29    N30     1.390   .     S
C29    Au42    2.017   .     S
N30    C39     1.472   .     S
N31    C32     1.437   .     S
C32    C33     1.398   .     D
C32    C37     1.409   .     S
C33    C34     1.397   .     S
C33    H111    1.140   .     S
C34    C35     1.406   .     D
C34    H112    1.140   .     S
C35    C36     1.407   .     S
C35    C45     1.488   .     S
C36    C37     1.398   .     D
C36    H113    1.140   .     S
C37    H114    1.140   .     S
C38    C40     1.523   .     D
C38    H115    1.140   .     S
C39    C41     1.526   .     D
C39    H116    1.140   .     S
C40    H117    1.140   .     S
C40    H118    1.140   .     S
C41    H119    1.140   .     S
C41    H120    1.140   .     S
Au42   Cl43    2.260   .     S
Cl43   H121    1.360   .     S
C44    C199    1.405   .     S
C44    C47     1.406   1_565 D
C45    C46     1.406   .     S
C45    C350    1.405   .     D
C46    C197    1.405   .     D
C46    H122    1.140   .     S
C47    H123    1.140   .     S
C47    C44     1.406   1_545 D
C47    C348    1.405   1_655 S
C48    C49     1.397   .     S
C48    C53     1.406   .     D
C48    H124    1.140   .     S
C49    C50     1.399   .     D
C49    H125    1.140   .     S
C50    C51     1.409   .     S
C50    N54     1.439   .     S
C51    C52     1.398   .     D
C51    H126    1.140   .     S
C52    C53     1.407   .     S
C52    H127    1.140   .     S
C53    C91     1.489   .     S
N54    C55     1.299   .     D
C55    C56     1.477   .     S
C55    H128    1.140   .     S
C56    C57     1.400   .     D
C56    C61     1.406   .     S
C57    C58     1.396   .     S
C57    H129    1.140   .     S
C58    C59     1.400   .     D
C58    H130    1.140   .     S
C59    C60     1.404   .     S
C59    C62     1.475   .     S
C60    C61     1.399   .     D
C60    H131    1.140   .     S
C61    H132    1.140   .     S
C62    C63     1.417   .     D
C62    C67     1.406   .     S
C63    C64     1.371   .     S
C63    N75     1.357   .     S
C64    C65     1.418   .     D
C64    N77     1.358   .     S
C65    C66     1.408   .     S
C65    C68     1.481   .     S
C66    C67     1.399   .     D
C66    H133    1.140   .     S
C67    H134    1.140   .     S
C68    C69     1.404   .     D
C68    C73     1.404   .     S
C69    C70     1.397   .     S
C69    H135    1.140   .     S
C70    C71     1.406   .     D
C70    H136    1.140   .     S
C71    C72     1.402   .     S
C71    C74     1.475   .     S
C72    C73     1.397   .     D
C72    H137    1.140   .     S
C73    H138    1.140   .     S
C74    N78     1.299   .     D
C74    H139    1.140   .     S
N75    C76     1.388   .     D
N75    C85     1.468   .     S
C76    N77     1.391   .     S
C76    Au89    2.017   .     S
N77    C86     1.472   .     S
N78    C79     1.438   .     S
C79    C80     1.398   .     D
C79    C84     1.408   .     S
C80    C81     1.397   .     S
C80    H140    1.140   .     S
C81    C82     1.406   .     D
C81    H141    1.140   .     S
C82    C83     1.407   .     S
C82    C92     1.489   .     S
C83    C84     1.398   .     D
C83    H142    1.140   1_565 S
C84    H143    1.140   .     S
C85    C87     1.525   .     D
C85    H144    1.140   .     S
C86    C88     1.526   .     D
C86    H145    1.140   .     S
C87    H146    1.140   .     S
C87    H147    1.140   .     S
C88    H148    1.140   .     S
C88    H149    1.140   .     S
Au89   Cl90    2.260   .     S
Cl90   H150    1.360   .     S
C91    C94     1.406   .     D
C91    C246    1.406   .     S
C92    C93     1.405   .     S
C92    C397    1.405   1_565 D
C93    H151    1.140   .     S
C93    C244    1.405   1_655 D
C94    C395    1.406   .     S
C94    H152    1.140   .     S
H142   C83     1.140   1_545 S
C153   C154    1.396   .     D
C153   C158    1.407   .     S
C153   H247    1.140   1_565 S
C154   C155    1.399   .     S
C154   H248    1.140   .     S
C155   C156    1.410   .     D
C155   N159    1.439   .     S
C156   C157    1.398   .     S
C156   H249    1.140   .     S
C157   C158    1.407   .     D
C157   H250    1.140   .     S
C158   C196    1.489   .     S
N159   C160    1.299   .     D
C160   C161    1.477   .     S
C160   H251    1.140   .     S
C161   C162    1.400   .     S
C161   C166    1.406   .     D
C162   C163    1.396   .     D
C162   H252    1.140   .     S
C163   C164    1.400   .     S
C163   H253    1.140   .     S
C164   C165    1.405   .     D
C164   C167    1.475   .     S
C165   C166    1.399   .     S
C165   H254    1.140   .     S
C166   H255    1.140   .     S
C167   C168    1.419   .     S
C167   C172    1.406   .     D
C168   C169    1.372   .     D
C168   N180    1.357   .     S
C169   C170    1.418   .     S
C169   N182    1.358   .     S
C170   C171    1.407   .     D
C170   C173    1.481   .     S
C171   C172    1.399   .     S
C171   H256    1.140   .     S
C172   H257    1.140   .     S
C173   C174    1.403   .     S
C173   C178    1.404   .     D
C174   C175    1.397   .     D
C174   H258    1.140   .     S
C175   C176    1.406   .     S
C175   H259    1.140   .     S
C176   C177    1.402   .     D
C176   C179    1.476   .     S
C177   C178    1.397   .     S
C177   H260    1.140   .     S
C178   H261    1.140   .     S
C179   N183    1.300   .     D
C179   H262    1.140   .     S
N180   C181    1.387   .     D
N180   C190    1.467   .     S
C181   N182    1.390   .     S
C181   Au194   2.017   .     S
N182   C191    1.472   .     S
N183   C184    1.437   .     S
C184   C185    1.398   .     S
C184   C189    1.409   .     D
C185   C186    1.397   .     D
C185   H263    1.140   .     S
C186   C187    1.406   .     S
C186   H264    1.140   .     S
C187   C188    1.407   .     D
C187   C197    1.488   .     S
C188   C189    1.398   .     S
C188   H265    1.140   .     S
C189   H266    1.140   .     S
C190   C192    1.523   .     D
C190   H267    1.140   .     S
C191   C193    1.526   .     D
C191   H268    1.140   .     S
C192   H269    1.140   .     S
C192   H270    1.140   .     S
C193   H271    1.140   .     S
C193   H272    1.140   .     S
Au194  Cl195   2.260   .     S
Cl195  H273    1.360   .     S
C196   C199    1.406   1_455 D
C196   C351    1.405   1_565 S
C197   C198    1.406   .     S
C198   C349    1.405   .     D
C198   H274    1.140   .     S
C199   H275    1.140   .     S
C199   C196    1.406   1_655 D
C200   C201    1.397   .     S
C200   C205    1.406   .     D
C200   H276    1.140   .     S
C201   C202    1.399   .     D
C201   H277    1.140   .     S
C202   C203    1.409   .     S
C202   N206    1.439   .     S
C203   C204    1.398   .     D
C203   H278    1.140   .     S
C204   C205    1.407   .     S
C204   H279    1.140   .     S
C205   C243    1.489   .     S
N206   C207    1.299   .     D
C207   C208    1.477   .     S
C207   H280    1.140   .     S
C208   C209    1.400   .     D
C208   C213    1.406   .     S
C209   C210    1.396   .     S
C209   H281    1.140   .     S
C210   C211    1.400   .     D
C210   H282    1.140   .     S
C211   C212    1.404   .     S
C211   C214    1.475   .     S
C212   C213    1.399   .     D
C212   H283    1.140   .     S
C213   H284    1.140   .     S
C214   C215    1.417   .     D
C214   C219    1.406   .     S
C215   C216    1.371   .     S
C215   N227    1.357   .     S
C216   C217    1.418   .     D
C216   N229    1.358   .     S
C217   C218    1.408   .     S
C217   C220    1.481   .     S
C218   C219    1.399   .     D
C218   H285    1.140   .     S
C219   H286    1.140   .     S
C220   C221    1.404   .     D
C220   C225    1.404   .     S
C221   C222    1.397   .     S
C221   H287    1.140   .     S
C222   C223    1.406   .     D
C222   H288    1.140   .     S
C223   C224    1.402   .     S
C223   C226    1.475   .     S
C224   C225    1.397   .     D
C224   H289    1.140   .     S
C225   H290    1.140   .     S
C226   N230    1.299   .     D
C226   H291    1.140   .     S
N227   C228    1.388   .     D
N227   C237    1.468   .     S
C228   N229    1.391   .     S
C228   Au241   2.017   .     S
N229   C238    1.472   .     S
N230   C231    1.438   .     S
C231   C232    1.398   .     D
C231   C236    1.408   .     S
C232   C233    1.397   .     S
C232   H292    1.140   .     S
C233   C234    1.406   .     D
C233   H293    1.140   .     S
C234   C235    1.407   .     S
C234   C244    1.489   .     S
C235   C236    1.398   .     D
C235   H294    1.140   1_455 S
C236   H295    1.140   .     S
C237   C239    1.525   .     D
C237   H296    1.140   .     S
C238   C240    1.526   .     D
C238   H297    1.140   .     S
C239   H298    1.140   .     S
C239   H299    1.140   .     S
C240   H300    1.140   .     S
C240   H301    1.140   .     S
Au241  Cl242   2.260   .     S
Cl242  H302    1.360   .     S
C243   C246    1.406   .     D
C243   C398    1.406   .     S
C244   C93     1.405   1_455 D
C244   C245    1.405   1_565 S
C245   C396    1.405   .     D
C245   H303    1.140   .     S
C245   C244    1.405   1_545 S
C246   H304    1.140   .     S
H247   C153    1.140   1_545 S
H294   C235    1.140   1_655 S
C305   C306    1.396   .     S
C305   C310    1.407   .     D
C305   H399    1.140   1_455 S
C306   C307    1.399   .     D
C306   H400    1.140   .     S
C307   C308    1.410   .     S
C307   N311    1.439   .     S
C308   C309    1.398   .     D
C308   H401    1.140   .     S
C309   C310    1.407   .     S
C309   H402    1.140   .     S
C310   C348    1.489   .     S
N311   C312    1.299   .     D
C312   C313    1.477   .     S
C312   H403    1.140   .     S
C313   C314    1.400   .     D
C313   C318    1.406   .     S
C314   C315    1.396   .     S
C314   H404    1.140   .     S
C315   C316    1.400   .     D
C315   H405    1.140   .     S
C316   C317    1.405   .     S
C316   C319    1.475   .     S
C317   C318    1.399   .     D
C317   H406    1.140   .     S
C318   H407    1.140   .     S
C319   C320    1.419   .     D
C319   C324    1.406   .     S
C320   C321    1.372   .     S
C320   N332    1.357   .     S
C321   C322    1.418   .     D
C321   N334    1.358   .     S
C322   C323    1.407   .     S
C322   C325    1.481   .     S
C323   C324    1.399   .     D
C323   H408    1.140   .     S
C324   H409    1.140   .     S
C325   C326    1.403   .     D
C325   C330    1.404   .     S
C326   C327    1.397   .     S
C326   H410    1.140   .     S
C327   C328    1.406   .     D
C327   H411    1.140   .     S
C328   C329    1.402   .     S
C328   C331    1.476   .     S
C329   C330    1.397   .     D
C329   H412    1.140   .     S
C330   H413    1.140   .     S
C331   N335    1.300   .     D
C331   H414    1.140   .     S
N332   C333    1.387   .     D
N332   C342    1.467   .     S
C333   N334    1.390   .     S
C333   Au346   2.017   .     S
N334   C343    1.472   .     S
N335   C336    1.437   .     S
C336   C337    1.398   .     D
C336   C341    1.409   .     S
C337   C338    1.397   .     S
C337   H415    1.140   .     S
C338   C339    1.406   .     D
C338   H416    1.140   .     S
C339   C340    1.407   .     S
C339   C349    1.488   .     S
C340   C341    1.398   .     D
C340   H417    1.140   .     S
C341   H418    1.140   .     S
C342   C344    1.523   .     D
C342   H419    1.140   .     S
C343   C345    1.526   .     D
C343   H420    1.140   .     S
C344   H421    1.140   .     S
C344   H422    1.140   .     S
C345   H423    1.140   .     S
C345   H424    1.140   .     S
Au346  Cl347   2.260   .     S
Cl347  H425    1.360   .     S
C348   C351    1.406   .     D
C348   C47     1.405   1_455 S
C349   C350    1.406   .     S
C350   H426    1.140   .     S
C351   H427    1.140   .     S
C351   C196    1.405   1_545 S
C352   C353    1.397   .     S
C352   C357    1.406   .     D
C352   H428    1.140   .     S
C353   C354    1.399   .     D
C353   H429    1.140   .     S
C354   C355    1.409   .     S
C354   N358    1.439   .     S
C355   C356    1.398   .     D
C355   H430    1.140   .     S
C356   C357    1.407   .     S
C356   H431    1.140   .     S
C357   C395    1.489   .     S
N358   C359    1.299   .     D
C359   C360    1.477   .     S
C359   H432    1.140   .     S
C360   C361    1.400   .     D
C360   C365    1.406   .     S
C361   C362    1.396   .     S
C361   H433    1.140   .     S
C362   C363    1.400   .     D
C362   H434    1.140   .     S
C363   C364    1.404   .     S
C363   C366    1.475   .     S
C364   C365    1.399   .     D
C364   H435    1.140   .     S
C365   H436    1.140   .     S
C366   C367    1.417   .     D
C366   C371    1.406   .     S
C367   C368    1.371   .     S
C367   N379    1.357   .     S
C368   C369    1.418   .     D
C368   N381    1.358   .     S
C369   C370    1.408   .     S
C369   C372    1.481   .     S
C370   C371    1.399   .     D
C370   H437    1.140   .     S
C371   H438    1.140   .     S
C372   C373    1.404   .     D
C372   C377    1.404   .     S
C373   C374    1.397   .     S
C373   H439    1.140   .     S
C374   C375    1.406   .     D
C374   H440    1.140   .     S
C375   C376    1.402   .     S
C375   C378    1.475   .     S
C376   C377    1.397   .     D
C376   H441    1.140   .     S
C377   H442    1.140   .     S
C378   N382    1.299   .     D
C378   H443    1.140   .     S
N379   C380    1.388   .     D
N379   C389    1.468   .     S
C380   N381    1.391   .     S
C380   Au393   2.017   .     S
N381   C390    1.472   .     S
N382   C383    1.438   .     S
C383   C384    1.398   .     D
C383   C388    1.408   .     S
C384   C385    1.397   .     S
C384   H444    1.140   .     S
C385   C386    1.406   .     D
C385   H445    1.140   .     S
C386   C387    1.407   .     S
C386   C396    1.489   .     S
C387   C388    1.398   .     D
C387   H446    1.140   .     S
C388   H447    1.140   .     S
C389   C391    1.525   .     D
C389   H448    1.140   .     S
C390   C392    1.526   .     D
C390   H449    1.140   .     S
C391   H450    1.140   .     S
C391   H451    1.140   .     S
C392   H452    1.140   .     S
C392   H453    1.140   .     S
Au393  Cl394   2.260   .     S
Cl394  H454    1.360   .     S
C395   C398    1.406   .     D
C396   C397    1.405   1_455 S
C397   H455    1.140   .     S
C397   C92     1.405   1_545 D
C397   C396    1.405   1_655 S
C398   H456    1.140   .     S
H399   C305    1.140   1_655 S
