data_1219
_audit_creation_date              2023-09-08
_audit_creation_method            'Materials Studio'
_symmetry_space_group_name_H-M    'P1'
_symmetry_Int_Tables_number       1
_symmetry_cell_setting            triclinic
loop_
_symmetry_equiv_pos_as_xyz
  x,y,z
_cell_length_a                    31.0504
_cell_length_b                    32.2630
_cell_length_c                    21.7390
_cell_angle_alpha                 90.0000
_cell_angle_beta                  90.0000
_cell_angle_gamma                 90.0000
loop_
_atom_site_label
_atom_site_type_symbol
_atom_site_fract_x
_atom_site_fract_y
_atom_site_fract_z
_atom_site_U_iso_or_equiv
_atom_site_adp_type
_atom_site_occupancy
S1     S     0.47290   0.22739   0.94511   0.06707  Uani   1.00
S2     S     0.19470   0.23310   0.54875   0.06403  Uani   1.00
C3     C     0.35953   0.21956   0.78672   0.04790  Uani   1.00
C4     C     0.25307   0.19679   0.64074   0.05123  Uani   1.00
C5     C     0.30512   0.22012   0.71064   0.04827  Uani   1.00
C6     C     0.44708   0.19289   0.90211   0.05720  Uani   1.00
C7     C     0.39067   0.22822   0.82981   0.05750  Uani   1.00
H8     H     0.39730   0.25570   0.84220   0.06900  Uiso   1.00
C9     C     0.31410   0.17939   0.72366   0.05383  Uani   1.00
C10    C     0.34937   0.17872   0.77110   0.05570  Uani   1.00
O11    O     0.51096   0.28176   1.01786   0.08887  Uani   1.00
C12    C     0.37096   0.14416   0.79741   0.05947  Uani   1.00
H13    H     0.36360   0.11640   0.78710   0.07100  Uiso   1.00
C14    C     0.29287   0.14652   0.69879   0.05603  Uani   1.00
H15    H     0.29890   0.11880   0.71060   0.06700  Uiso   1.00
C16    C     0.22016   0.19759   0.59153   0.05700  Uani   1.00
C17    C     0.27434   0.23114   0.66784   0.05617  Uani   1.00
H18    H     0.26800   0.25910   0.65750   0.06700  Uiso   1.00
C19    C     0.20669   0.15673   0.58156   0.06387  Uani   1.00
C20    C     0.41180   0.19375   0.85390   0.05917  Uani   1.00
C21    C     0.40345   0.15334   0.83899   0.05880  Uani   1.00
C22    C     0.45793   0.15193   0.91073   0.06367  Uani   1.00
C23    C     0.23167   0.12591   0.62044   0.06563  Uani   1.00
C24    C     0.43226   0.12239   0.87119   0.06503  Uani   1.00
C25    C     0.13028   0.27538   0.44116   0.07873  Uani   1.00
C26    C     0.20014   0.10348   0.66303   0.06923  Uani   1.00
C27    C     0.16475   0.19480   0.51370   0.06967  Uani   1.00
C28    C     0.50330   0.18792   0.97682   0.07150  Uani   1.00
C29    C     0.26110   0.15641   0.65394   0.05543  Uani   1.00
C30    C     0.04876   0.28969   0.32156   0.08580  Uani   1.00
H31    H     0.02850   0.27300   0.30020   0.10300  Uiso   1.00
C32    C     0.07836   0.23149   0.39434   0.08077  Uani   1.00
C33    C     0.53994   0.26637   1.05099   0.07920  Uani   1.00
O34    O     0.15829   0.28956   0.47556   0.09453  Uani   1.00
C35    C     0.11411   0.23199   0.43850   0.07423  Uani   1.00
C36    C     0.49180   0.15024   0.95502   0.07273  Uani   1.00
H37    H     0.50500   0.12510   0.96790   0.08700  Uiso   1.00
C38    C     0.55446   0.22367   1.05203   0.07953  Uani   1.00
C39    C     0.05375   0.33217   0.30790   0.09797  Uani   1.00
H40    H     0.03490   0.34430   0.27860   0.11800  Uiso   1.00
C41    C     0.25875   0.09613   0.58098   0.06813  Uani   1.00
C42    C     0.17389   0.15533   0.53553   0.07420  Uani   1.00
H43    H     0.16020   0.13070   0.52170   0.08900  Uiso   1.00
C44    C     0.16895   0.08925   0.76179   0.08387  Uani   1.00
H45    H     0.16840   0.09430   0.80480   0.10100  Uiso   1.00
C46    C     0.59011   0.22221   1.09740   0.08420  Uani   1.00
C47    C     0.56352   0.29032   1.09736   0.08463  Uani   1.00
C48    C     0.05085   0.19977   0.38165   0.08053  Uani   1.00
N49    N    -0.01579   0.20414   0.30835   0.10160  Uani   1.00
C50    C     0.07516   0.27298   0.36827   0.08620  Uani   1.00
C51    C     0.46261   0.09887   0.82764   0.07013  Uani   1.00
C52    C     0.55947   0.33083   1.11365   0.09387  Uani   1.00
H53    H     0.53810   0.34780   1.09510   0.11200  Uiso   1.00
C54    C     0.62068   0.27842   1.17108   0.09337  Uani   1.00
H55    H     0.64160   0.26140   1.19050   0.11200  Uiso   1.00
C56    C     0.17152   0.07385   0.63522   0.07407  Uani   1.00
H57    H     0.17240   0.06890   0.59220   0.08900  Uiso   1.00
C58    C     0.27191   0.10677   0.52020   0.08800  Uani   1.00
H59    H     0.26200   0.13170   0.50170   0.10600  Uiso   1.00
C60    C     0.40428   0.09282   0.91160   0.07267  Uani   1.00
C61    C     0.05500   0.16007   0.40581   0.10253  Uani   1.00
C62    C     0.08494   0.35719   0.33524   0.09483  Uani   1.00
H63    H     0.08880   0.38500   0.32210   0.11400  Uiso   1.00
C64    C     0.13028   0.19854   0.46812   0.07923  Uani   1.00
H65    H     0.11690   0.17300   0.45750   0.09500  Uiso   1.00
C66    C     0.19701   0.10964   0.72447   0.07187  Uani   1.00
H67    H     0.21560   0.12950   0.74270   0.08600  Uiso   1.00
C68    C     0.11004   0.34089   0.38158   0.08897  Uani   1.00
H69    H     0.12960   0.35790   0.40390   0.10700  Uiso   1.00
C70    C     0.53789   0.19014   1.02220   0.08220  Uani   1.00
H71    H     0.55080   0.16430   1.03250   0.09900  Uiso   1.00
C72    C     0.39142   0.05487   0.89050   0.09733  Uani   1.00
H73    H     0.40160   0.04550   0.85170   0.11700  Uiso   1.00
C74    C     0.10597   0.29909   0.39477   0.08253  Uani   1.00
C75    C     0.39075   0.10386   0.96977   0.08403  Uani   1.00
H76    H     0.39960   0.12990   0.98580   0.10100  Uiso   1.00
C77    C     0.01456   0.20283   0.34269   0.08347  Uani   1.00
C78    C     0.59341   0.26333   1.12535   0.07973  Uani   1.00
C79    C     0.65416   0.19404   1.14936   0.10360  Uani   1.00
C80    C     0.52273   0.05702   0.75180   0.10800  Uani   1.00
C81    C     0.61885   0.19058   1.10633   0.08143  Uani   1.00
N82    N     0.68230   0.19572   1.18258   0.12247  Uani   1.00
C83    C     0.13963   0.05930   0.73350   0.09113  Uani   1.00
C84    C     0.29867   0.03207   0.56990   0.08643  Uani   1.00
H85    H     0.30780   0.00640   0.58680   0.10300  Uiso   1.00
C86    C     0.31121   0.04156   0.51300   0.10033  Uani   1.00
C87    C     0.46503   0.10726   0.76562   0.07667  Uani   1.00
H88    H     0.44630   0.12740   0.74830   0.09200  Uiso   1.00
C89    C     0.49116   0.06843   0.85420   0.09777  Uani   1.00
H90    H     0.49140   0.06220   0.89690   0.11700  Uiso   1.00
C91    C     0.61649   0.15304   1.07930   0.10410  Uani   1.00
C92    C     0.51903   0.04834   0.81120   0.10723  Uani   1.00
H93    H     0.53660   0.02660   0.82670   0.12900  Uiso   1.00
C94    C     0.14260   0.05259   0.67212   0.08373  Uani   1.00
H95    H     0.12420   0.03260   0.65370   0.10100  Uiso   1.00
C96    C     0.29924   0.08054   0.48840   0.09800  Uani   1.00
H97    H     0.31010   0.08880   0.44950   0.11800  Uiso   1.00
N98    N     0.61544   0.11882   1.05450   0.14333  Uani   1.00
C99    C     0.36430   0.02987   0.92380   0.12467  Uani   1.00
H100   H     0.35360   0.00520   0.90530   0.14900  Uiso   1.00
C101   C     0.36528   0.07919   1.00530   0.12500  Uani   1.00
H102   H     0.35650   0.08870   1.04470   0.15000  Uiso   1.00
C103   C     0.49482   0.08647   0.72710   0.09787  Uani   1.00
H104   H     0.49580   0.09260   0.68440   0.11800  Uiso   1.00
N105   N     0.05495   0.12581   0.42450   0.16767  Uani   1.00
C106   C     0.27221   0.05838   0.60667   0.08163  Uani   1.00
H107   H     0.26400   0.05060   0.64720   0.09800  Uiso   1.00
C108   C     0.35160   0.03957   0.98480   0.11400  Uani   1.00
C109   C     0.61552   0.31976   1.18650   0.11317  Uani   1.00
H110   H     0.63270   0.33010   1.21930   0.13600  Uiso   1.00
C111   C     0.58759   0.34748   1.15870   0.12567  Uani   1.00
H112   H     0.58730   0.37610   1.16910   0.15100  Uiso   1.00
C113   C     0.31180  -0.02216   0.44510   0.12267  Uani   1.00
H114   H     0.28980  -0.00890   0.41860   0.14700  Uiso   1.00
H115   H     0.29640  -0.03760   0.47770   0.14700  Uiso   1.00
C116   C     0.10693   0.03801   0.77640   0.13200  Uani   1.00
H117   H     0.12140   0.03040   0.81540   0.15900  Uiso   1.00
H118   H     0.09640   0.01220   0.75680   0.15900  Uiso   1.00
C119   C     0.55694   0.03626   0.71050   0.14800  Uani   1.00
H120   H     0.58480   0.03420   0.73240   0.17800  Uiso   1.00
H121   H     0.56120   0.05240   0.67230   0.17800  Uiso   1.00
C122   C     0.33858   0.01189   0.47560   0.12667  Uani   1.00
H123   H     0.36030  -0.00100   0.50280   0.15200  Uiso   1.00
H124   H     0.35410   0.02760   0.44340   0.15200  Uiso   1.00
C125   C     0.35290  -0.01880   1.06190   0.36200  Uani   1.00
H126   H     0.38060  -0.00690   1.07590   0.43500  Uiso   1.00
H127   H     0.35760  -0.04590   1.04150   0.43500  Uiso   1.00
C128   C     0.32580   0.01150   1.02330   0.18433  Uani   1.00
H129   H     0.30620  -0.00470   0.99640   0.22100  Uiso   1.00
H130   H     0.30770   0.02830   1.05130   0.22100  Uiso   1.00
C131   C     0.31060  -0.08720   0.37910   0.31367  Uani   1.00
H132   H     0.28640  -0.07460   0.35610   0.37600  Uiso   1.00
H133   H     0.29810  -0.10360   0.41320   0.37600  Uiso   1.00
C134   C     0.33740  -0.05327   0.40600   0.16933  Uani   1.00
H135   H     0.35170  -0.03810   0.37210   0.20300  Uiso   1.00
H136   H     0.36020  -0.06580   0.43190   0.20300  Uiso   1.00
C137   C     0.06686   0.06760   0.79110   0.18200  Uani   1.00
H138   H     0.07740   0.09540   0.80270   0.21800  Uiso   1.00
H139   H     0.04880   0.07050   0.75390   0.21800  Uiso   1.00
C140   C     0.03970   0.04960   0.84380   0.28700  Uani   1.00
H141   H     0.05820   0.04230   0.87930   0.34400  Uiso   1.00
H142   H     0.02420   0.02440   0.83010   0.34400  Uiso   1.00
C143   C     0.49750  -0.04750   0.61550   0.42667  Uani   1.00
H144   H     0.48410  -0.06600   0.64640   0.51400  Uiso   1.00
H145   H     0.52210  -0.06150   0.59510   0.51400  Uiso   1.00
C146   C     0.53930  -0.00740   0.69550   0.30700  Uani   1.00
H147   H     0.56340  -0.02640   0.68570   0.36800  Uiso   1.00
H148   H     0.52370  -0.01870   0.73160   0.36800  Uiso   1.00
C149   C     0.50910  -0.00440   0.64110   0.36600  Uani   1.00
H150   H     0.52290   0.01230   0.60830   0.44100  Uiso   1.00
H151   H     0.48240   0.01000   0.65390   0.44100  Uiso   1.00
C152   C     0.30630  -0.06510   1.10060   0.35767  Uani   1.00
H153   H     0.33120  -0.07890   1.08080   0.43100  Uiso   1.00
H154   H     0.28200  -0.06590   1.07130   0.43100  Uiso   1.00
C155   C     0.31800  -0.02020   1.11280   0.55333  Uani   1.00
H156   H     0.32990  -0.01570   1.15450   0.66300  Uiso   1.00
H157   H     0.29380  -0.00090   1.10500   0.66300  Uiso   1.00
C158   C     0.33470  -0.11680   0.33580   0.42800  Uani   1.00
H159   H     0.35160  -0.13650   0.36110   0.51500  Uiso   1.00
H160   H     0.35540  -0.10040   0.31110   0.51500  Uiso   1.00
C161   C    -0.01950   0.03380   0.96130   0.18100  Uani   1.00
H162   H    -0.03750   0.00990   0.95030   0.27200  Uiso   1.00
H163   H    -0.02900   0.04490   1.00110   0.27200  Uiso   1.00
H164   H     0.01060   0.02500   0.96430   0.27200  Uiso   1.00
C165   C    -0.02380   0.06720   0.91210   0.32300  Uani   1.00
H166   H    -0.03280   0.09210   0.93560   0.38800  Uiso   1.00
H167   H    -0.04970   0.05870   0.88860   0.38800  Uiso   1.00
C168   C     0.43860  -0.06100   0.53450   0.35700  Uani   1.00
H169   H     0.45800  -0.08210   0.51760   0.53600  Uiso   1.00
H170   H     0.42310  -0.04750   0.50070   0.53600  Uiso   1.00
H171   H     0.41790  -0.07420   0.56240   0.53600  Uiso   1.00
C172   C     0.46470  -0.02880   0.56960   0.45100  Uani   1.00
H173   H     0.44470  -0.01060   0.59250   0.54100  Uiso   1.00
H174   H     0.48050  -0.01130   0.53970   0.54100  Uiso   1.00
C175   C     0.25850  -0.11980   1.13610   0.49000  Uani   1.00
H176   H     0.25270  -0.11440   1.09250   0.73600  Uiso   1.00
H177   H     0.23220  -0.11550   1.16010   0.73600  Uiso   1.00
H178   H     0.26830  -0.14850   1.14110   0.73600  Uiso   1.00
C179   C     0.29360  -0.09020   1.15890   0.87000  Uani   1.00
H180   H     0.31860  -0.10570   1.17530   1.04500  Uiso   1.00
H181   H     0.28240  -0.07160   1.19150   1.04500  Uiso   1.00
C182   C     0.00680   0.08500   0.86180   0.48867  Uani   1.00
H183   H     0.02250   0.10950   0.87790   0.58400  Uiso   1.00
H184   H    -0.01000   0.09370   0.82530   0.58400  Uiso   1.00
C185   C     0.30530  -0.14190   0.29130   0.64467  Uani   1.00
H186   H     0.27550  -0.13240   0.29540   0.96500  Uiso   1.00
H187   H     0.30700  -0.17140   0.30160   0.96500  Uiso   1.00
H188   H     0.31500  -0.13770   0.24880   0.96500  Uiso   1.00
S189   S     0.02710   0.77261   0.94511   0.06707  Uani   1.00
S190   S     0.30530   0.76690   0.54875   0.06403  Uani   1.00
C191   C     0.14047   0.78044   0.78672   0.04790  Uani   1.00
C192   C     0.24693   0.80321   0.64074   0.05123  Uani   1.00
C193   C     0.19488   0.77988   0.71064   0.04827  Uani   1.00
C194   C     0.05292   0.80711   0.90211   0.05720  Uani   1.00
C195   C     0.10933   0.77178   0.82981   0.05750  Uani   1.00
H196   H     0.10270   0.74430   0.84220   0.06900  Uiso   1.00
C197   C     0.18590   0.82061   0.72366   0.05383  Uani   1.00
C198   C     0.15063   0.82128   0.77110   0.05570  Uani   1.00
O199   O    -0.01096   0.71824   1.01786   0.08887  Uani   1.00
C200   C     0.12904   0.85584   0.79741   0.05947  Uani   1.00
H201   H     0.13640   0.88360   0.78710   0.07100  Uiso   1.00
C202   C     0.20713   0.85348   0.69879   0.05603  Uani   1.00
H203   H     0.20110   0.88120   0.71060   0.06700  Uiso   1.00
C204   C     0.27984   0.80241   0.59153   0.05700  Uani   1.00
C205   C     0.22566   0.76886   0.66784   0.05617  Uani   1.00
H206   H     0.23200   0.74090   0.65750   0.06700  Uiso   1.00
C207   C     0.29331   0.84327   0.58156   0.06387  Uani   1.00
C208   C     0.08820   0.80625   0.85390   0.05917  Uani   1.00
C209   C     0.09655   0.84666   0.83899   0.05880  Uani   1.00
C210   C     0.04207   0.84807   0.91073   0.06367  Uani   1.00
C211   C     0.26833   0.87409   0.62044   0.06563  Uani   1.00
C212   C     0.06774   0.87761   0.87119   0.06503  Uani   1.00
C213   C     0.36972   0.72462   0.44116   0.07873  Uani   1.00
C214   C     0.29986   0.89652   0.66303   0.06923  Uani   1.00
C215   C     0.33525   0.80520   0.51370   0.06967  Uani   1.00
C216   C    -0.00330   0.81208   0.97682   0.07150  Uani   1.00
C217   C     0.23890   0.84359   0.65394   0.05543  Uani   1.00
C218   C     0.45124   0.71031   0.32156   0.08580  Uani   1.00
H219   H     0.47150   0.72700   0.30020   0.10300  Uiso   1.00
C220   C     0.42164   0.76851   0.39434   0.08077  Uani   1.00
C221   C    -0.03994   0.73363   1.05099   0.07920  Uani   1.00
O222   O     0.34171   0.71044   0.47556   0.09453  Uani   1.00
C223   C     0.38589   0.76801   0.43850   0.07423  Uani   1.00
C224   C     0.00820   0.84976   0.95502   0.07273  Uani   1.00
H225   H    -0.00500   0.87490   0.96790   0.08700  Uiso   1.00
C226   C    -0.05446   0.77633   1.05203   0.07953  Uani   1.00
C227   C     0.44625   0.66783   0.30790   0.09797  Uani   1.00
H228   H     0.46510   0.65570   0.27860   0.11800  Uiso   1.00
C229   C     0.24125   0.90387   0.58098   0.06813  Uani   1.00
C230   C     0.32611   0.84467   0.53553   0.07420  Uani   1.00
H231   H     0.33980   0.86930   0.52170   0.08900  Uiso   1.00
C232   C     0.33105   0.91075   0.76179   0.08387  Uani   1.00
H233   H     0.33160   0.90570   0.80480   0.10100  Uiso   1.00
C234   C    -0.09011   0.77779   1.09740   0.08420  Uani   1.00
C235   C    -0.06352   0.70968   1.09736   0.08463  Uani   1.00
C236   C     0.44915   0.80023   0.38165   0.08053  Uani   1.00
N237   N     0.51579   0.79586   0.30835   0.10160  Uani   1.00
C238   C     0.42484   0.72702   0.36827   0.08620  Uani   1.00
C239   C     0.03739   0.90113   0.82764   0.07013  Uani   1.00
C240   C    -0.05947   0.66917   1.11365   0.09387  Uani   1.00
H241   H    -0.03810   0.65220   1.09510   0.11200  Uiso   1.00
C242   C    -0.12068   0.72158   1.17108   0.09337  Uani   1.00
H243   H    -0.14160   0.73860   1.19050   0.11200  Uiso   1.00
C244   C     0.32848   0.92615   0.63522   0.07407  Uani   1.00
H245   H     0.32760   0.93110   0.59220   0.08900  Uiso   1.00
C246   C     0.22809   0.89323   0.52020   0.08800  Uani   1.00
H247   H     0.23800   0.86830   0.50170   0.10600  Uiso   1.00
C248   C     0.09572   0.90718   0.91160   0.07267  Uani   1.00
C249   C     0.44500   0.83993   0.40581   0.10253  Uani   1.00
C250   C     0.41506   0.64281   0.33524   0.09483  Uani   1.00
H251   H     0.41120   0.61500   0.32210   0.11400  Uiso   1.00
C252   C     0.36972   0.80146   0.46812   0.07923  Uani   1.00
H253   H     0.38310   0.82700   0.45750   0.09500  Uiso   1.00
C254   C     0.30299   0.89036   0.72447   0.07187  Uani   1.00
H255   H     0.28440   0.87050   0.74270   0.08600  Uiso   1.00
C256   C     0.38996   0.65911   0.38158   0.08897  Uani   1.00
H257   H     0.37040   0.64210   0.40390   0.10700  Uiso   1.00
C258   C    -0.03789   0.80986   1.02220   0.08220  Uani   1.00
H259   H    -0.05080   0.83570   1.03250   0.09900  Uiso   1.00
C260   C     0.10858   0.94513   0.89050   0.09733  Uani   1.00
H261   H     0.09840   0.95450   0.85170   0.11700  Uiso   1.00
C262   C     0.39403   0.70091   0.39477   0.08253  Uani   1.00
C263   C     0.10925   0.89614   0.96977   0.08403  Uani   1.00
H264   H     0.10040   0.87010   0.98580   0.10100  Uiso   1.00
C265   C     0.48544   0.79717   0.34269   0.08347  Uani   1.00
C266   C    -0.09341   0.73667   1.12535   0.07973  Uani   1.00
C267   C    -0.15416   0.80596   1.14936   0.10360  Uani   1.00
C268   C    -0.02273   0.94298   0.75180   0.10800  Uani   1.00
C269   C    -0.11885   0.80942   1.10633   0.08143  Uani   1.00
N270   N    -0.18230   0.80428   1.18258   0.12247  Uani   1.00
C271   C     0.36037   0.94070   0.73350   0.09113  Uani   1.00
C272   C     0.20133   0.96793   0.56990   0.08643  Uani   1.00
H273   H     0.19220   0.99360   0.58680   0.10300  Uiso   1.00
C274   C     0.18879   0.95844   0.51300   0.10033  Uani   1.00
C275   C     0.03497   0.89274   0.76562   0.07667  Uani   1.00
H276   H     0.05370   0.87260   0.74830   0.09200  Uiso   1.00
C277   C     0.00884   0.93157   0.85420   0.09777  Uani   1.00
H278   H     0.00860   0.93780   0.89690   0.11700  Uiso   1.00
C279   C    -0.11649   0.84696   1.07930   0.10410  Uani   1.00
C280   C    -0.01903   0.95166   0.81120   0.10723  Uani   1.00
H281   H    -0.03660   0.97340   0.82670   0.12900  Uiso   1.00
C282   C     0.35740   0.94741   0.67212   0.08373  Uani   1.00
H283   H     0.37580   0.96740   0.65370   0.10100  Uiso   1.00
C284   C     0.20076   0.91946   0.48840   0.09800  Uani   1.00
H285   H     0.18990   0.91120   0.44950   0.11800  Uiso   1.00
N286   N    -0.11544   0.88118   1.05450   0.14333  Uani   1.00
C287   C     0.13570   0.97013   0.92380   0.12467  Uani   1.00
H288   H     0.14640   0.99480   0.90530   0.14900  Uiso   1.00
C289   C     0.13472   0.92081   1.00530   0.12500  Uani   1.00
H290   H     0.14350   0.91130   1.04470   0.15000  Uiso   1.00
C291   C     0.00518   0.91353   0.72710   0.09787  Uani   1.00
H292   H     0.00420   0.90740   0.68440   0.11800  Uiso   1.00
N293   N     0.44505   0.87419   0.42450   0.16767  Uani   1.00
C294   C     0.22779   0.94162   0.60667   0.08163  Uani   1.00
H295   H     0.23600   0.94940   0.64720   0.09800  Uiso   1.00
C296   C     0.14840   0.96043   0.98480   0.11400  Uani   1.00
C297   C    -0.11552   0.68024   1.18650   0.11317  Uani   1.00
H298   H    -0.13270   0.66990   1.21930   0.13600  Uiso   1.00
C299   C    -0.08759   0.65252   1.15870   0.12567  Uani   1.00
H300   H    -0.08730   0.62390   1.16910   0.15100  Uiso   1.00
C301   C     0.18820   1.02216   0.44510   0.12267  Uani   1.00
H302   H     0.21020   1.00890   0.41860   0.14700  Uiso   1.00
H303   H     0.20360   1.03760   0.47770   0.14700  Uiso   1.00
C304   C     0.39307   0.96199   0.77640   0.13200  Uani   1.00
H305   H     0.37860   0.96960   0.81540   0.15900  Uiso   1.00
H306   H     0.40360   0.98780   0.75680   0.15900  Uiso   1.00
C307   C    -0.05694   0.96374   0.71050   0.14800  Uani   1.00
H308   H    -0.08480   0.96580   0.73240   0.17800  Uiso   1.00
H309   H    -0.06120   0.94760   0.67230   0.17800  Uiso   1.00
C310   C     0.16142   0.98811   0.47560   0.12667  Uani   1.00
H311   H     0.13970   1.00100   0.50280   0.15200  Uiso   1.00
H312   H     0.14590   0.97240   0.44340   0.15200  Uiso   1.00
C313   C     0.14710   1.01880   1.06190   0.36200  Uani   1.00
H314   H     0.11940   1.00690   1.07590   0.43500  Uiso   1.00
H315   H     0.14240   1.04590   1.04150   0.43500  Uiso   1.00
C316   C     0.17420   0.98850   1.02330   0.18433  Uani   1.00
H317   H     0.19380   1.00470   0.99640   0.22100  Uiso   1.00
H318   H     0.19230   0.97170   1.05130   0.22100  Uiso   1.00
C319   C     0.18940   1.08720   0.37910   0.31367  Uani   1.00
H320   H     0.21360   1.07460   0.35610   0.37600  Uiso   1.00
H321   H     0.20190   1.10360   0.41320   0.37600  Uiso   1.00
C322   C     0.16260   1.05327   0.40600   0.16933  Uani   1.00
H323   H     0.14830   1.03810   0.37210   0.20300  Uiso   1.00
H324   H     0.13980   1.06580   0.43190   0.20300  Uiso   1.00
C325   C     0.43314   0.93240   0.79110   0.18200  Uani   1.00
H326   H     0.42260   0.90460   0.80270   0.21800  Uiso   1.00
H327   H     0.45120   0.92950   0.75390   0.21800  Uiso   1.00
C328   C     0.46030   0.95040   0.84380   0.28700  Uani   1.00
H329   H     0.44180   0.95770   0.87930   0.34400  Uiso   1.00
H330   H     0.47580   0.97560   0.83010   0.34400  Uiso   1.00
C331   C     0.00250   1.04750   0.61550   0.42667  Uani   1.00
H332   H     0.01590   1.06600   0.64640   0.51400  Uiso   1.00
H333   H    -0.02210   1.06150   0.59510   0.51400  Uiso   1.00
C334   C    -0.03930   1.00740   0.69550   0.30700  Uani   1.00
H335   H    -0.06340   1.02640   0.68570   0.36800  Uiso   1.00
H336   H    -0.02370   1.01870   0.73160   0.36800  Uiso   1.00
C337   C    -0.00910   1.00440   0.64110   0.36600  Uani   1.00
H338   H    -0.02290   0.98770   0.60830   0.44100  Uiso   1.00
H339   H     0.01760   0.99000   0.65390   0.44100  Uiso   1.00
C340   C     0.19370   1.06510   1.10060   0.35767  Uani   1.00
H341   H     0.16880   1.07890   1.08080   0.43100  Uiso   1.00
H342   H     0.21800   1.06590   1.07130   0.43100  Uiso   1.00
C343   C     0.18200   1.02020   1.11280   0.55333  Uani   1.00
H344   H     0.17010   1.01570   1.15450   0.66300  Uiso   1.00
H345   H     0.20620   1.00090   1.10500   0.66300  Uiso   1.00
C346   C     0.16530   1.11680   0.33580   0.42800  Uani   1.00
H347   H     0.14840   1.13650   0.36110   0.51500  Uiso   1.00
H348   H     0.14460   1.10040   0.31110   0.51500  Uiso   1.00
C349   C     0.51950   0.96620   0.96130   0.18100  Uani   1.00
H350   H     0.53750   0.99010   0.95030   0.27200  Uiso   1.00
H351   H     0.52900   0.95510   1.00110   0.27200  Uiso   1.00
H352   H     0.48940   0.97500   0.96430   0.27200  Uiso   1.00
C353   C     0.52380   0.93280   0.91210   0.32300  Uani   1.00
H354   H     0.53280   0.90790   0.93560   0.38800  Uiso   1.00
H355   H     0.54970   0.94130   0.88860   0.38800  Uiso   1.00
C356   C     0.06140   1.06100   0.53450   0.35700  Uani   1.00
H357   H     0.04200   1.08210   0.51760   0.53600  Uiso   1.00
H358   H     0.07690   1.04750   0.50070   0.53600  Uiso   1.00
H359   H     0.08210   1.07420   0.56240   0.53600  Uiso   1.00
C360   C     0.03530   1.02880   0.56960   0.45100  Uani   1.00
H361   H     0.05530   1.01060   0.59250   0.54100  Uiso   1.00
H362   H     0.01950   1.01130   0.53970   0.54100  Uiso   1.00
C363   C     0.24150   1.11980   1.13610   0.49000  Uani   1.00
H364   H     0.24730   1.11440   1.09250   0.73600  Uiso   1.00
H365   H     0.26780   1.11550   1.16010   0.73600  Uiso   1.00
H366   H     0.23170   1.14850   1.14110   0.73600  Uiso   1.00
C367   C     0.20640   1.09020   1.15890   0.87000  Uani   1.00
H368   H     0.18140   1.10570   1.17530   1.04500  Uiso   1.00
H369   H     0.21760   1.07160   1.19150   1.04500  Uiso   1.00
C370   C     0.49320   0.91500   0.86180   0.48867  Uani   1.00
H371   H     0.47750   0.89050   0.87790   0.58400  Uiso   1.00
H372   H     0.51000   0.90630   0.82530   0.58400  Uiso   1.00
C373   C     0.19470   1.14190   0.29130   0.64467  Uani   1.00
H374   H     0.22450   1.13240   0.29540   0.96500  Uiso   1.00
H375   H     0.19300   1.17140   0.30160   0.96500  Uiso   1.00
H376   H     0.18500   1.13770   0.24880   0.96500  Uiso   1.00
S377   S     0.02710   0.72739   0.55489   0.06707  Uani   1.00
S378   S     0.30530   0.73310   0.95125   0.06403  Uani   1.00
C379   C     0.14047   0.71956   0.71328   0.04790  Uani   1.00
C380   C     0.24693   0.69679   0.85926   0.05123  Uani   1.00
C381   C     0.19488   0.72012   0.78936   0.04827  Uani   1.00
C382   C     0.05292   0.69289   0.59789   0.05720  Uani   1.00
C383   C     0.10933   0.72822   0.67019   0.05750  Uani   1.00
H384   H     0.10270   0.75570   0.65780   0.06900  Uiso   1.00
C385   C     0.18590   0.67939   0.77634   0.05383  Uani   1.00
C386   C     0.15063   0.67872   0.72890   0.05570  Uani   1.00
O387   O    -0.01096   0.78176   0.48214   0.08887  Uani   1.00
C388   C     0.12904   0.64416   0.70259   0.05947  Uani   1.00
H389   H     0.13640   0.61640   0.71290   0.07100  Uiso   1.00
C390   C     0.20713   0.64652   0.80121   0.05603  Uani   1.00
H391   H     0.20110   0.61880   0.78940   0.06700  Uiso   1.00
C392   C     0.27984   0.69759   0.90847   0.05700  Uani   1.00
C393   C     0.22566   0.73114   0.83216   0.05617  Uani   1.00
H394   H     0.23200   0.75910   0.84250   0.06700  Uiso   1.00
C395   C     0.29331   0.65673   0.91844   0.06387  Uani   1.00
C396   C     0.08820   0.69375   0.64610   0.05917  Uani   1.00
C397   C     0.09655   0.65334   0.66101   0.05880  Uani   1.00
C398   C     0.04207   0.65193   0.58927   0.06367  Uani   1.00
C399   C     0.26833   0.62591   0.87956   0.06563  Uani   1.00
C400   C     0.06774   0.62239   0.62881   0.06503  Uani   1.00
C401   C     0.36972   0.77538   1.05884   0.07873  Uani   1.00
C402   C     0.29986   0.60348   0.83697   0.06923  Uani   1.00
C403   C     0.33525   0.69480   0.98630   0.06967  Uani   1.00
C404   C    -0.00330   0.68792   0.52318   0.07150  Uani   1.00
C405   C     0.23890   0.65641   0.84606   0.05543  Uani   1.00
C406   C     0.45124   0.78969   1.17844   0.08580  Uani   1.00
H407   H     0.47150   0.77300   1.19980   0.10300  Uiso   1.00
C408   C     0.42164   0.73149   1.10566   0.08077  Uani   1.00
C409   C    -0.03994   0.76637   0.44901   0.07920  Uani   1.00
O410   O     0.34171   0.78956   1.02444   0.09453  Uani   1.00
C411   C     0.38589   0.73199   1.06150   0.07423  Uani   1.00
C412   C     0.00820   0.65024   0.54498   0.07273  Uani   1.00
H413   H    -0.00500   0.62510   0.53210   0.08700  Uiso   1.00
C414   C    -0.05446   0.72367   0.44797   0.07953  Uani   1.00
C415   C     0.44625   0.83217   1.19210   0.09797  Uani   1.00
H416   H     0.46510   0.84430   1.22140   0.11800  Uiso   1.00
C417   C     0.24125   0.59613   0.91902   0.06813  Uani   1.00
C418   C     0.32611   0.65533   0.96447   0.07420  Uani   1.00
H419   H     0.33980   0.63070   0.97830   0.08900  Uiso   1.00
C420   C     0.33105   0.58925   0.73821   0.08387  Uani   1.00
H421   H     0.33160   0.59430   0.69520   0.10100  Uiso   1.00
C422   C    -0.09011   0.72221   0.40260   0.08420  Uani   1.00
C423   C    -0.06352   0.79032   0.40264   0.08463  Uani   1.00
C424   C     0.44915   0.69977   1.11835   0.08053  Uani   1.00
N425   N     0.51579   0.70414   1.19165   0.10160  Uani   1.00
C426   C     0.42484   0.77298   1.13173   0.08620  Uani   1.00
C427   C     0.03739   0.59887   0.67236   0.07013  Uani   1.00
C428   C    -0.05947   0.83083   0.38635   0.09387  Uani   1.00
H429   H    -0.03810   0.84780   0.40490   0.11200  Uiso   1.00
C430   C    -0.12068   0.77842   0.32892   0.09337  Uani   1.00
H431   H    -0.14160   0.76140   0.30950   0.11200  Uiso   1.00
C432   C     0.32848   0.57385   0.86478   0.07407  Uani   1.00
H433   H     0.32760   0.56890   0.90780   0.08900  Uiso   1.00
C434   C     0.22809   0.60677   0.97980   0.08800  Uani   1.00
H435   H     0.23800   0.63170   0.99830   0.10600  Uiso   1.00
C436   C     0.09572   0.59282   0.58840   0.07267  Uani   1.00
C437   C     0.44500   0.66007   1.09419   0.10253  Uani   1.00
C438   C     0.41506   0.85719   1.16476   0.09483  Uani   1.00
H439   H     0.41120   0.88500   1.17790   0.11400  Uiso   1.00
C440   C     0.36972   0.69854   1.03188   0.07923  Uani   1.00
H441   H     0.38310   0.67300   1.04250   0.09500  Uiso   1.00
C442   C     0.30299   0.60964   0.77553   0.07187  Uani   1.00
H443   H     0.28440   0.62950   0.75730   0.08600  Uiso   1.00
C444   C     0.38996   0.84089   1.11842   0.08897  Uani   1.00
H445   H     0.37040   0.85790   1.09610   0.10700  Uiso   1.00
C446   C    -0.03789   0.69014   0.47780   0.08220  Uani   1.00
H447   H    -0.05080   0.66430   0.46750   0.09900  Uiso   1.00
C448   C     0.10858   0.55487   0.60950   0.09733  Uani   1.00
H449   H     0.09840   0.54550   0.64830   0.11700  Uiso   1.00
C450   C     0.39403   0.79909   1.10523   0.08253  Uani   1.00
C451   C     0.10925   0.60386   0.53023   0.08403  Uani   1.00
H452   H     0.10040   0.62990   0.51420   0.10100  Uiso   1.00
C453   C     0.48544   0.70283   1.15731   0.08347  Uani   1.00
C454   C    -0.09341   0.76333   0.37465   0.07973  Uani   1.00
C455   C    -0.15416   0.69404   0.35064   0.10360  Uani   1.00
C456   C    -0.02273   0.55702   0.74820   0.10800  Uani   1.00
C457   C    -0.11885   0.69058   0.39367   0.08143  Uani   1.00
N458   N    -0.18230   0.69572   0.31742   0.12247  Uani   1.00
C459   C     0.36037   0.55930   0.76650   0.09113  Uani   1.00
C460   C     0.20133   0.53207   0.93010   0.08643  Uani   1.00
H461   H     0.19220   0.50640   0.91320   0.10300  Uiso   1.00
C462   C     0.18879   0.54156   0.98700   0.10033  Uani   1.00
C463   C     0.03497   0.60726   0.73438   0.07667  Uani   1.00
H464   H     0.05370   0.62740   0.75170   0.09200  Uiso   1.00
C465   C     0.00884   0.56843   0.64580   0.09777  Uani   1.00
H466   H     0.00860   0.56220   0.60310   0.11700  Uiso   1.00
C467   C    -0.11649   0.65304   0.42070   0.10410  Uani   1.00
C468   C    -0.01903   0.54834   0.68880   0.10723  Uani   1.00
H469   H    -0.03660   0.52660   0.67330   0.12900  Uiso   1.00
C470   C     0.35740   0.55259   0.82788   0.08373  Uani   1.00
H471   H     0.37580   0.53260   0.84630   0.10100  Uiso   1.00
C472   C     0.20076   0.58054   1.01160   0.09800  Uani   1.00
H473   H     0.18990   0.58880   1.05050   0.11800  Uiso   1.00
N474   N    -0.11544   0.61882   0.44550   0.14333  Uani   1.00
C475   C     0.13570   0.52987   0.57620   0.12467  Uani   1.00
H476   H     0.14640   0.50520   0.59470   0.14900  Uiso   1.00
C477   C     0.13472   0.57919   0.49470   0.12500  Uani   1.00
H478   H     0.14350   0.58870   0.45530   0.15000  Uiso   1.00
C479   C     0.00518   0.58647   0.77290   0.09787  Uani   1.00
H480   H     0.00420   0.59260   0.81560   0.11800  Uiso   1.00
N481   N     0.44505   0.62581   1.07550   0.16767  Uani   1.00
C482   C     0.22779   0.55838   0.89333   0.08163  Uani   1.00
H483   H     0.23600   0.55060   0.85280   0.09800  Uiso   1.00
C484   C     0.14840   0.53957   0.51520   0.11400  Uani   1.00
C485   C    -0.11552   0.81976   0.31350   0.11317  Uani   1.00
H486   H    -0.13270   0.83010   0.28070   0.13600  Uiso   1.00
C487   C    -0.08759   0.84748   0.34130   0.12567  Uani   1.00
H488   H    -0.08730   0.87610   0.33090   0.15100  Uiso   1.00
C489   C     0.18820   0.47784   1.05490   0.12267  Uani   1.00
H490   H     0.21020   0.49110   1.08140   0.14700  Uiso   1.00
H491   H     0.20360   0.46240   1.02230   0.14700  Uiso   1.00
C492   C     0.39307   0.53801   0.72360   0.13200  Uani   1.00
H493   H     0.37860   0.53040   0.68460   0.15900  Uiso   1.00
H494   H     0.40360   0.51220   0.74320   0.15900  Uiso   1.00
C495   C    -0.05694   0.53626   0.78950   0.14800  Uani   1.00
H496   H    -0.08480   0.53420   0.76760   0.17800  Uiso   1.00
H497   H    -0.06120   0.55240   0.82770   0.17800  Uiso   1.00
C498   C     0.16142   0.51189   1.02440   0.12667  Uani   1.00
H499   H     0.13970   0.49900   0.99720   0.15200  Uiso   1.00
H500   H     0.14590   0.52760   1.05660   0.15200  Uiso   1.00
C501   C     0.14710   0.48120   0.43810   0.36200  Uani   1.00
H502   H     0.11940   0.49310   0.42410   0.43500  Uiso   1.00
H503   H     0.14240   0.45410   0.45850   0.43500  Uiso   1.00
C504   C     0.17420   0.51150   0.47670   0.18433  Uani   1.00
H505   H     0.19380   0.49530   0.50360   0.22100  Uiso   1.00
H506   H     0.19230   0.52830   0.44870   0.22100  Uiso   1.00
C507   C     0.18940   0.41280   1.12090   0.31367  Uani   1.00
H508   H     0.21360   0.42540   1.14390   0.37600  Uiso   1.00
H509   H     0.20190   0.39640   1.08680   0.37600  Uiso   1.00
C510   C     0.16260   0.44673   1.09400   0.16933  Uani   1.00
H511   H     0.14830   0.46190   1.12790   0.20300  Uiso   1.00
H512   H     0.13980   0.43420   1.06810   0.20300  Uiso   1.00
C513   C     0.43314   0.56760   0.70890   0.18200  Uani   1.00
H514   H     0.42260   0.59540   0.69730   0.21800  Uiso   1.00
H515   H     0.45120   0.57050   0.74610   0.21800  Uiso   1.00
C516   C     0.46030   0.54960   0.65620   0.28700  Uani   1.00
H517   H     0.44180   0.54230   0.62070   0.34400  Uiso   1.00
H518   H     0.47580   0.52440   0.66990   0.34400  Uiso   1.00
C519   C     0.00250   0.45250   0.88450   0.42667  Uani   1.00
H520   H     0.01590   0.43400   0.85360   0.51400  Uiso   1.00
H521   H    -0.02210   0.43850   0.90490   0.51400  Uiso   1.00
C522   C    -0.03930   0.49260   0.80450   0.30700  Uani   1.00
H523   H    -0.06340   0.47360   0.81430   0.36800  Uiso   1.00
H524   H    -0.02370   0.48130   0.76840   0.36800  Uiso   1.00
C525   C    -0.00910   0.49560   0.85890   0.36600  Uani   1.00
H526   H    -0.02290   0.51230   0.89170   0.44100  Uiso   1.00
H527   H     0.01760   0.51000   0.84610   0.44100  Uiso   1.00
C528   C     0.19370   0.43490   0.39940   0.35767  Uani   1.00
H529   H     0.16880   0.42110   0.41920   0.43100  Uiso   1.00
H530   H     0.21800   0.43410   0.42870   0.43100  Uiso   1.00
C531   C     0.18200   0.47980   0.38720   0.55333  Uani   1.00
H532   H     0.17010   0.48430   0.34550   0.66300  Uiso   1.00
H533   H     0.20620   0.49910   0.39500   0.66300  Uiso   1.00
C534   C     0.16530   0.38320   1.16420   0.42800  Uani   1.00
H535   H     0.14840   0.36350   1.13890   0.51500  Uiso   1.00
H536   H     0.14460   0.39960   1.18890   0.51500  Uiso   1.00
C537   C     0.51950   0.53380   0.53870   0.18100  Uani   1.00
H538   H     0.53750   0.50990   0.54970   0.27200  Uiso   1.00
H539   H     0.52900   0.54490   0.49890   0.27200  Uiso   1.00
H540   H     0.48940   0.52500   0.53570   0.27200  Uiso   1.00
C541   C     0.52380   0.56720   0.58790   0.32300  Uani   1.00
H542   H     0.53280   0.59210   0.56440   0.38800  Uiso   1.00
H543   H     0.54970   0.55870   0.61140   0.38800  Uiso   1.00
C544   C     0.06140   0.43900   0.96550   0.35700  Uani   1.00
H545   H     0.04200   0.41790   0.98240   0.53600  Uiso   1.00
H546   H     0.07690   0.45250   0.99930   0.53600  Uiso   1.00
H547   H     0.08210   0.42580   0.93760   0.53600  Uiso   1.00
C548   C     0.03530   0.47120   0.93040   0.45100  Uani   1.00
H549   H     0.05530   0.48940   0.90750   0.54100  Uiso   1.00
H550   H     0.01950   0.48870   0.96030   0.54100  Uiso   1.00
C551   C     0.24150   0.38020   0.36390   0.49000  Uani   1.00
H552   H     0.24730   0.38560   0.40750   0.73600  Uiso   1.00
H553   H     0.26780   0.38450   0.33990   0.73600  Uiso   1.00
H554   H     0.23170   0.35150   0.35890   0.73600  Uiso   1.00
C555   C     0.20640   0.40980   0.34110   0.87000  Uani   1.00
H556   H     0.18140   0.39430   0.32470   1.04500  Uiso   1.00
H557   H     0.21760   0.42840   0.30850   1.04500  Uiso   1.00
C558   C     0.49320   0.58500   0.63820   0.48867  Uani   1.00
H559   H     0.47750   0.60950   0.62210   0.58400  Uiso   1.00
H560   H     0.51000   0.59370   0.67470   0.58400  Uiso   1.00
C561   C     0.19470   0.35810   1.20870   0.64467  Uani   1.00
H562   H     0.22450   0.36760   1.20460   0.96500  Uiso   1.00
H563   H     0.19300   0.32860   1.19840   0.96500  Uiso   1.00
H564   H     0.18500   0.36230   1.25120   0.96500  Uiso   1.00
S565   S     0.47290   0.27261   0.55489   0.06707  Uani   1.00
S566   S     0.19470   0.26690   0.95125   0.06403  Uani   1.00
C567   C     0.35953   0.28044   0.71328   0.04790  Uani   1.00
C568   C     0.25307   0.30321   0.85926   0.05123  Uani   1.00
C569   C     0.30512   0.27988   0.78936   0.04827  Uani   1.00
C570   C     0.44708   0.30711   0.59789   0.05720  Uani   1.00
C571   C     0.39067   0.27178   0.67019   0.05750  Uani   1.00
H572   H     0.39730   0.24430   0.65780   0.06900  Uiso   1.00
C573   C     0.31410   0.32061   0.77634   0.05383  Uani   1.00
C574   C     0.34937   0.32128   0.72890   0.05570  Uani   1.00
O575   O     0.51096   0.21824   0.48214   0.08887  Uani   1.00
C576   C     0.37096   0.35584   0.70259   0.05947  Uani   1.00
H577   H     0.36360   0.38360   0.71290   0.07100  Uiso   1.00
C578   C     0.29287   0.35348   0.80121   0.05603  Uani   1.00
H579   H     0.29890   0.38120   0.78940   0.06700  Uiso   1.00
C580   C     0.22016   0.30241   0.90847   0.05700  Uani   1.00
C581   C     0.27434   0.26886   0.83216   0.05617  Uani   1.00
H582   H     0.26800   0.24090   0.84250   0.06700  Uiso   1.00
C583   C     0.20669   0.34327   0.91844   0.06387  Uani   1.00
C584   C     0.41180   0.30625   0.64610   0.05917  Uani   1.00
C585   C     0.40345   0.34666   0.66101   0.05880  Uani   1.00
C586   C     0.45793   0.34807   0.58927   0.06367  Uani   1.00
C587   C     0.23167   0.37409   0.87956   0.06563  Uani   1.00
C588   C     0.43226   0.37761   0.62881   0.06503  Uani   1.00
C589   C     0.13028   0.22462   1.05884   0.07873  Uani   1.00
C590   C     0.20014   0.39652   0.83697   0.06923  Uani   1.00
C591   C     0.16475   0.30520   0.98630   0.06967  Uani   1.00
C592   C     0.50330   0.31208   0.52318   0.07150  Uani   1.00
C593   C     0.26110   0.34359   0.84606   0.05543  Uani   1.00
C594   C     0.04876   0.21031   1.17844   0.08580  Uani   1.00
H595   H     0.02850   0.22700   1.19980   0.10300  Uiso   1.00
C596   C     0.07836   0.26851   1.10566   0.08077  Uani   1.00
C597   C     0.53994   0.23363   0.44901   0.07920  Uani   1.00
O598   O     0.15829   0.21044   1.02444   0.09453  Uani   1.00
C599   C     0.11411   0.26801   1.06150   0.07423  Uani   1.00
C600   C     0.49180   0.34976   0.54498   0.07273  Uani   1.00
H601   H     0.50500   0.37490   0.53210   0.08700  Uiso   1.00
C602   C     0.55446   0.27633   0.44797   0.07953  Uani   1.00
C603   C     0.05375   0.16783   1.19210   0.09797  Uani   1.00
H604   H     0.03490   0.15570   1.22140   0.11800  Uiso   1.00
C605   C     0.25875   0.40387   0.91902   0.06813  Uani   1.00
C606   C     0.17389   0.34467   0.96447   0.07420  Uani   1.00
H607   H     0.16020   0.36930   0.97830   0.08900  Uiso   1.00
C608   C     0.16895   0.41075   0.73821   0.08387  Uani   1.00
H609   H     0.16840   0.40570   0.69520   0.10100  Uiso   1.00
C610   C     0.59011   0.27779   0.40260   0.08420  Uani   1.00
C611   C     0.56352   0.20968   0.40264   0.08463  Uani   1.00
C612   C     0.05085   0.30023   1.11835   0.08053  Uani   1.00
N613   N    -0.01579   0.29586   1.19165   0.10160  Uani   1.00
C614   C     0.07516   0.22702   1.13173   0.08620  Uani   1.00
C615   C     0.46261   0.40113   0.67236   0.07013  Uani   1.00
C616   C     0.55947   0.16917   0.38635   0.09387  Uani   1.00
H617   H     0.53810   0.15220   0.40490   0.11200  Uiso   1.00
C618   C     0.62068   0.22158   0.32892   0.09337  Uani   1.00
H619   H     0.64160   0.23860   0.30950   0.11200  Uiso   1.00
C620   C     0.17152   0.42615   0.86478   0.07407  Uani   1.00
H621   H     0.17240   0.43110   0.90780   0.08900  Uiso   1.00
C622   C     0.27191   0.39323   0.97980   0.08800  Uani   1.00
H623   H     0.26200   0.36830   0.99830   0.10600  Uiso   1.00
C624   C     0.40428   0.40718   0.58840   0.07267  Uani   1.00
C625   C     0.05500   0.33993   1.09419   0.10253  Uani   1.00
C626   C     0.08494   0.14281   1.16476   0.09483  Uani   1.00
H627   H     0.08880   0.11500   1.17790   0.11400  Uiso   1.00
C628   C     0.13028   0.30146   1.03188   0.07923  Uani   1.00
H629   H     0.11690   0.32700   1.04250   0.09500  Uiso   1.00
C630   C     0.19701   0.39036   0.77553   0.07187  Uani   1.00
H631   H     0.21560   0.37050   0.75730   0.08600  Uiso   1.00
C632   C     0.11004   0.15911   1.11842   0.08897  Uani   1.00
H633   H     0.12960   0.14210   1.09610   0.10700  Uiso   1.00
C634   C     0.53789   0.30986   0.47780   0.08220  Uani   1.00
H635   H     0.55080   0.33570   0.46750   0.09900  Uiso   1.00
C636   C     0.39142   0.44513   0.60950   0.09733  Uani   1.00
H637   H     0.40160   0.45450   0.64830   0.11700  Uiso   1.00
C638   C     0.10597   0.20091   1.10523   0.08253  Uani   1.00
C639   C     0.39075   0.39614   0.53023   0.08403  Uani   1.00
H640   H     0.39960   0.37010   0.51420   0.10100  Uiso   1.00
C641   C     0.01456   0.29717   1.15731   0.08347  Uani   1.00
C642   C     0.59341   0.23667   0.37465   0.07973  Uani   1.00
C643   C     0.65416   0.30596   0.35064   0.10360  Uani   1.00
C644   C     0.52273   0.44298   0.74820   0.10800  Uani   1.00
C645   C     0.61885   0.30942   0.39367   0.08143  Uani   1.00
N646   N     0.68230   0.30428   0.31742   0.12247  Uani   1.00
C647   C     0.13963   0.44070   0.76650   0.09113  Uani   1.00
C648   C     0.29867   0.46793   0.93010   0.08643  Uani   1.00
H649   H     0.30780   0.49360   0.91320   0.10300  Uiso   1.00
C650   C     0.31121   0.45844   0.98700   0.10033  Uani   1.00
C651   C     0.46503   0.39274   0.73438   0.07667  Uani   1.00
H652   H     0.44630   0.37260   0.75170   0.09200  Uiso   1.00
C653   C     0.49116   0.43157   0.64580   0.09777  Uani   1.00
H654   H     0.49140   0.43780   0.60310   0.11700  Uiso   1.00
C655   C     0.61649   0.34696   0.42070   0.10410  Uani   1.00
C656   C     0.51903   0.45166   0.68880   0.10723  Uani   1.00
H657   H     0.53660   0.47340   0.67330   0.12900  Uiso   1.00
C658   C     0.14260   0.44741   0.82788   0.08373  Uani   1.00
H659   H     0.12420   0.46740   0.84630   0.10100  Uiso   1.00
C660   C     0.29924   0.41946   1.01160   0.09800  Uani   1.00
H661   H     0.31010   0.41120   1.05050   0.11800  Uiso   1.00
N662   N     0.61544   0.38118   0.44550   0.14333  Uani   1.00
C663   C     0.36430   0.47013   0.57620   0.12467  Uani   1.00
H664   H     0.35360   0.49480   0.59470   0.14900  Uiso   1.00
C665   C     0.36528   0.42081   0.49470   0.12500  Uani   1.00
H666   H     0.35650   0.41130   0.45530   0.15000  Uiso   1.00
C667   C     0.49482   0.41353   0.77290   0.09787  Uani   1.00
H668   H     0.49580   0.40740   0.81560   0.11800  Uiso   1.00
N669   N     0.05495   0.37419   1.07550   0.16767  Uani   1.00
C670   C     0.27221   0.44162   0.89333   0.08163  Uani   1.00
H671   H     0.26400   0.44940   0.85280   0.09800  Uiso   1.00
C672   C     0.35160   0.46043   0.51520   0.11400  Uani   1.00
C673   C     0.61552   0.18024   0.31350   0.11317  Uani   1.00
H674   H     0.63270   0.16990   0.28070   0.13600  Uiso   1.00
C675   C     0.58759   0.15252   0.34130   0.12567  Uani   1.00
H676   H     0.58730   0.12390   0.33090   0.15100  Uiso   1.00
C677   C     0.31180   0.52216   1.05490   0.12267  Uani   1.00
H678   H     0.28980   0.50890   1.08140   0.14700  Uiso   1.00
H679   H     0.29640   0.53760   1.02230   0.14700  Uiso   1.00
C680   C     0.10693   0.46199   0.72360   0.13200  Uani   1.00
H681   H     0.12140   0.46960   0.68460   0.15900  Uiso   1.00
H682   H     0.09640   0.48780   0.74320   0.15900  Uiso   1.00
C683   C     0.55694   0.46374   0.78950   0.14800  Uani   1.00
H684   H     0.58480   0.46580   0.76760   0.17800  Uiso   1.00
H685   H     0.56120   0.44760   0.82770   0.17800  Uiso   1.00
C686   C     0.33858   0.48811   1.02440   0.12667  Uani   1.00
H687   H     0.36030   0.50100   0.99720   0.15200  Uiso   1.00
H688   H     0.35410   0.47240   1.05660   0.15200  Uiso   1.00
C689   C     0.35290   0.51880   0.43810   0.36200  Uani   1.00
H690   H     0.38060   0.50690   0.42410   0.43500  Uiso   1.00
H691   H     0.35760   0.54590   0.45850   0.43500  Uiso   1.00
C692   C     0.32580   0.48850   0.47670   0.18433  Uani   1.00
H693   H     0.30620   0.50470   0.50360   0.22100  Uiso   1.00
H694   H     0.30770   0.47170   0.44870   0.22100  Uiso   1.00
C695   C     0.31060   0.58720   1.12090   0.31367  Uani   1.00
H696   H     0.28640   0.57460   1.14390   0.37600  Uiso   1.00
H697   H     0.29810   0.60360   1.08680   0.37600  Uiso   1.00
C698   C     0.33740   0.55327   1.09400   0.16933  Uani   1.00
H699   H     0.35170   0.53810   1.12790   0.20300  Uiso   1.00
H700   H     0.36020   0.56580   1.06810   0.20300  Uiso   1.00
C701   C     0.06686   0.43240   0.70890   0.18200  Uani   1.00
H702   H     0.07740   0.40460   0.69730   0.21800  Uiso   1.00
H703   H     0.04880   0.42950   0.74610   0.21800  Uiso   1.00
C704   C     0.03970   0.45040   0.65620   0.28700  Uani   1.00
H705   H     0.05820   0.45770   0.62070   0.34400  Uiso   1.00
H706   H     0.02420   0.47560   0.66990   0.34400  Uiso   1.00
C707   C     0.49750   0.54750   0.88450   0.42667  Uani   1.00
H708   H     0.48410   0.56600   0.85360   0.51400  Uiso   1.00
H709   H     0.52210   0.56150   0.90490   0.51400  Uiso   1.00
C710   C     0.53930   0.50740   0.80450   0.30700  Uani   1.00
H711   H     0.56340   0.52640   0.81430   0.36800  Uiso   1.00
H712   H     0.52370   0.51870   0.76840   0.36800  Uiso   1.00
C713   C     0.50910   0.50440   0.85890   0.36600  Uani   1.00
H714   H     0.52290   0.48770   0.89170   0.44100  Uiso   1.00
H715   H     0.48240   0.49000   0.84610   0.44100  Uiso   1.00
C716   C     0.30630   0.56510   0.39940   0.35767  Uani   1.00
H717   H     0.33120   0.57890   0.41920   0.43100  Uiso   1.00
H718   H     0.28200   0.56590   0.42870   0.43100  Uiso   1.00
C719   C     0.31800   0.52020   0.38720   0.55333  Uani   1.00
H720   H     0.32990   0.51570   0.34550   0.66300  Uiso   1.00
H721   H     0.29380   0.50090   0.39500   0.66300  Uiso   1.00
C722   C     0.33470   0.61680   1.16420   0.42800  Uani   1.00
H723   H     0.35160   0.63650   1.13890   0.51500  Uiso   1.00
H724   H     0.35540   0.60040   1.18890   0.51500  Uiso   1.00
C725   C    -0.01950   0.46620   0.53870   0.18100  Uani   1.00
H726   H    -0.03750   0.49010   0.54970   0.27200  Uiso   1.00
H727   H    -0.02900   0.45510   0.49890   0.27200  Uiso   1.00
H728   H     0.01060   0.47500   0.53570   0.27200  Uiso   1.00
C729   C    -0.02380   0.43280   0.58790   0.32300  Uani   1.00
H730   H    -0.03280   0.40790   0.56440   0.38800  Uiso   1.00
H731   H    -0.04970   0.44130   0.61140   0.38800  Uiso   1.00
C732   C     0.43860   0.56100   0.96550   0.35700  Uani   1.00
H733   H     0.45800   0.58210   0.98240   0.53600  Uiso   1.00
H734   H     0.42310   0.54750   0.99930   0.53600  Uiso   1.00
H735   H     0.41790   0.57420   0.93760   0.53600  Uiso   1.00
C736   C     0.46470   0.52880   0.93040   0.45100  Uani   1.00
H737   H     0.44470   0.51060   0.90750   0.54100  Uiso   1.00
H738   H     0.48050   0.51130   0.96030   0.54100  Uiso   1.00
C739   C     0.25850   0.61980   0.36390   0.49000  Uani   1.00
H740   H     0.25270   0.61440   0.40750   0.73600  Uiso   1.00
H741   H     0.23220   0.61550   0.33990   0.73600  Uiso   1.00
H742   H     0.26830   0.64850   0.35890   0.73600  Uiso   1.00
C743   C     0.29360   0.59020   0.34110   0.87000  Uani   1.00
H744   H     0.31860   0.60570   0.32470   1.04500  Uiso   1.00
H745   H     0.28240   0.57160   0.30850   1.04500  Uiso   1.00
C746   C     0.00680   0.41500   0.63820   0.48867  Uani   1.00
H747   H     0.02250   0.39050   0.62210   0.58400  Uiso   1.00
H748   H    -0.01000   0.40630   0.67470   0.58400  Uiso   1.00
C749   C     0.30530   0.64190   1.20870   0.64467  Uani   1.00
H750   H     0.27550   0.63240   1.20460   0.96500  Uiso   1.00
H751   H     0.30700   0.67140   1.19840   0.96500  Uiso   1.00
H752   H     0.31500   0.63770   1.25120   0.96500  Uiso   1.00
S753   S     0.52710   0.77261   0.05489   0.06707  Uani   1.00
S754   S     0.80530   0.76690   0.45125   0.06403  Uani   1.00
C755   C     0.64047   0.78044   0.21328   0.04790  Uani   1.00
C756   C     0.74693   0.80321   0.35926   0.05123  Uani   1.00
C757   C     0.69488   0.77988   0.28936   0.04827  Uani   1.00
C758   C     0.55292   0.80711   0.09789   0.05720  Uani   1.00
C759   C     0.60933   0.77178   0.17019   0.05750  Uani   1.00
H760   H     0.60270   0.74430   0.15780   0.06900  Uiso   1.00
C761   C     0.68590   0.82061   0.27634   0.05383  Uani   1.00
C762   C     0.65063   0.82128   0.22890   0.05570  Uani   1.00
O763   O     0.48904   0.71824  -0.01786   0.08887  Uani   1.00
C764   C     0.62904   0.85584   0.20259   0.05947  Uani   1.00
H765   H     0.63640   0.88360   0.21290   0.07100  Uiso   1.00
C766   C     0.70713   0.85348   0.30121   0.05603  Uani   1.00
H767   H     0.70110   0.88120   0.28940   0.06700  Uiso   1.00
C768   C     0.77984   0.80241   0.40847   0.05700  Uani   1.00
C769   C     0.72566   0.76886   0.33216   0.05617  Uani   1.00
H770   H     0.73200   0.74090   0.34250   0.06700  Uiso   1.00
C771   C     0.79331   0.84327   0.41844   0.06387  Uani   1.00
C772   C     0.58820   0.80625   0.14610   0.05917  Uani   1.00
C773   C     0.59655   0.84666   0.16101   0.05880  Uani   1.00
C774   C     0.54207   0.84807   0.08927   0.06367  Uani   1.00
C775   C     0.76833   0.87409   0.37956   0.06563  Uani   1.00
C776   C     0.56774   0.87761   0.12881   0.06503  Uani   1.00
C777   C     0.86972   0.72462   0.55884   0.07873  Uani   1.00
C778   C     0.79986   0.89652   0.33697   0.06923  Uani   1.00
C779   C     0.83525   0.80520   0.48630   0.06967  Uani   1.00
C780   C     0.49670   0.81208   0.02318   0.07150  Uani   1.00
C781   C     0.73890   0.84359   0.34606   0.05543  Uani   1.00
C782   C     0.95124   0.71031   0.67844   0.08580  Uani   1.00
H783   H     0.97150   0.72700   0.69980   0.10300  Uiso   1.00
C784   C     0.92164   0.76851   0.60566   0.08077  Uani   1.00
C785   C     0.46006   0.73363  -0.05099   0.07920  Uani   1.00
O786   O     0.84171   0.71044   0.52444   0.09453  Uani   1.00
C787   C     0.88589   0.76801   0.56150   0.07423  Uani   1.00
C788   C     0.50820   0.84976   0.04498   0.07273  Uani   1.00
H789   H     0.49500   0.87490   0.03210   0.08700  Uiso   1.00
C790   C     0.44554   0.77633  -0.05203   0.07953  Uani   1.00
C791   C     0.94625   0.66783   0.69210   0.09797  Uani   1.00
H792   H     0.96510   0.65570   0.72140   0.11800  Uiso   1.00
C793   C     0.74125   0.90387   0.41902   0.06813  Uani   1.00
C794   C     0.82611   0.84467   0.46447   0.07420  Uani   1.00
H795   H     0.83980   0.86930   0.47830   0.08900  Uiso   1.00
C796   C     0.83105   0.91075   0.23821   0.08387  Uani   1.00
H797   H     0.83160   0.90570   0.19520   0.10100  Uiso   1.00
C798   C     0.40989   0.77779  -0.09740   0.08420  Uani   1.00
C799   C     0.43648   0.70968  -0.09736   0.08463  Uani   1.00
C800   C     0.94915   0.80023   0.61835   0.08053  Uani   1.00
N801   N     1.01579   0.79586   0.69165   0.10160  Uani   1.00
C802   C     0.92484   0.72702   0.63173   0.08620  Uani   1.00
C803   C     0.53739   0.90113   0.17236   0.07013  Uani   1.00
C804   C     0.44053   0.66917  -0.11365   0.09387  Uani   1.00
H805   H     0.46190   0.65220  -0.09510   0.11200  Uiso   1.00
C806   C     0.37932   0.72158  -0.17108   0.09337  Uani   1.00
H807   H     0.35840   0.73860  -0.19050   0.11200  Uiso   1.00
C808   C     0.82848   0.92615   0.36478   0.07407  Uani   1.00
H809   H     0.82760   0.93110   0.40780   0.08900  Uiso   1.00
C810   C     0.72809   0.89323   0.47980   0.08800  Uani   1.00
H811   H     0.73800   0.86830   0.49830   0.10600  Uiso   1.00
C812   C     0.59572   0.90718   0.08840   0.07267  Uani   1.00
C813   C     0.94500   0.83993   0.59419   0.10253  Uani   1.00
C814   C     0.91506   0.64281   0.66476   0.09483  Uani   1.00
H815   H     0.91120   0.61500   0.67790   0.11400  Uiso   1.00
C816   C     0.86972   0.80146   0.53188   0.07923  Uani   1.00
H817   H     0.88310   0.82700   0.54250   0.09500  Uiso   1.00
C818   C     0.80299   0.89036   0.27553   0.07187  Uani   1.00
H819   H     0.78440   0.87050   0.25730   0.08600  Uiso   1.00
C820   C     0.88996   0.65911   0.61842   0.08897  Uani   1.00
H821   H     0.87040   0.64210   0.59610   0.10700  Uiso   1.00
C822   C     0.46211   0.80986  -0.02220   0.08220  Uani   1.00
H823   H     0.44920   0.83570  -0.03250   0.09900  Uiso   1.00
C824   C     0.60858   0.94513   0.10950   0.09733  Uani   1.00
H825   H     0.59840   0.95450   0.14830   0.11700  Uiso   1.00
C826   C     0.89403   0.70091   0.60523   0.08253  Uani   1.00
C827   C     0.60925   0.89614   0.03023   0.08403  Uani   1.00
H828   H     0.60040   0.87010   0.01420   0.10100  Uiso   1.00
C829   C     0.98544   0.79717   0.65731   0.08347  Uani   1.00
C830   C     0.40659   0.73667  -0.12535   0.07973  Uani   1.00
C831   C     0.34584   0.80596  -0.14936   0.10360  Uani   1.00
C832   C     0.47727   0.94298   0.24820   0.10800  Uani   1.00
C833   C     0.38115   0.80942  -0.10633   0.08143  Uani   1.00
N834   N     0.31770   0.80428  -0.18258   0.12247  Uani   1.00
C835   C     0.86037   0.94070   0.26650   0.09113  Uani   1.00
C836   C     0.70133   0.96793   0.43010   0.08643  Uani   1.00
H837   H     0.69220   0.99360   0.41320   0.10300  Uiso   1.00
C838   C     0.68879   0.95844   0.48700   0.10033  Uani   1.00
C839   C     0.53497   0.89274   0.23438   0.07667  Uani   1.00
H840   H     0.55370   0.87260   0.25170   0.09200  Uiso   1.00
C841   C     0.50884   0.93157   0.14580   0.09777  Uani   1.00
H842   H     0.50860   0.93780   0.10310   0.11700  Uiso   1.00
C843   C     0.38351   0.84696  -0.07930   0.10410  Uani   1.00
C844   C     0.48097   0.95166   0.18880   0.10723  Uani   1.00
H845   H     0.46340   0.97340   0.17330   0.12900  Uiso   1.00
C846   C     0.85740   0.94741   0.32788   0.08373  Uani   1.00
H847   H     0.87580   0.96740   0.34630   0.10100  Uiso   1.00
C848   C     0.70076   0.91946   0.51160   0.09800  Uani   1.00
H849   H     0.68990   0.91120   0.55050   0.11800  Uiso   1.00
N850   N     0.38456   0.88118  -0.05450   0.14333  Uani   1.00
C851   C     0.63570   0.97013   0.07620   0.12467  Uani   1.00
H852   H     0.64640   0.99480   0.09470   0.14900  Uiso   1.00
C853   C     0.63472   0.92081  -0.00530   0.12500  Uani   1.00
H854   H     0.64350   0.91130  -0.04470   0.15000  Uiso   1.00
C855   C     0.50518   0.91353   0.27290   0.09787  Uani   1.00
H856   H     0.50420   0.90740   0.31560   0.11800  Uiso   1.00
N857   N     0.94505   0.87419   0.57550   0.16767  Uani   1.00
C858   C     0.72779   0.94162   0.39333   0.08163  Uani   1.00
H859   H     0.73600   0.94940   0.35280   0.09800  Uiso   1.00
C860   C     0.64840   0.96043   0.01520   0.11400  Uani   1.00
C861   C     0.38448   0.68024  -0.18650   0.11317  Uani   1.00
H862   H     0.36730   0.66990  -0.21930   0.13600  Uiso   1.00
C863   C     0.41241   0.65252  -0.15870   0.12567  Uani   1.00
H864   H     0.41270   0.62390  -0.16910   0.15100  Uiso   1.00
C865   C     0.68820   1.02216   0.55490   0.12267  Uani   1.00
H866   H     0.71020   1.00890   0.58140   0.14700  Uiso   1.00
H867   H     0.70360   1.03760   0.52230   0.14700  Uiso   1.00
C868   C     0.89307   0.96199   0.22360   0.13200  Uani   1.00
H869   H     0.87860   0.96960   0.18460   0.15900  Uiso   1.00
H870   H     0.90360   0.98780   0.24320   0.15900  Uiso   1.00
C871   C     0.44306   0.96374   0.28950   0.14800  Uani   1.00
H872   H     0.41520   0.96580   0.26760   0.17800  Uiso   1.00
H873   H     0.43880   0.94760   0.32770   0.17800  Uiso   1.00
C874   C     0.66142   0.98811   0.52440   0.12667  Uani   1.00
H875   H     0.63970   1.00100   0.49720   0.15200  Uiso   1.00
H876   H     0.64590   0.97240   0.55660   0.15200  Uiso   1.00
C877   C     0.64710   1.01880  -0.06190   0.36200  Uani   1.00
H878   H     0.61940   1.00690  -0.07590   0.43500  Uiso   1.00
H879   H     0.64240   1.04590  -0.04150   0.43500  Uiso   1.00
C880   C     0.67420   0.98850  -0.02330   0.18433  Uani   1.00
H881   H     0.69380   1.00470   0.00360   0.22100  Uiso   1.00
H882   H     0.69230   0.97170  -0.05130   0.22100  Uiso   1.00
C883   C     0.68940   1.08720   0.62090   0.31367  Uani   1.00
H884   H     0.71360   1.07460   0.64390   0.37600  Uiso   1.00
H885   H     0.70190   1.10360   0.58680   0.37600  Uiso   1.00
C886   C     0.66260   1.05327   0.59400   0.16933  Uani   1.00
H887   H     0.64830   1.03810   0.62790   0.20300  Uiso   1.00
H888   H     0.63980   1.06580   0.56810   0.20300  Uiso   1.00
C889   C     0.93314   0.93240   0.20890   0.18200  Uani   1.00
H890   H     0.92260   0.90460   0.19730   0.21800  Uiso   1.00
H891   H     0.95120   0.92950   0.24610   0.21800  Uiso   1.00
C892   C     0.96030   0.95040   0.15620   0.28700  Uani   1.00
H893   H     0.94180   0.95770   0.12070   0.34400  Uiso   1.00
H894   H     0.97580   0.97560   0.16990   0.34400  Uiso   1.00
C895   C     0.50250   1.04750   0.38450   0.42667  Uani   1.00
H896   H     0.51590   1.06600   0.35360   0.51400  Uiso   1.00
H897   H     0.47790   1.06150   0.40490   0.51400  Uiso   1.00
C898   C     0.46070   1.00740   0.30450   0.30700  Uani   1.00
H899   H     0.43660   1.02640   0.31430   0.36800  Uiso   1.00
H900   H     0.47630   1.01870   0.26840   0.36800  Uiso   1.00
C901   C     0.49090   1.00440   0.35890   0.36600  Uani   1.00
H902   H     0.47710   0.98770   0.39170   0.44100  Uiso   1.00
H903   H     0.51760   0.99000   0.34610   0.44100  Uiso   1.00
C904   C     0.69370   1.06510  -0.10060   0.35767  Uani   1.00
H905   H     0.66880   1.07890  -0.08080   0.43100  Uiso   1.00
H906   H     0.71800   1.06590  -0.07130   0.43100  Uiso   1.00
C907   C     0.68200   1.02020  -0.11280   0.55333  Uani   1.00
H908   H     0.67010   1.01570  -0.15450   0.66300  Uiso   1.00
H909   H     0.70620   1.00090  -0.10500   0.66300  Uiso   1.00
C910   C     0.66530   1.11680   0.66420   0.42800  Uani   1.00
H911   H     0.64840   1.13650   0.63890   0.51500  Uiso   1.00
H912   H     0.64460   1.10040   0.68890   0.51500  Uiso   1.00
C913   C     1.01950   0.96620   0.03870   0.18100  Uani   1.00
H914   H     1.03750   0.99010   0.04970   0.27200  Uiso   1.00
H915   H     1.02900   0.95510  -0.00110   0.27200  Uiso   1.00
H916   H     0.98940   0.97500   0.03570   0.27200  Uiso   1.00
C917   C     1.02380   0.93280   0.08790   0.32300  Uani   1.00
H918   H     1.03280   0.90790   0.06440   0.38800  Uiso   1.00
H919   H     1.04970   0.94130   0.11140   0.38800  Uiso   1.00
C920   C     0.56140   1.06100   0.46550   0.35700  Uani   1.00
H921   H     0.54200   1.08210   0.48240   0.53600  Uiso   1.00
H922   H     0.57690   1.04750   0.49930   0.53600  Uiso   1.00
H923   H     0.58210   1.07420   0.43760   0.53600  Uiso   1.00
C924   C     0.53530   1.02880   0.43040   0.45100  Uani   1.00
H925   H     0.55530   1.01060   0.40750   0.54100  Uiso   1.00
H926   H     0.51950   1.01130   0.46030   0.54100  Uiso   1.00
C927   C     0.74150   1.11980  -0.13610   0.49000  Uani   1.00
H928   H     0.74730   1.11440  -0.09250   0.73600  Uiso   1.00
H929   H     0.76780   1.11550  -0.16010   0.73600  Uiso   1.00
H930   H     0.73170   1.14850  -0.14110   0.73600  Uiso   1.00
C931   C     0.70640   1.09020  -0.15890   0.87000  Uani   1.00
H932   H     0.68140   1.10570  -0.17530   1.04500  Uiso   1.00
H933   H     0.71760   1.07160  -0.19150   1.04500  Uiso   1.00
C934   C     0.99320   0.91500   0.13820   0.48867  Uani   1.00
H935   H     0.97750   0.89050   0.12210   0.58400  Uiso   1.00
H936   H     1.01000   0.90630   0.17470   0.58400  Uiso   1.00
C937   C     0.69470   1.14190   0.70870   0.64467  Uani   1.00
H938   H     0.72450   1.13240   0.70460   0.96500  Uiso   1.00
H939   H     0.69300   1.17140   0.69840   0.96500  Uiso   1.00
H940   H     0.68500   1.13770   0.75120   0.96500  Uiso   1.00
S941   S     0.97290   0.22739   0.05489   0.06707  Uani   1.00
S942   S     0.69470   0.23310   0.45125   0.06403  Uani   1.00
C943   C     0.85953   0.21956   0.21328   0.04790  Uani   1.00
C944   C     0.75307   0.19679   0.35926   0.05123  Uani   1.00
C945   C     0.80512   0.22012   0.28936   0.04827  Uani   1.00
C946   C     0.94708   0.19289   0.09789   0.05720  Uani   1.00
C947   C     0.89067   0.22822   0.17019   0.05750  Uani   1.00
H948   H     0.89730   0.25570   0.15780   0.06900  Uiso   1.00
C949   C     0.81410   0.17939   0.27634   0.05383  Uani   1.00
C950   C     0.84937   0.17872   0.22890   0.05570  Uani   1.00
O951   O     1.01096   0.28176  -0.01786   0.08887  Uani   1.00
C952   C     0.87096   0.14416   0.20259   0.05947  Uani   1.00
H953   H     0.86360   0.11640   0.21290   0.07100  Uiso   1.00
C954   C     0.79287   0.14652   0.30121   0.05603  Uani   1.00
H955   H     0.79890   0.11880   0.28940   0.06700  Uiso   1.00
C956   C     0.72016   0.19759   0.40847   0.05700  Uani   1.00
C957   C     0.77434   0.23114   0.33216   0.05617  Uani   1.00
H958   H     0.76800   0.25910   0.34250   0.06700  Uiso   1.00
C959   C     0.70669   0.15673   0.41844   0.06387  Uani   1.00
C960   C     0.91180   0.19375   0.14610   0.05917  Uani   1.00
C961   C     0.90345   0.15334   0.16101   0.05880  Uani   1.00
C962   C     0.95793   0.15193   0.08927   0.06367  Uani   1.00
C963   C     0.73167   0.12591   0.37956   0.06563  Uani   1.00
C964   C     0.93226   0.12239   0.12881   0.06503  Uani   1.00
C965   C     0.63028   0.27538   0.55884   0.07873  Uani   1.00
C966   C     0.70014   0.10348   0.33697   0.06923  Uani   1.00
C967   C     0.66475   0.19480   0.48630   0.06967  Uani   1.00
C968   C     1.00330   0.18792   0.02318   0.07150  Uani   1.00
C969   C     0.76110   0.15641   0.34606   0.05543  Uani   1.00
C970   C     0.54876   0.28969   0.67844   0.08580  Uani   1.00
H971   H     0.52850   0.27300   0.69980   0.10300  Uiso   1.00
C972   C     0.57836   0.23149   0.60566   0.08077  Uani   1.00
C973   C     1.03994   0.26637  -0.05099   0.07920  Uani   1.00
O974   O     0.65829   0.28956   0.52444   0.09453  Uani   1.00
C975   C     0.61411   0.23199   0.56150   0.07423  Uani   1.00
C976   C     0.99180   0.15024   0.04498   0.07273  Uani   1.00
H977   H     1.00500   0.12510   0.03210   0.08700  Uiso   1.00
C978   C     1.05446   0.22367  -0.05203   0.07953  Uani   1.00
C979   C     0.55375   0.33217   0.69210   0.09797  Uani   1.00
H980   H     0.53490   0.34430   0.72140   0.11800  Uiso   1.00
C981   C     0.75875   0.09613   0.41902   0.06813  Uani   1.00
C982   C     0.67389   0.15533   0.46447   0.07420  Uani   1.00
H983   H     0.66020   0.13070   0.47830   0.08900  Uiso   1.00
C984   C     0.66895   0.08925   0.23821   0.08387  Uani   1.00
H985   H     0.66840   0.09430   0.19520   0.10100  Uiso   1.00
C986   C     1.09011   0.22221  -0.09740   0.08420  Uani   1.00
C987   C     1.06352   0.29032  -0.09736   0.08463  Uani   1.00
C988   C     0.55085   0.19977   0.61835   0.08053  Uani   1.00
N989   N     0.48421   0.20414   0.69165   0.10160  Uani   1.00
C990   C     0.57516   0.27298   0.63173   0.08620  Uani   1.00
C991   C     0.96261   0.09887   0.17236   0.07013  Uani   1.00
C992   C     1.05947   0.33083  -0.11365   0.09387  Uani   1.00
H993   H     1.03810   0.34780  -0.09510   0.11200  Uiso   1.00
C994   C     1.12068   0.27842  -0.17108   0.09337  Uani   1.00
H995   H     1.14160   0.26140  -0.19050   0.11200  Uiso   1.00
C996   C     0.67152   0.07385   0.36478   0.07407  Uani   1.00
H997   H     0.67240   0.06890   0.40780   0.08900  Uiso   1.00
C998   C     0.77191   0.10677   0.47980   0.08800  Uani   1.00
H999   H     0.76200   0.13170   0.49830   0.10600  Uiso   1.00
C1000  C     0.90428   0.09282   0.08840   0.07267  Uani   1.00
C1001  C     0.55500   0.16007   0.59419   0.10253  Uani   1.00
C1002  C     0.58494   0.35719   0.66476   0.09483  Uani   1.00
H1003  H     0.58880   0.38500   0.67790   0.11400  Uiso   1.00
C1004  C     0.63028   0.19854   0.53188   0.07923  Uani   1.00
H1005  H     0.61690   0.17300   0.54250   0.09500  Uiso   1.00
C1006  C     0.69701   0.10964   0.27553   0.07187  Uani   1.00
H1007  H     0.71560   0.12950   0.25730   0.08600  Uiso   1.00
C1008  C     0.61004   0.34089   0.61842   0.08897  Uani   1.00
H1009  H     0.62960   0.35790   0.59610   0.10700  Uiso   1.00
C1010  C     1.03789   0.19014  -0.02220   0.08220  Uani   1.00
H1011  H     1.05080   0.16430  -0.03250   0.09900  Uiso   1.00
C1012  C     0.89142   0.05487   0.10950   0.09733  Uani   1.00
H1013  H     0.90160   0.04550   0.14830   0.11700  Uiso   1.00
C1014  C     0.60597   0.29909   0.60523   0.08253  Uani   1.00
C1015  C     0.89075   0.10386   0.03023   0.08403  Uani   1.00
H1016  H     0.89960   0.12990   0.01420   0.10100  Uiso   1.00
C1017  C     0.51456   0.20283   0.65731   0.08347  Uani   1.00
C1018  C     1.09341   0.26333  -0.12535   0.07973  Uani   1.00
C1019  C     1.15416   0.19404  -0.14936   0.10360  Uani   1.00
C1020  C     1.02273   0.05702   0.24820   0.10800  Uani   1.00
C1021  C     1.11885   0.19058  -0.10633   0.08143  Uani   1.00
N1022  N     1.18230   0.19572  -0.18258   0.12247  Uani   1.00
C1023  C     0.63963   0.05930   0.26650   0.09113  Uani   1.00
C1024  C     0.79867   0.03207   0.43010   0.08643  Uani   1.00
H1025  H     0.80780   0.00640   0.41320   0.10300  Uiso   1.00
C1026  C     0.81121   0.04156   0.48700   0.10033  Uani   1.00
C1027  C     0.96503   0.10726   0.23438   0.07667  Uani   1.00
H1028  H     0.94630   0.12740   0.25170   0.09200  Uiso   1.00
C1029  C     0.99116   0.06843   0.14580   0.09777  Uani   1.00
H1030  H     0.99140   0.06220   0.10310   0.11700  Uiso   1.00
C1031  C     1.11649   0.15304  -0.07930   0.10410  Uani   1.00
C1032  C     1.01903   0.04834   0.18880   0.10723  Uani   1.00
H1033  H     1.03660   0.02660   0.17330   0.12900  Uiso   1.00
C1034  C     0.64260   0.05259   0.32788   0.08373  Uani   1.00
H1035  H     0.62420   0.03260   0.34630   0.10100  Uiso   1.00
C1036  C     0.79924   0.08054   0.51160   0.09800  Uani   1.00
H1037  H     0.81010   0.08880   0.55050   0.11800  Uiso   1.00
N1038  N     1.11544   0.11882  -0.05450   0.14333  Uani   1.00
C1039  C     0.86430   0.02987   0.07620   0.12467  Uani   1.00
H1040  H     0.85360   0.00520   0.09470   0.14900  Uiso   1.00
C1041  C     0.86528   0.07919  -0.00530   0.12500  Uani   1.00
H1042  H     0.85650   0.08870  -0.04470   0.15000  Uiso   1.00
C1043  C     0.99482   0.08647   0.27290   0.09787  Uani   1.00
H1044  H     0.99580   0.09260   0.31560   0.11800  Uiso   1.00
N1045  N     0.55495   0.12581   0.57550   0.16767  Uani   1.00
C1046  C     0.77221   0.05838   0.39333   0.08163  Uani   1.00
H1047  H     0.76400   0.05060   0.35280   0.09800  Uiso   1.00
C1048  C     0.85160   0.03957   0.01520   0.11400  Uani   1.00
C1049  C     1.11552   0.31976  -0.18650   0.11317  Uani   1.00
H1050  H     1.13270   0.33010  -0.21930   0.13600  Uiso   1.00
C1051  C     1.08759   0.34748  -0.15870   0.12567  Uani   1.00
H1052  H     1.08730   0.37610  -0.16910   0.15100  Uiso   1.00
C1053  C     0.81180  -0.02216   0.55490   0.12267  Uani   1.00
H1054  H     0.78980  -0.00890   0.58140   0.14700  Uiso   1.00
H1055  H     0.79640  -0.03760   0.52230   0.14700  Uiso   1.00
C1056  C     0.60693   0.03801   0.22360   0.13200  Uani   1.00
H1057  H     0.62140   0.03040   0.18460   0.15900  Uiso   1.00
H1058  H     0.59640   0.01220   0.24320   0.15900  Uiso   1.00
C1059  C     1.05694   0.03626   0.28950   0.14800  Uani   1.00
H1060  H     1.08480   0.03420   0.26760   0.17800  Uiso   1.00
H1061  H     1.06120   0.05240   0.32770   0.17800  Uiso   1.00
C1062  C     0.83858   0.01189   0.52440   0.12667  Uani   1.00
H1063  H     0.86030  -0.00100   0.49720   0.15200  Uiso   1.00
H1064  H     0.85410   0.02760   0.55660   0.15200  Uiso   1.00
C1065  C     0.85290  -0.01880  -0.06190   0.36200  Uani   1.00
H1066  H     0.88060  -0.00690  -0.07590   0.43500  Uiso   1.00
H1067  H     0.85760  -0.04590  -0.04150   0.43500  Uiso   1.00
C1068  C     0.82580   0.01150  -0.02330   0.18433  Uani   1.00
H1069  H     0.80620  -0.00470   0.00360   0.22100  Uiso   1.00
H1070  H     0.80770   0.02830  -0.05130   0.22100  Uiso   1.00
C1071  C     0.81060  -0.08720   0.62090   0.31367  Uani   1.00
H1072  H     0.78640  -0.07460   0.64390   0.37600  Uiso   1.00
H1073  H     0.79810  -0.10360   0.58680   0.37600  Uiso   1.00
C1074  C     0.83740  -0.05327   0.59400   0.16933  Uani   1.00
H1075  H     0.85170  -0.03810   0.62790   0.20300  Uiso   1.00
H1076  H     0.86020  -0.06580   0.56810   0.20300  Uiso   1.00
C1077  C     0.56686   0.06760   0.20890   0.18200  Uani   1.00
H1078  H     0.57740   0.09540   0.19730   0.21800  Uiso   1.00
H1079  H     0.54880   0.07050   0.24610   0.21800  Uiso   1.00
C1080  C     0.53970   0.04960   0.15620   0.28700  Uani   1.00
H1081  H     0.55820   0.04230   0.12070   0.34400  Uiso   1.00
H1082  H     0.52420   0.02440   0.16990   0.34400  Uiso   1.00
C1083  C     0.99750  -0.04750   0.38450   0.42667  Uani   1.00
H1084  H     0.98410  -0.06600   0.35360   0.51400  Uiso   1.00
H1085  H     1.02210  -0.06150   0.40490   0.51400  Uiso   1.00
C1086  C     1.03930  -0.00740   0.30450   0.30700  Uani   1.00
H1087  H     1.06340  -0.02640   0.31430   0.36800  Uiso   1.00
H1088  H     1.02370  -0.01870   0.26840   0.36800  Uiso   1.00
C1089  C     1.00910  -0.00440   0.35890   0.36600  Uani   1.00
H1090  H     1.02290   0.01230   0.39170   0.44100  Uiso   1.00
H1091  H     0.98240   0.01000   0.34610   0.44100  Uiso   1.00
C1092  C     0.80630  -0.06510  -0.10060   0.35767  Uani   1.00
H1093  H     0.83120  -0.07890  -0.08080   0.43100  Uiso   1.00
H1094  H     0.78200  -0.06590  -0.07130   0.43100  Uiso   1.00
C1095  C     0.81800  -0.02020  -0.11280   0.55333  Uani   1.00
H1096  H     0.82990  -0.01570  -0.15450   0.66300  Uiso   1.00
H1097  H     0.79380  -0.00090  -0.10500   0.66300  Uiso   1.00
C1098  C     0.83470  -0.11680   0.66420   0.42800  Uani   1.00
H1099  H     0.85160  -0.13650   0.63890   0.51500  Uiso   1.00
H1100  H     0.85540  -0.10040   0.68890   0.51500  Uiso   1.00
C1101  C     0.48050   0.03380   0.03870   0.18100  Uani   1.00
H1102  H     0.46250   0.00990   0.04970   0.27200  Uiso   1.00
H1103  H     0.47100   0.04490  -0.00110   0.27200  Uiso   1.00
H1104  H     0.51060   0.02500   0.03570   0.27200  Uiso   1.00
C1105  C     0.47620   0.06720   0.08790   0.32300  Uani   1.00
H1106  H     0.46720   0.09210   0.06440   0.38800  Uiso   1.00
H1107  H     0.45030   0.05870   0.11140   0.38800  Uiso   1.00
C1108  C     0.93860  -0.06100   0.46550   0.35700  Uani   1.00
H1109  H     0.95800  -0.08210   0.48240   0.53600  Uiso   1.00
H1110  H     0.92310  -0.04750   0.49930   0.53600  Uiso   1.00
H1111  H     0.91790  -0.07420   0.43760   0.53600  Uiso   1.00
C1112  C     0.96470  -0.02880   0.43040   0.45100  Uani   1.00
H1113  H     0.94470  -0.01060   0.40750   0.54100  Uiso   1.00
H1114  H     0.98050  -0.01130   0.46030   0.54100  Uiso   1.00
C1115  C     0.75850  -0.11980  -0.13610   0.49000  Uani   1.00
H1116  H     0.75270  -0.11440  -0.09250   0.73600  Uiso   1.00
H1117  H     0.73220  -0.11550  -0.16010   0.73600  Uiso   1.00
H1118  H     0.76830  -0.14850  -0.14110   0.73600  Uiso   1.00
C1119  C     0.79360  -0.09020  -0.15890   0.87000  Uani   1.00
H1120  H     0.81860  -0.10570  -0.17530   1.04500  Uiso   1.00
H1121  H     0.78240  -0.07160  -0.19150   1.04500  Uiso   1.00
C1122  C     0.50680   0.08500   0.13820   0.48867  Uani   1.00
H1123  H     0.52250   0.10950   0.12210   0.58400  Uiso   1.00
H1124  H     0.49000   0.09370   0.17470   0.58400  Uiso   1.00
C1125  C     0.80530  -0.14190   0.70870   0.64467  Uani   1.00
H1126  H     0.77550  -0.13240   0.70460   0.96500  Uiso   1.00
H1127  H     0.80700  -0.17140   0.69840   0.96500  Uiso   1.00
H1128  H     0.81500  -0.13770   0.75120   0.96500  Uiso   1.00
S1129  S     0.97290   0.27261   0.44511   0.06707  Uani   1.00
S1130  S     0.69470   0.26690   0.04875   0.06403  Uani   1.00
C1131  C     0.85953   0.28044   0.28672   0.04790  Uani   1.00
C1132  C     0.75307   0.30321   0.14074   0.05123  Uani   1.00
C1133  C     0.80512   0.27988   0.21064   0.04827  Uani   1.00
C1134  C     0.94708   0.30711   0.40211   0.05720  Uani   1.00
C1135  C     0.89067   0.27178   0.32981   0.05750  Uani   1.00
H1136  H     0.89730   0.24430   0.34220   0.06900  Uiso   1.00
C1137  C     0.81410   0.32061   0.22366   0.05383  Uani   1.00
C1138  C     0.84937   0.32128   0.27110   0.05570  Uani   1.00
O1139  O     1.01096   0.21824   0.51786   0.08887  Uani   1.00
C1140  C     0.87096   0.35584   0.29741   0.05947  Uani   1.00
H1141  H     0.86360   0.38360   0.28710   0.07100  Uiso   1.00
C1142  C     0.79287   0.35348   0.19879   0.05603  Uani   1.00
H1143  H     0.79890   0.38120   0.21060   0.06700  Uiso   1.00
C1144  C     0.72016   0.30241   0.09153   0.05700  Uani   1.00
C1145  C     0.77434   0.26886   0.16784   0.05617  Uani   1.00
H1146  H     0.76800   0.24090   0.15750   0.06700  Uiso   1.00
C1147  C     0.70669   0.34327   0.08156   0.06387  Uani   1.00
C1148  C     0.91180   0.30625   0.35390   0.05917  Uani   1.00
C1149  C     0.90345   0.34666   0.33899   0.05880  Uani   1.00
C1150  C     0.95793   0.34807   0.41073   0.06367  Uani   1.00
C1151  C     0.73167   0.37409   0.12044   0.06563  Uani   1.00
C1152  C     0.93226   0.37761   0.37119   0.06503  Uani   1.00
C1153  C     0.63028   0.22462  -0.05884   0.07873  Uani   1.00
C1154  C     0.70014   0.39652   0.16303   0.06923  Uani   1.00
C1155  C     0.66475   0.30520   0.01370   0.06967  Uani   1.00
C1156  C     1.00330   0.31208   0.47682   0.07150  Uani   1.00
C1157  C     0.76110   0.34359   0.15394   0.05543  Uani   1.00
C1158  C     0.54876   0.21031  -0.17844   0.08580  Uani   1.00
H1159  H     0.52850   0.22700  -0.19980   0.10300  Uiso   1.00
C1160  C     0.57836   0.26851  -0.10566   0.08077  Uani   1.00
C1161  C     1.03994   0.23363   0.55099   0.07920  Uani   1.00
O1162  O     0.65829   0.21044  -0.02444   0.09453  Uani   1.00
C1163  C     0.61411   0.26801  -0.06150   0.07423  Uani   1.00
C1164  C     0.99180   0.34976   0.45502   0.07273  Uani   1.00
H1165  H     1.00500   0.37490   0.46790   0.08700  Uiso   1.00
C1166  C     1.05446   0.27633   0.55203   0.07953  Uani   1.00
C1167  C     0.55375   0.16783  -0.19210   0.09797  Uani   1.00
H1168  H     0.53490   0.15570  -0.22140   0.11800  Uiso   1.00
C1169  C     0.75875   0.40387   0.08098   0.06813  Uani   1.00
C1170  C     0.67389   0.34467   0.03553   0.07420  Uani   1.00
H1171  H     0.66020   0.36930   0.02170   0.08900  Uiso   1.00
C1172  C     0.66895   0.41075   0.26179   0.08387  Uani   1.00
H1173  H     0.66840   0.40570   0.30480   0.10100  Uiso   1.00
C1174  C     1.09011   0.27779   0.59740   0.08420  Uani   1.00
C1175  C     1.06352   0.20968   0.59736   0.08463  Uani   1.00
C1176  C     0.55085   0.30023  -0.11835   0.08053  Uani   1.00
N1177  N     0.48421   0.29586  -0.19165   0.10160  Uani   1.00
C1178  C     0.57516   0.22702  -0.13173   0.08620  Uani   1.00
C1179  C     0.96261   0.40113   0.32764   0.07013  Uani   1.00
C1180  C     1.05947   0.16917   0.61365   0.09387  Uani   1.00
H1181  H     1.03810   0.15220   0.59510   0.11200  Uiso   1.00
C1182  C     1.12068   0.22158   0.67108   0.09337  Uani   1.00
H1183  H     1.14160   0.23860   0.69050   0.11200  Uiso   1.00
C1184  C     0.67152   0.42615   0.13522   0.07407  Uani   1.00
H1185  H     0.67240   0.43110   0.09220   0.08900  Uiso   1.00
C1186  C     0.77191   0.39323   0.02020   0.08800  Uani   1.00
H1187  H     0.76200   0.36830   0.00170   0.10600  Uiso   1.00
C1188  C     0.90428   0.40718   0.41160   0.07267  Uani   1.00
C1189  C     0.55500   0.33993  -0.09419   0.10253  Uani   1.00
C1190  C     0.58494   0.14281  -0.16476   0.09483  Uani   1.00
H1191  H     0.58880   0.11500  -0.17790   0.11400  Uiso   1.00
C1192  C     0.63028   0.30146  -0.03188   0.07923  Uani   1.00
H1193  H     0.61690   0.32700  -0.04250   0.09500  Uiso   1.00
C1194  C     0.69701   0.39036   0.22447   0.07187  Uani   1.00
H1195  H     0.71560   0.37050   0.24270   0.08600  Uiso   1.00
C1196  C     0.61004   0.15911  -0.11842   0.08897  Uani   1.00
H1197  H     0.62960   0.14210  -0.09610   0.10700  Uiso   1.00
C1198  C     1.03789   0.30986   0.52220   0.08220  Uani   1.00
H1199  H     1.05080   0.33570   0.53250   0.09900  Uiso   1.00
C1200  C     0.89142   0.44513   0.39050   0.09733  Uani   1.00
H1201  H     0.90160   0.45450   0.35170   0.11700  Uiso   1.00
C1202  C     0.60597   0.20091  -0.10523   0.08253  Uani   1.00
C1203  C     0.89075   0.39614   0.46977   0.08403  Uani   1.00
H1204  H     0.89960   0.37010   0.48580   0.10100  Uiso   1.00
C1205  C     0.51456   0.29717  -0.15731   0.08347  Uani   1.00
C1206  C     1.09341   0.23667   0.62535   0.07973  Uani   1.00
C1207  C     1.15416   0.30596   0.64936   0.10360  Uani   1.00
C1208  C     1.02273   0.44298   0.25180   0.10800  Uani   1.00
C1209  C     1.11885   0.30942   0.60633   0.08143  Uani   1.00
N1210  N     1.18230   0.30428   0.68258   0.12247  Uani   1.00
C1211  C     0.63963   0.44070   0.23350   0.09113  Uani   1.00
C1212  C     0.79867   0.46793   0.06990   0.08643  Uani   1.00
H1213  H     0.80780   0.49360   0.08680   0.10300  Uiso   1.00
C1214  C     0.81121   0.45844   0.01300   0.10033  Uani   1.00
C1215  C     0.96503   0.39274   0.26562   0.07667  Uani   1.00
H1216  H     0.94630   0.37260   0.24830   0.09200  Uiso   1.00
C1217  C     0.99116   0.43157   0.35420   0.09777  Uani   1.00
H1218  H     0.99140   0.43780   0.39690   0.11700  Uiso   1.00
C1219  C     1.11649   0.34696   0.57930   0.10410  Uani   1.00
C1220  C     1.01903   0.45166   0.31120   0.10723  Uani   1.00
H1221  H     1.03660   0.47340   0.32670   0.12900  Uiso   1.00
C1222  C     0.64260   0.44741   0.17212   0.08373  Uani   1.00
H1223  H     0.62420   0.46740   0.15370   0.10100  Uiso   1.00
C1224  C     0.79924   0.41946  -0.01160   0.09800  Uani   1.00
H1225  H     0.81010   0.41120  -0.05050   0.11800  Uiso   1.00
N1226  N     1.11544   0.38118   0.55450   0.14333  Uani   1.00
C1227  C     0.86430   0.47013   0.42380   0.12467  Uani   1.00
H1228  H     0.85360   0.49480   0.40530   0.14900  Uiso   1.00
C1229  C     0.86528   0.42081   0.50530   0.12500  Uani   1.00
H1230  H     0.85650   0.41130   0.54470   0.15000  Uiso   1.00
C1231  C     0.99482   0.41353   0.22710   0.09787  Uani   1.00
H1232  H     0.99580   0.40740   0.18440   0.11800  Uiso   1.00
N1233  N     0.55495   0.37419  -0.07550   0.16767  Uani   1.00
C1234  C     0.77221   0.44162   0.10667   0.08163  Uani   1.00
H1235  H     0.76400   0.44940   0.14720   0.09800  Uiso   1.00
C1236  C     0.85160   0.46043   0.48480   0.11400  Uani   1.00
C1237  C     1.11552   0.18024   0.68650   0.11317  Uani   1.00
H1238  H     1.13270   0.16990   0.71930   0.13600  Uiso   1.00
C1239  C     1.08759   0.15252   0.65870   0.12567  Uani   1.00
H1240  H     1.08730   0.12390   0.66910   0.15100  Uiso   1.00
C1241  C     0.81180   0.52216  -0.05490   0.12267  Uani   1.00
H1242  H     0.78980   0.50890  -0.08140   0.14700  Uiso   1.00
H1243  H     0.79640   0.53760  -0.02230   0.14700  Uiso   1.00
C1244  C     0.60693   0.46199   0.27640   0.13200  Uani   1.00
H1245  H     0.62140   0.46960   0.31540   0.15900  Uiso   1.00
H1246  H     0.59640   0.48780   0.25680   0.15900  Uiso   1.00
C1247  C     1.05694   0.46374   0.21050   0.14800  Uani   1.00
H1248  H     1.08480   0.46580   0.23240   0.17800  Uiso   1.00
H1249  H     1.06120   0.44760   0.17230   0.17800  Uiso   1.00
C1250  C     0.83858   0.48811  -0.02440   0.12667  Uani   1.00
H1251  H     0.86030   0.50100   0.00280   0.15200  Uiso   1.00
H1252  H     0.85410   0.47240  -0.05660   0.15200  Uiso   1.00
C1253  C     0.85290   0.51880   0.56190   0.36200  Uani   1.00
H1254  H     0.88060   0.50690   0.57590   0.43500  Uiso   1.00
H1255  H     0.85760   0.54590   0.54150   0.43500  Uiso   1.00
C1256  C     0.82580   0.48850   0.52330   0.18433  Uani   1.00
H1257  H     0.80620   0.50470   0.49640   0.22100  Uiso   1.00
H1258  H     0.80770   0.47170   0.55130   0.22100  Uiso   1.00
C1259  C     0.81060   0.58720  -0.12090   0.31367  Uani   1.00
H1260  H     0.78640   0.57460  -0.14390   0.37600  Uiso   1.00
H1261  H     0.79810   0.60360  -0.08680   0.37600  Uiso   1.00
C1262  C     0.83740   0.55327  -0.09400   0.16933  Uani   1.00
H1263  H     0.85170   0.53810  -0.12790   0.20300  Uiso   1.00
H1264  H     0.86020   0.56580  -0.06810   0.20300  Uiso   1.00
C1265  C     0.56686   0.43240   0.29110   0.18200  Uani   1.00
H1266  H     0.57740   0.40460   0.30270   0.21800  Uiso   1.00
H1267  H     0.54880   0.42950   0.25390   0.21800  Uiso   1.00
C1268  C     0.53970   0.45040   0.34380   0.28700  Uani   1.00
H1269  H     0.55820   0.45770   0.37930   0.34400  Uiso   1.00
H1270  H     0.52420   0.47560   0.33010   0.34400  Uiso   1.00
C1271  C     0.99750   0.54750   0.11550   0.42667  Uani   1.00
H1272  H     0.98410   0.56600   0.14640   0.51400  Uiso   1.00
H1273  H     1.02210   0.56150   0.09510   0.51400  Uiso   1.00
C1274  C     1.03930   0.50740   0.19550   0.30700  Uani   1.00
H1275  H     1.06340   0.52640   0.18570   0.36800  Uiso   1.00
H1276  H     1.02370   0.51870   0.23160   0.36800  Uiso   1.00
C1277  C     1.00910   0.50440   0.14110   0.36600  Uani   1.00
H1278  H     1.02290   0.48770   0.10830   0.44100  Uiso   1.00
H1279  H     0.98240   0.49000   0.15390   0.44100  Uiso   1.00
C1280  C     0.80630   0.56510   0.60060   0.35767  Uani   1.00
H1281  H     0.83120   0.57890   0.58080   0.43100  Uiso   1.00
H1282  H     0.78200   0.56590   0.57130   0.43100  Uiso   1.00
C1283  C     0.81800   0.52020   0.61280   0.55333  Uani   1.00
H1284  H     0.82990   0.51570   0.65450   0.66300  Uiso   1.00
H1285  H     0.79380   0.50090   0.60500   0.66300  Uiso   1.00
C1286  C     0.83470   0.61680  -0.16420   0.42800  Uani   1.00
H1287  H     0.85160   0.63650  -0.13890   0.51500  Uiso   1.00
H1288  H     0.85540   0.60040  -0.18890   0.51500  Uiso   1.00
C1289  C     0.48050   0.46620   0.46130   0.18100  Uani   1.00
H1290  H     0.46250   0.49010   0.45030   0.27200  Uiso   1.00
H1291  H     0.47100   0.45510   0.50110   0.27200  Uiso   1.00
H1292  H     0.51060   0.47500   0.46430   0.27200  Uiso   1.00
C1293  C     0.47620   0.43280   0.41210   0.32300  Uani   1.00
H1294  H     0.46720   0.40790   0.43560   0.38800  Uiso   1.00
H1295  H     0.45030   0.44130   0.38860   0.38800  Uiso   1.00
C1296  C     0.93860   0.56100   0.03450   0.35700  Uani   1.00
H1297  H     0.95800   0.58210   0.01760   0.53600  Uiso   1.00
H1298  H     0.92310   0.54750   0.00070   0.53600  Uiso   1.00
H1299  H     0.91790   0.57420   0.06240   0.53600  Uiso   1.00
C1300  C     0.96470   0.52880   0.06960   0.45100  Uani   1.00
H1301  H     0.94470   0.51060   0.09250   0.54100  Uiso   1.00
H1302  H     0.98050   0.51130   0.03970   0.54100  Uiso   1.00
C1303  C     0.75850   0.61980   0.63610   0.49000  Uani   1.00
H1304  H     0.75270   0.61440   0.59250   0.73600  Uiso   1.00
H1305  H     0.73220   0.61550   0.66010   0.73600  Uiso   1.00
H1306  H     0.76830   0.64850   0.64110   0.73600  Uiso   1.00
C1307  C     0.79360   0.59020   0.65890   0.87000  Uani   1.00
H1308  H     0.81860   0.60570   0.67530   1.04500  Uiso   1.00
H1309  H     0.78240   0.57160   0.69150   1.04500  Uiso   1.00
C1310  C     0.50680   0.41500   0.36180   0.48867  Uani   1.00
H1311  H     0.52250   0.39050   0.37790   0.58400  Uiso   1.00
H1312  H     0.49000   0.40630   0.32530   0.58400  Uiso   1.00
C1313  C     0.80530   0.64190  -0.20870   0.64467  Uani   1.00
H1314  H     0.77550   0.63240  -0.20460   0.96500  Uiso   1.00
H1315  H     0.80700   0.67140  -0.19840   0.96500  Uiso   1.00
H1316  H     0.81500   0.63770  -0.25120   0.96500  Uiso   1.00
S1317  S     0.52710   0.72739   0.44511   0.06707  Uani   1.00
S1318  S     0.80530   0.73310   0.04875   0.06403  Uani   1.00
C1319  C     0.64047   0.71956   0.28672   0.04790  Uani   1.00
C1320  C     0.74693   0.69679   0.14074   0.05123  Uani   1.00
C1321  C     0.69488   0.72012   0.21064   0.04827  Uani   1.00
C1322  C     0.55292   0.69289   0.40211   0.05720  Uani   1.00
C1323  C     0.60933   0.72822   0.32981   0.05750  Uani   1.00
H1324  H     0.60270   0.75570   0.34220   0.06900  Uiso   1.00
C1325  C     0.68590   0.67939   0.22366   0.05383  Uani   1.00
C1326  C     0.65063   0.67872   0.27110   0.05570  Uani   1.00
O1327  O     0.48904   0.78176   0.51786   0.08887  Uani   1.00
C1328  C     0.62904   0.64416   0.29741   0.05947  Uani   1.00
H1329  H     0.63640   0.61640   0.28710   0.07100  Uiso   1.00
C1330  C     0.70713   0.64652   0.19879   0.05603  Uani   1.00
H1331  H     0.70110   0.61880   0.21060   0.06700  Uiso   1.00
C1332  C     0.77984   0.69759   0.09153   0.05700  Uani   1.00
C1333  C     0.72566   0.73114   0.16784   0.05617  Uani   1.00
H1334  H     0.73200   0.75910   0.15750   0.06700  Uiso   1.00
C1335  C     0.79331   0.65673   0.08156   0.06387  Uani   1.00
C1336  C     0.58820   0.69375   0.35390   0.05917  Uani   1.00
C1337  C     0.59655   0.65334   0.33899   0.05880  Uani   1.00
C1338  C     0.54207   0.65193   0.41073   0.06367  Uani   1.00
C1339  C     0.76833   0.62591   0.12044   0.06563  Uani   1.00
C1340  C     0.56774   0.62239   0.37119   0.06503  Uani   1.00
C1341  C     0.86972   0.77538  -0.05884   0.07873  Uani   1.00
C1342  C     0.79986   0.60348   0.16303   0.06923  Uani   1.00
C1343  C     0.83525   0.69480   0.01370   0.06967  Uani   1.00
C1344  C     0.49670   0.68792   0.47682   0.07150  Uani   1.00
C1345  C     0.73890   0.65641   0.15394   0.05543  Uani   1.00
C1346  C     0.95124   0.78969  -0.17844   0.08580  Uani   1.00
H1347  H     0.97150   0.77300  -0.19980   0.10300  Uiso   1.00
C1348  C     0.92164   0.73149  -0.10566   0.08077  Uani   1.00
C1349  C     0.46006   0.76637   0.55099   0.07920  Uani   1.00
O1350  O     0.84171   0.78956  -0.02444   0.09453  Uani   1.00
C1351  C     0.88589   0.73199  -0.06150   0.07423  Uani   1.00
C1352  C     0.50820   0.65024   0.45502   0.07273  Uani   1.00
H1353  H     0.49500   0.62510   0.46790   0.08700  Uiso   1.00
C1354  C     0.44554   0.72367   0.55203   0.07953  Uani   1.00
C1355  C     0.94625   0.83217  -0.19210   0.09797  Uani   1.00
H1356  H     0.96510   0.84430  -0.22140   0.11800  Uiso   1.00
C1357  C     0.74125   0.59613   0.08098   0.06813  Uani   1.00
C1358  C     0.82611   0.65533   0.03553   0.07420  Uani   1.00
H1359  H     0.83980   0.63070   0.02170   0.08900  Uiso   1.00
C1360  C     0.83105   0.58925   0.26179   0.08387  Uani   1.00
H1361  H     0.83160   0.59430   0.30480   0.10100  Uiso   1.00
C1362  C     0.40989   0.72221   0.59740   0.08420  Uani   1.00
C1363  C     0.43648   0.79032   0.59736   0.08463  Uani   1.00
C1364  C     0.94915   0.69977  -0.11835   0.08053  Uani   1.00
N1365  N     1.01579   0.70414  -0.19165   0.10160  Uani   1.00
C1366  C     0.92484   0.77298  -0.13173   0.08620  Uani   1.00
C1367  C     0.53739   0.59887   0.32764   0.07013  Uani   1.00
C1368  C     0.44053   0.83083   0.61365   0.09387  Uani   1.00
H1369  H     0.46190   0.84780   0.59510   0.11200  Uiso   1.00
C1370  C     0.37932   0.77842   0.67108   0.09337  Uani   1.00
H1371  H     0.35840   0.76140   0.69050   0.11200  Uiso   1.00
C1372  C     0.82848   0.57385   0.13522   0.07407  Uani   1.00
H1373  H     0.82760   0.56890   0.09220   0.08900  Uiso   1.00
C1374  C     0.72809   0.60677   0.02020   0.08800  Uani   1.00
H1375  H     0.73800   0.63170   0.00170   0.10600  Uiso   1.00
C1376  C     0.59572   0.59282   0.41160   0.07267  Uani   1.00
C1377  C     0.94500   0.66007  -0.09419   0.10253  Uani   1.00
C1378  C     0.91506   0.85719  -0.16476   0.09483  Uani   1.00
H1379  H     0.91120   0.88500  -0.17790   0.11400  Uiso   1.00
C1380  C     0.86972   0.69854  -0.03188   0.07923  Uani   1.00
H1381  H     0.88310   0.67300  -0.04250   0.09500  Uiso   1.00
C1382  C     0.80299   0.60964   0.22447   0.07187  Uani   1.00
H1383  H     0.78440   0.62950   0.24270   0.08600  Uiso   1.00
C1384  C     0.88996   0.84089  -0.11842   0.08897  Uani   1.00
H1385  H     0.87040   0.85790  -0.09610   0.10700  Uiso   1.00
C1386  C     0.46211   0.69014   0.52220   0.08220  Uani   1.00
H1387  H     0.44920   0.66430   0.53250   0.09900  Uiso   1.00
C1388  C     0.60858   0.55487   0.39050   0.09733  Uani   1.00
H1389  H     0.59840   0.54550   0.35170   0.11700  Uiso   1.00
C1390  C     0.89403   0.79909  -0.10523   0.08253  Uani   1.00
C1391  C     0.60925   0.60386   0.46977   0.08403  Uani   1.00
H1392  H     0.60040   0.62990   0.48580   0.10100  Uiso   1.00
C1393  C     0.98544   0.70283  -0.15731   0.08347  Uani   1.00
C1394  C     0.40659   0.76333   0.62535   0.07973  Uani   1.00
C1395  C     0.34584   0.69404   0.64936   0.10360  Uani   1.00
C1396  C     0.47727   0.55702   0.25180   0.10800  Uani   1.00
C1397  C     0.38115   0.69058   0.60633   0.08143  Uani   1.00
N1398  N     0.31770   0.69572   0.68258   0.12247  Uani   1.00
C1399  C     0.86037   0.55930   0.23350   0.09113  Uani   1.00
C1400  C     0.70133   0.53207   0.06990   0.08643  Uani   1.00
H1401  H     0.69220   0.50640   0.08680   0.10300  Uiso   1.00
C1402  C     0.68879   0.54156   0.01300   0.10033  Uani   1.00
C1403  C     0.53497   0.60726   0.26562   0.07667  Uani   1.00
H1404  H     0.55370   0.62740   0.24830   0.09200  Uiso   1.00
C1405  C     0.50884   0.56843   0.35420   0.09777  Uani   1.00
H1406  H     0.50860   0.56220   0.39690   0.11700  Uiso   1.00
C1407  C     0.38351   0.65304   0.57930   0.10410  Uani   1.00
C1408  C     0.48097   0.54834   0.31120   0.10723  Uani   1.00
H1409  H     0.46340   0.52660   0.32670   0.12900  Uiso   1.00
C1410  C     0.85740   0.55259   0.17212   0.08373  Uani   1.00
H1411  H     0.87580   0.53260   0.15370   0.10100  Uiso   1.00
C1412  C     0.70076   0.58054  -0.01160   0.09800  Uani   1.00
H1413  H     0.68990   0.58880  -0.05050   0.11800  Uiso   1.00
N1414  N     0.38456   0.61882   0.55450   0.14333  Uani   1.00
C1415  C     0.63570   0.52987   0.42380   0.12467  Uani   1.00
H1416  H     0.64640   0.50520   0.40530   0.14900  Uiso   1.00
C1417  C     0.63472   0.57919   0.50530   0.12500  Uani   1.00
H1418  H     0.64350   0.58870   0.54470   0.15000  Uiso   1.00
C1419  C     0.50518   0.58647   0.22710   0.09787  Uani   1.00
H1420  H     0.50420   0.59260   0.18440   0.11800  Uiso   1.00
N1421  N     0.94505   0.62581  -0.07550   0.16767  Uani   1.00
C1422  C     0.72779   0.55838   0.10667   0.08163  Uani   1.00
H1423  H     0.73600   0.55060   0.14720   0.09800  Uiso   1.00
C1424  C     0.64840   0.53957   0.48480   0.11400  Uani   1.00
C1425  C     0.38448   0.81976   0.68650   0.11317  Uani   1.00
H1426  H     0.36730   0.83010   0.71930   0.13600  Uiso   1.00
C1427  C     0.41241   0.84748   0.65870   0.12567  Uani   1.00
H1428  H     0.41270   0.87610   0.66910   0.15100  Uiso   1.00
C1429  C     0.68820   0.47784  -0.05490   0.12267  Uani   1.00
H1430  H     0.71020   0.49110  -0.08140   0.14700  Uiso   1.00
H1431  H     0.70360   0.46240  -0.02230   0.14700  Uiso   1.00
C1432  C     0.89307   0.53801   0.27640   0.13200  Uani   1.00
H1433  H     0.87860   0.53040   0.31540   0.15900  Uiso   1.00
H1434  H     0.90360   0.51220   0.25680   0.15900  Uiso   1.00
C1435  C     0.44306   0.53626   0.21050   0.14800  Uani   1.00
H1436  H     0.41520   0.53420   0.23240   0.17800  Uiso   1.00
H1437  H     0.43880   0.55240   0.17230   0.17800  Uiso   1.00
C1438  C     0.66142   0.51189  -0.02440   0.12667  Uani   1.00
H1439  H     0.63970   0.49900   0.00280   0.15200  Uiso   1.00
H1440  H     0.64590   0.52760  -0.05660   0.15200  Uiso   1.00
C1441  C     0.64710   0.48120   0.56190   0.36200  Uani   1.00
H1442  H     0.61940   0.49310   0.57590   0.43500  Uiso   1.00
H1443  H     0.64240   0.45410   0.54150   0.43500  Uiso   1.00
C1444  C     0.67420   0.51150   0.52330   0.18433  Uani   1.00
H1445  H     0.69380   0.49530   0.49640   0.22100  Uiso   1.00
H1446  H     0.69230   0.52830   0.55130   0.22100  Uiso   1.00
C1447  C     0.68940   0.41280  -0.12090   0.31367  Uani   1.00
H1448  H     0.71360   0.42540  -0.14390   0.37600  Uiso   1.00
H1449  H     0.70190   0.39640  -0.08680   0.37600  Uiso   1.00
C1450  C     0.66260   0.44673  -0.09400   0.16933  Uani   1.00
H1451  H     0.64830   0.46190  -0.12790   0.20300  Uiso   1.00
H1452  H     0.63980   0.43420  -0.06810   0.20300  Uiso   1.00
C1453  C     0.93314   0.56760   0.29110   0.18200  Uani   1.00
H1454  H     0.92260   0.59540   0.30270   0.21800  Uiso   1.00
H1455  H     0.95120   0.57050   0.25390   0.21800  Uiso   1.00
C1456  C     0.96030   0.54960   0.34380   0.28700  Uani   1.00
H1457  H     0.94180   0.54230   0.37930   0.34400  Uiso   1.00
H1458  H     0.97580   0.52440   0.33010   0.34400  Uiso   1.00
C1459  C     0.50250   0.45250   0.11550   0.42667  Uani   1.00
H1460  H     0.51590   0.43400   0.14640   0.51400  Uiso   1.00
H1461  H     0.47790   0.43850   0.09510   0.51400  Uiso   1.00
C1462  C     0.46070   0.49260   0.19550   0.30700  Uani   1.00
H1463  H     0.43660   0.47360   0.18570   0.36800  Uiso   1.00
H1464  H     0.47630   0.48130   0.23160   0.36800  Uiso   1.00
C1465  C     0.49090   0.49560   0.14110   0.36600  Uani   1.00
H1466  H     0.47710   0.51230   0.10830   0.44100  Uiso   1.00
H1467  H     0.51760   0.51000   0.15390   0.44100  Uiso   1.00
C1468  C     0.69370   0.43490   0.60060   0.35767  Uani   1.00
H1469  H     0.66880   0.42110   0.58080   0.43100  Uiso   1.00
H1470  H     0.71800   0.43410   0.57130   0.43100  Uiso   1.00
C1471  C     0.68200   0.47980   0.61280   0.55333  Uani   1.00
H1472  H     0.67010   0.48430   0.65450   0.66300  Uiso   1.00
H1473  H     0.70620   0.49910   0.60500   0.66300  Uiso   1.00
C1474  C     0.66530   0.38320  -0.16420   0.42800  Uani   1.00
H1475  H     0.64840   0.36350  -0.13890   0.51500  Uiso   1.00
H1476  H     0.64460   0.39960  -0.18890   0.51500  Uiso   1.00
C1477  C     1.01950   0.53380   0.46130   0.18100  Uani   1.00
H1478  H     1.03750   0.50990   0.45030   0.27200  Uiso   1.00
H1479  H     1.02900   0.54490   0.50110   0.27200  Uiso   1.00
H1480  H     0.98940   0.52500   0.46430   0.27200  Uiso   1.00
C1481  C     1.02380   0.56720   0.41210   0.32300  Uani   1.00
H1482  H     1.03280   0.59210   0.43560   0.38800  Uiso   1.00
H1483  H     1.04970   0.55870   0.38860   0.38800  Uiso   1.00
C1484  C     0.56140   0.43900   0.03450   0.35700  Uani   1.00
H1485  H     0.54200   0.41790   0.01760   0.53600  Uiso   1.00
H1486  H     0.57690   0.45250   0.00070   0.53600  Uiso   1.00
H1487  H     0.58210   0.42580   0.06240   0.53600  Uiso   1.00
C1488  C     0.53530   0.47120   0.06960   0.45100  Uani   1.00
H1489  H     0.55530   0.48940   0.09250   0.54100  Uiso   1.00
H1490  H     0.51950   0.48870   0.03970   0.54100  Uiso   1.00
C1491  C     0.74150   0.38020   0.63610   0.49000  Uani   1.00
H1492  H     0.74730   0.38560   0.59250   0.73600  Uiso   1.00
H1493  H     0.76780   0.38450   0.66010   0.73600  Uiso   1.00
H1494  H     0.73170   0.35150   0.64110   0.73600  Uiso   1.00
C1495  C     0.70640   0.40980   0.65890   0.87000  Uani   1.00
H1496  H     0.68140   0.39430   0.67530   1.04500  Uiso   1.00
H1497  H     0.71760   0.42840   0.69150   1.04500  Uiso   1.00
C1498  C     0.99320   0.58500   0.36180   0.48867  Uani   1.00
H1499  H     0.97750   0.60950   0.37790   0.58400  Uiso   1.00
H1500  H     1.01000   0.59370   0.32530   0.58400  Uiso   1.00
C1501  C     0.69470   0.35810  -0.20870   0.64467  Uani   1.00
H1502  H     0.72450   0.36760  -0.20460   0.96500  Uiso   1.00
H1503  H     0.69300   0.32860  -0.19840   0.96500  Uiso   1.00
H1504  H     0.68500   0.36230  -0.25120   0.96500  Uiso   1.00
C1505  C     0.33199   0.25000   0.75000   0.05070  Uani   1.00
C1506  C     0.16801   0.75000   0.75000   0.05070  Uani   1.00
C1507  C     0.66801   0.75000   0.25000   0.05070  Uani   1.00
C1508  C     0.83199   0.25000   0.25000   0.05070  Uani   1.00
loop_
_atom_site_aniso_label
_atom_site_aniso_U_11
_atom_site_aniso_U_22
_atom_site_aniso_U_33
_atom_site_aniso_U_12
_atom_site_aniso_U_13
_atom_site_aniso_U_23
S1        0.03390   0.10420   0.06310   0.00210  -0.01870  -0.00750
S2        0.03780   0.08870   0.06560   0.00100  -0.01960   0.00090
C3        0.02600   0.06510   0.05260   0.00680   0.00360  -0.00080
C4        0.02680   0.07670   0.05020  -0.00380  -0.01460  -0.00090
C5        0.01470   0.07710   0.05300  -0.00620  -0.00430  -0.00540
C6        0.03670   0.08740   0.04750  -0.00220  -0.01070  -0.00570
C7        0.02200   0.08640   0.06410   0.00750   0.00350  -0.00900
C9        0.03640   0.07440   0.05070  -0.00260   0.00070  -0.00700
C10       0.02690   0.08000   0.06020   0.00770  -0.01380   0.00480
O11       0.05890   0.11540   0.09230   0.00320  -0.03410  -0.01320
C12       0.03600   0.08080   0.06160   0.00570  -0.01190  -0.00770
C14       0.04500   0.06580   0.05730  -0.00190  -0.00720   0.00080
C16       0.02550   0.08520   0.06030   0.01190  -0.02500  -0.00900
C17       0.03430   0.07160   0.06260  -0.00230  -0.00290   0.00050
C19       0.04620   0.07500   0.07040   0.00630  -0.01830   0.00220
C20       0.02760   0.10060   0.04930   0.00250  -0.00930  -0.00740
C21       0.03450   0.09200   0.04990   0.00360  -0.01040  -0.00780
C22       0.03640   0.10000   0.05460  -0.00540  -0.01210   0.00140
C23       0.03320   0.09200   0.07170  -0.00420  -0.02120  -0.00070
C24       0.04370   0.08260   0.06880   0.00750  -0.02460  -0.00390
C25       0.03580   0.14200   0.05840   0.01210  -0.01150   0.00060
C26       0.04380   0.08970   0.07420  -0.00810  -0.01800   0.00500
C27       0.03720   0.11100   0.06080  -0.00270  -0.01760  -0.00920
C28       0.03260   0.12100   0.06090   0.00170  -0.02430   0.00430
C29       0.02780   0.07940   0.05910  -0.00880  -0.01040  -0.00720
C30       0.03040   0.14900   0.07800  -0.00340  -0.03350   0.01890
C32       0.04010   0.14800   0.05420  -0.00220  -0.02050  -0.01210
C33       0.04500   0.12800   0.06460  -0.00540  -0.03300  -0.00750
O34       0.05630   0.11590   0.11140  -0.00870  -0.04890   0.01590
C35       0.06170   0.07600   0.08500   0.00110  -0.02040   0.01300
C36       0.04900   0.10400   0.06520   0.01260  -0.01270  -0.00470
C38       0.06110   0.12000   0.05750  -0.02140  -0.00790  -0.00630
C39       0.03970   0.18200   0.07220   0.01720  -0.02620   0.02300
C41       0.04950   0.08180   0.07310   0.00350  -0.01790  -0.01090
C42       0.05760   0.08670   0.07830  -0.00520  -0.03290  -0.00130
C44       0.04580   0.13700   0.06880  -0.01910  -0.02200   0.01280
C46       0.04450   0.14000   0.06810   0.00440  -0.02450   0.01040
C47       0.04920   0.14500   0.05970  -0.01480  -0.02520  -0.00930
C48       0.04560   0.10300   0.09300   0.00080  -0.01080  -0.00590
N49       0.04540   0.20200   0.05740  -0.00560  -0.00040  -0.00530
C50       0.03860   0.13700   0.08300  -0.00230  -0.01970   0.02080
C51       0.03810   0.09080   0.08150   0.01340  -0.01630  -0.01310
C52       0.04960   0.14100   0.09100  -0.02310  -0.01490  -0.03280
C54       0.05220   0.16800   0.05990  -0.02920  -0.01780  -0.00280
C56       0.04960   0.07460   0.09800  -0.01120  -0.01590  -0.00540
C58       0.07000   0.11100   0.08300   0.00990  -0.00640   0.00470
C60       0.05750   0.08900   0.07150   0.00050  -0.01970   0.00840
C61       0.05460   0.13000   0.12300  -0.01470  -0.05830  -0.02670
C62       0.05510   0.15100   0.07840   0.00280  -0.03470   0.02430
C64       0.04140   0.13700   0.05930  -0.00210  -0.03070  -0.00320
C66       0.04610   0.09040   0.07910  -0.00120  -0.01350   0.00390
C68       0.04990   0.11700   0.10000  -0.00850  -0.04140   0.01830
C70       0.04100   0.12900   0.07660   0.00580  -0.02980  -0.00330
C72       0.10000   0.07800   0.11400  -0.01000   0.00200  -0.00500
C74       0.03110   0.14600   0.07050  -0.00200  -0.03110   0.01640
C75       0.07100   0.11400   0.06710   0.00040  -0.01030  -0.01070
C77       0.04270   0.15000   0.05770  -0.00390  -0.01480   0.00200
C78       0.04680   0.13400   0.05840  -0.02090  -0.00690   0.00330
C79       0.05620   0.17300   0.08160  -0.00900  -0.03850   0.03900
C80       0.06600   0.13200   0.12600   0.02400   0.00300  -0.03000
C81       0.05100   0.10600   0.08730  -0.01480  -0.03300   0.00580
N82       0.07140   0.18300   0.11300  -0.02070  -0.05550   0.03500
C83       0.04640   0.11700   0.11000  -0.02540  -0.01060   0.02690
C84       0.06130   0.08400   0.11400   0.00680  -0.00460  -0.01060
C86       0.06500   0.08300   0.15300   0.00390   0.02100  -0.02000
C87       0.03870   0.13100   0.06030   0.01090  -0.00640  -0.01280
C89       0.06630   0.11100   0.11600   0.01340  -0.03840  -0.02600
C91       0.05030   0.14300   0.11900   0.01460  -0.01320   0.04700
C92       0.06170   0.11100   0.14900   0.02890  -0.01200  -0.03000
C94       0.05120   0.09600   0.10400  -0.02170  -0.01670   0.00200
C96       0.08100   0.11700   0.09600   0.00900  -0.01400  -0.01300
N98       0.07800   0.17700   0.17500   0.03000  -0.07910  -0.00900
C99       0.16300   0.09900   0.11200  -0.03000  -0.01500   0.00000
C101      0.10100   0.16400   0.11000  -0.00300   0.04800   0.00900
C103      0.05760   0.14400   0.09200   0.00300   0.00140  -0.02100
N105      0.12800   0.13100   0.24400  -0.03300  -0.13270   0.01100
C106      0.05390   0.10100   0.09000  -0.00130  -0.01800   0.00320
C108      0.14200   0.09900   0.10100  -0.02900  -0.01000   0.00900
C109      0.05850   0.20100   0.08000  -0.03400  -0.01560  -0.01500
C111      0.09000   0.18900   0.09800  -0.03300   0.00300  -0.05700
C113      0.08600   0.14300   0.13900  -0.01400   0.02400  -0.05700
C116      0.09000   0.16400   0.14200  -0.03200   0.02300   0.02700
C119      0.10200   0.14600   0.19600   0.04200   0.00600  -0.06800
C122      0.10700   0.11900   0.15400   0.02100   0.04700  -0.00500
C125      0.40600   0.31100   0.36900  -0.07400   0.04200   0.25400
C128      0.22100   0.16600   0.16600  -0.06700   0.00000   0.03300
C131      0.22000   0.37200   0.34900  -0.14800   0.18800  -0.23900
C134      0.12000   0.18900   0.19900  -0.01300   0.04000  -0.08700
C137      0.07600   0.31700   0.15300  -0.04300   0.05800   0.03300
C140      0.14400   0.23300   0.48400   0.03500   0.15100   0.10600
C143      0.45000   0.37000   0.46000   0.02100  -0.17000  -0.15200
C146      0.29600   0.26100   0.36400   0.07500   0.09800  -0.10000
C149      0.20900   0.52000   0.36900   0.00000   0.13100  -0.05900
C152      0.35500   0.40000   0.31800  -0.06000   0.15100  -0.03000
C155      0.74000   0.45000   0.47000  -0.28000  -0.04000   0.10000
C158      0.43000   0.40300   0.45100   0.05100   0.01000  -0.24200
C161      0.19600   0.18200   0.16500   0.00800   0.04500  -0.02600
C165      0.23200   0.50900   0.22800  -0.17600   0.08000  -0.05300
C168      0.29600   0.47300   0.30200   0.05800   0.00700  -0.19500
C172      0.49400   0.47600   0.38300   0.03600   0.24600  -0.19100
C175      0.42000   0.33000   0.72000   0.06000   0.12000   0.18000
C179      0.88000   0.89000   0.84000   0.01000  -0.12000   0.02000
C182      0.22600   0.58000   0.66000  -0.15000  -0.02000  -0.19000
C185      0.64000   0.76000   0.53400  -0.24000   0.37400  -0.38900
S189      0.03390   0.10420   0.06310   0.00210   0.01870   0.00750
S190      0.03780   0.08870   0.06560   0.00100   0.01960  -0.00090
C191      0.02600   0.06510   0.05260   0.00680  -0.00360   0.00080
C192      0.02680   0.07670   0.05020  -0.00380   0.01460   0.00090
C193      0.01470   0.07710   0.05300  -0.00620   0.00430   0.00540
C194      0.03670   0.08740   0.04750  -0.00220   0.01070   0.00570
C195      0.02200   0.08640   0.06410   0.00750  -0.00350   0.00900
C197      0.03640   0.07440   0.05070  -0.00260  -0.00070   0.00700
C198      0.02690   0.08000   0.06020   0.00770   0.01380  -0.00480
O199      0.05890   0.11540   0.09230   0.00320   0.03410   0.01320
C200      0.03600   0.08080   0.06160   0.00570   0.01190   0.00770
C202      0.04500   0.06580   0.05730  -0.00190   0.00720  -0.00080
C204      0.02550   0.08520   0.06030   0.01190   0.02500   0.00900
C205      0.03430   0.07160   0.06260  -0.00230   0.00290  -0.00050
C207      0.04620   0.07500   0.07040   0.00630   0.01830  -0.00220
C208      0.02760   0.10060   0.04930   0.00250   0.00930   0.00740
C209      0.03450   0.09200   0.04990   0.00360   0.01040   0.00780
C210      0.03640   0.10000   0.05460  -0.00540   0.01210  -0.00140
C211      0.03320   0.09200   0.07170  -0.00420   0.02120   0.00070
C212      0.04370   0.08260   0.06880   0.00750   0.02460   0.00390
C213      0.03580   0.14200   0.05840   0.01210   0.01150  -0.00060
C214      0.04380   0.08970   0.07420  -0.00810   0.01800  -0.00500
C215      0.03720   0.11100   0.06080  -0.00270   0.01760   0.00920
C216      0.03260   0.12100   0.06090   0.00170   0.02430  -0.00430
C217      0.02780   0.07940   0.05910  -0.00880   0.01040   0.00720
C218      0.03040   0.14900   0.07800  -0.00340   0.03350  -0.01890
C220      0.04010   0.14800   0.05420  -0.00220   0.02050   0.01210
C221      0.04500   0.12800   0.06460  -0.00540   0.03300   0.00750
O222      0.05630   0.11590   0.11140  -0.00870   0.04890  -0.01590
C223      0.06170   0.07600   0.08500   0.00110   0.02040  -0.01300
C224      0.04900   0.10400   0.06520   0.01260   0.01270   0.00470
C226      0.06110   0.12000   0.05750  -0.02140   0.00790   0.00630
C227      0.03970   0.18200   0.07220   0.01720   0.02620  -0.02300
C229      0.04950   0.08180   0.07310   0.00350   0.01790   0.01090
C230      0.05760   0.08670   0.07830  -0.00520   0.03290   0.00130
C232      0.04580   0.13700   0.06880  -0.01910   0.02200  -0.01280
C234      0.04450   0.14000   0.06810   0.00440   0.02450  -0.01040
C235      0.04920   0.14500   0.05970  -0.01480   0.02520   0.00930
C236      0.04560   0.10300   0.09300   0.00080   0.01080   0.00590
N237      0.04540   0.20200   0.05740  -0.00560   0.00040   0.00530
C238      0.03860   0.13700   0.08300  -0.00230   0.01970  -0.02080
C239      0.03810   0.09080   0.08150   0.01340   0.01630   0.01310
C240      0.04960   0.14100   0.09100  -0.02310   0.01490   0.03280
C242      0.05220   0.16800   0.05990  -0.02920   0.01780   0.00280
C244      0.04960   0.07460   0.09800  -0.01120   0.01590   0.00540
C246      0.07000   0.11100   0.08300   0.00990   0.00640  -0.00470
C248      0.05750   0.08900   0.07150   0.00050   0.01970  -0.00840
C249      0.05460   0.13000   0.12300  -0.01470   0.05830   0.02670
C250      0.05510   0.15100   0.07840   0.00280   0.03470  -0.02430
C252      0.04140   0.13700   0.05930  -0.00210   0.03070   0.00320
C254      0.04610   0.09040   0.07910  -0.00120   0.01350  -0.00390
C256      0.04990   0.11700   0.10000  -0.00850   0.04140  -0.01830
C258      0.04100   0.12900   0.07660   0.00580   0.02980   0.00330
C260      0.10000   0.07800   0.11400  -0.01000  -0.00200   0.00500
C262      0.03110   0.14600   0.07050  -0.00200   0.03110  -0.01640
C263      0.07100   0.11400   0.06710   0.00040   0.01030   0.01070
C265      0.04270   0.15000   0.05770  -0.00390   0.01480  -0.00200
C266      0.04680   0.13400   0.05840  -0.02090   0.00690  -0.00330
C267      0.05620   0.17300   0.08160  -0.00900   0.03850  -0.03900
C268      0.06600   0.13200   0.12600   0.02400  -0.00300   0.03000
C269      0.05100   0.10600   0.08730  -0.01480   0.03300  -0.00580
N270      0.07140   0.18300   0.11300  -0.02070   0.05550  -0.03500
C271      0.04640   0.11700   0.11000  -0.02540   0.01060  -0.02690
C272      0.06130   0.08400   0.11400   0.00680   0.00460   0.01060
C274      0.06500   0.08300   0.15300   0.00390  -0.02100   0.02000
C275      0.03870   0.13100   0.06030   0.01090   0.00640   0.01280
C277      0.06630   0.11100   0.11600   0.01340   0.03840   0.02600
C279      0.05030   0.14300   0.11900   0.01460   0.01320  -0.04700
C280      0.06170   0.11100   0.14900   0.02890   0.01200   0.03000
C282      0.05120   0.09600   0.10400  -0.02170   0.01670  -0.00200
C284      0.08100   0.11700   0.09600   0.00900   0.01400   0.01300
N286      0.07800   0.17700   0.17500   0.03000   0.07910   0.00900
C287      0.16300   0.09900   0.11200  -0.03000   0.01500   0.00000
C289      0.10100   0.16400   0.11000  -0.00300  -0.04800  -0.00900
C291      0.05760   0.14400   0.09200   0.00300  -0.00140   0.02100
N293      0.12800   0.13100   0.24400  -0.03300   0.13270  -0.01100
C294      0.05390   0.10100   0.09000  -0.00130   0.01800  -0.00320
C296      0.14200   0.09900   0.10100  -0.02900   0.01000  -0.00900
C297      0.05850   0.20100   0.08000  -0.03400   0.01560   0.01500
C299      0.09000   0.18900   0.09800  -0.03300  -0.00300   0.05700
C301      0.08600   0.14300   0.13900  -0.01400  -0.02400   0.05700
C304      0.09000   0.16400   0.14200  -0.03200  -0.02300  -0.02700
C307      0.10200   0.14600   0.19600   0.04200  -0.00600   0.06800
C310      0.10700   0.11900   0.15400   0.02100  -0.04700   0.00500
C313      0.40600   0.31100   0.36900  -0.07400  -0.04200  -0.25400
C316      0.22100   0.16600   0.16600  -0.06700   0.00000  -0.03300
C319      0.22000   0.37200   0.34900  -0.14800  -0.18800   0.23900
C322      0.12000   0.18900   0.19900  -0.01300  -0.04000   0.08700
C325      0.07600   0.31700   0.15300  -0.04300  -0.05800  -0.03300
C328      0.14400   0.23300   0.48400   0.03500  -0.15100  -0.10600
C331      0.45000   0.37000   0.46000   0.02100   0.17000   0.15200
C334      0.29600   0.26100   0.36400   0.07500  -0.09800   0.10000
C337      0.20900   0.52000   0.36900   0.00000  -0.13100   0.05900
C340      0.35500   0.40000   0.31800  -0.06000  -0.15100   0.03000
C343      0.74000   0.45000   0.47000  -0.28000   0.04000  -0.10000
C346      0.43000   0.40300   0.45100   0.05100  -0.01000   0.24200
C349      0.19600   0.18200   0.16500   0.00800  -0.04500   0.02600
C353      0.23200   0.50900   0.22800  -0.17600  -0.08000   0.05300
C356      0.29600   0.47300   0.30200   0.05800  -0.00700   0.19500
C360      0.49400   0.47600   0.38300   0.03600  -0.24600   0.19100
C363      0.42000   0.33000   0.72000   0.06000  -0.12000  -0.18000
C367      0.88000   0.89000   0.84000   0.01000   0.12000  -0.02000
C370      0.22600   0.58000   0.66000  -0.15000   0.02000   0.19000
C373      0.64000   0.76000   0.53400  -0.24000  -0.37400   0.38900
S377      0.03390   0.10420   0.06310  -0.00210  -0.01870   0.00750
S378      0.03780   0.08870   0.06560  -0.00100  -0.01960  -0.00090
C379      0.02600   0.06510   0.05260  -0.00680   0.00360   0.00080
C380      0.02680   0.07670   0.05020   0.00380  -0.01460   0.00090
C381      0.01470   0.07710   0.05300   0.00620  -0.00430   0.00540
C382      0.03670   0.08740   0.04750   0.00220  -0.01070   0.00570
C383      0.02200   0.08640   0.06410  -0.00750   0.00350   0.00900
C385      0.03640   0.07440   0.05070   0.00260   0.00070   0.00700
C386      0.02690   0.08000   0.06020  -0.00770  -0.01380  -0.00480
O387      0.05890   0.11540   0.09230  -0.00320  -0.03410   0.01320
C388      0.03600   0.08080   0.06160  -0.00570  -0.01190   0.00770
C390      0.04500   0.06580   0.05730   0.00190  -0.00720  -0.00080
C392      0.02550   0.08520   0.06030  -0.01190  -0.02500   0.00900
C393      0.03430   0.07160   0.06260   0.00230  -0.00290  -0.00050
C395      0.04620   0.07500   0.07040  -0.00630  -0.01830  -0.00220
C396      0.02760   0.10060   0.04930  -0.00250  -0.00930   0.00740
C397      0.03450   0.09200   0.04990  -0.00360  -0.01040   0.00780
C398      0.03640   0.10000   0.05460   0.00540  -0.01210  -0.00140
C399      0.03320   0.09200   0.07170   0.00420  -0.02120   0.00070
C400      0.04370   0.08260   0.06880  -0.00750  -0.02460   0.00390
C401      0.03580   0.14200   0.05840  -0.01210  -0.01150  -0.00060
C402      0.04380   0.08970   0.07420   0.00810  -0.01800  -0.00500
C403      0.03720   0.11100   0.06080   0.00270  -0.01760   0.00920
C404      0.03260   0.12100   0.06090  -0.00170  -0.02430  -0.00430
C405      0.02780   0.07940   0.05910   0.00880  -0.01040   0.00720
C406      0.03040   0.14900   0.07800   0.00340  -0.03350  -0.01890
C408      0.04010   0.14800   0.05420   0.00220  -0.02050   0.01210
C409      0.04500   0.12800   0.06460   0.00540  -0.03300   0.00750
O410      0.05630   0.11590   0.11140   0.00870  -0.04890  -0.01590
C411      0.06170   0.07600   0.08500  -0.00110  -0.02040  -0.01300
C412      0.04900   0.10400   0.06520  -0.01260  -0.01270   0.00470
C414      0.06110   0.12000   0.05750   0.02140  -0.00790   0.00630
C415      0.03970   0.18200   0.07220  -0.01720  -0.02620  -0.02300
C417      0.04950   0.08180   0.07310  -0.00350  -0.01790   0.01090
C418      0.05760   0.08670   0.07830   0.00520  -0.03290   0.00130
C420      0.04580   0.13700   0.06880   0.01910  -0.02200  -0.01280
C422      0.04450   0.14000   0.06810  -0.00440  -0.02450  -0.01040
C423      0.04920   0.14500   0.05970   0.01480  -0.02520   0.00930
C424      0.04560   0.10300   0.09300  -0.00080  -0.01080   0.00590
N425      0.04540   0.20200   0.05740   0.00560  -0.00040   0.00530
C426      0.03860   0.13700   0.08300   0.00230  -0.01970  -0.02080
C427      0.03810   0.09080   0.08150  -0.01340  -0.01630   0.01310
C428      0.04960   0.14100   0.09100   0.02310  -0.01490   0.03280
C430      0.05220   0.16800   0.05990   0.02920  -0.01780   0.00280
C432      0.04960   0.07460   0.09800   0.01120  -0.01590   0.00540
C434      0.07000   0.11100   0.08300  -0.00990  -0.00640  -0.00470
C436      0.05750   0.08900   0.07150  -0.00050  -0.01970  -0.00840
C437      0.05460   0.13000   0.12300   0.01470  -0.05830   0.02670
C438      0.05510   0.15100   0.07840  -0.00280  -0.03470  -0.02430
C440      0.04140   0.13700   0.05930   0.00210  -0.03070   0.00320
C442      0.04610   0.09040   0.07910   0.00120  -0.01350  -0.00390
C444      0.04990   0.11700   0.10000   0.00850  -0.04140  -0.01830
C446      0.04100   0.12900   0.07660  -0.00580  -0.02980   0.00330
C448      0.10000   0.07800   0.11400   0.01000   0.00200   0.00500
C450      0.03110   0.14600   0.07050   0.00200  -0.03110  -0.01640
C451      0.07100   0.11400   0.06710  -0.00040  -0.01030   0.01070
C453      0.04270   0.15000   0.05770   0.00390  -0.01480  -0.00200
C454      0.04680   0.13400   0.05840   0.02090  -0.00690  -0.00330
C455      0.05620   0.17300   0.08160   0.00900  -0.03850  -0.03900
C456      0.06600   0.13200   0.12600  -0.02400   0.00300   0.03000
C457      0.05100   0.10600   0.08730   0.01480  -0.03300  -0.00580
N458      0.07140   0.18300   0.11300   0.02070  -0.05550  -0.03500
C459      0.04640   0.11700   0.11000   0.02540  -0.01060  -0.02690
C460      0.06130   0.08400   0.11400  -0.00680  -0.00460   0.01060
C462      0.06500   0.08300   0.15300  -0.00390   0.02100   0.02000
C463      0.03870   0.13100   0.06030  -0.01090  -0.00640   0.01280
C465      0.06630   0.11100   0.11600  -0.01340  -0.03840   0.02600
C467      0.05030   0.14300   0.11900  -0.01460  -0.01320  -0.04700
C468      0.06170   0.11100   0.14900  -0.02890  -0.01200   0.03000
C470      0.05120   0.09600   0.10400   0.02170  -0.01670  -0.00200
C472      0.08100   0.11700   0.09600  -0.00900  -0.01400   0.01300
N474      0.07800   0.17700   0.17500  -0.03000  -0.07910   0.00900
C475      0.16300   0.09900   0.11200   0.03000  -0.01500   0.00000
C477      0.10100   0.16400   0.11000   0.00300   0.04800  -0.00900
C479      0.05760   0.14400   0.09200  -0.00300   0.00140   0.02100
N481      0.12800   0.13100   0.24400   0.03300  -0.13270  -0.01100
C482      0.05390   0.10100   0.09000   0.00130  -0.01800  -0.00320
C484      0.14200   0.09900   0.10100   0.02900  -0.01000  -0.00900
C485      0.05850   0.20100   0.08000   0.03400  -0.01560   0.01500
C487      0.09000   0.18900   0.09800   0.03300   0.00300   0.05700
C489      0.08600   0.14300   0.13900   0.01400   0.02400   0.05700
C492      0.09000   0.16400   0.14200   0.03200   0.02300  -0.02700
C495      0.10200   0.14600   0.19600  -0.04200   0.00600   0.06800
C498      0.10700   0.11900   0.15400  -0.02100   0.04700   0.00500
C501      0.40600   0.31100   0.36900   0.07400   0.04200  -0.25400
C504      0.22100   0.16600   0.16600   0.06700   0.00000  -0.03300
C507      0.22000   0.37200   0.34900   0.14800   0.18800   0.23900
C510      0.12000   0.18900   0.19900   0.01300   0.04000   0.08700
C513      0.07600   0.31700   0.15300   0.04300   0.05800  -0.03300
C516      0.14400   0.23300   0.48400  -0.03500   0.15100  -0.10600
C519      0.45000   0.37000   0.46000  -0.02100  -0.17000   0.15200
C522      0.29600   0.26100   0.36400  -0.07500   0.09800   0.10000
C525      0.20900   0.52000   0.36900   0.00000   0.13100   0.05900
C528      0.35500   0.40000   0.31800   0.06000   0.15100   0.03000
C531      0.74000   0.45000   0.47000   0.28000  -0.04000  -0.10000
C534      0.43000   0.40300   0.45100  -0.05100   0.01000   0.24200
C537      0.19600   0.18200   0.16500  -0.00800   0.04500   0.02600
C541      0.23200   0.50900   0.22800   0.17600   0.08000   0.05300
C544      0.29600   0.47300   0.30200  -0.05800   0.00700   0.19500
C548      0.49400   0.47600   0.38300  -0.03600   0.24600   0.19100
C551      0.42000   0.33000   0.72000  -0.06000   0.12000  -0.18000
C555      0.88000   0.89000   0.84000  -0.01000  -0.12000  -0.02000
C558      0.22600   0.58000   0.66000   0.15000  -0.02000   0.19000
C561      0.64000   0.76000   0.53400   0.24000   0.37400   0.38900
S565      0.03390   0.10420   0.06310  -0.00210   0.01870  -0.00750
S566      0.03780   0.08870   0.06560  -0.00100   0.01960   0.00090
C567      0.02600   0.06510   0.05260  -0.00680  -0.00360  -0.00080
C568      0.02680   0.07670   0.05020   0.00380   0.01460  -0.00090
C569      0.01470   0.07710   0.05300   0.00620   0.00430  -0.00540
C570      0.03670   0.08740   0.04750   0.00220   0.01070  -0.00570
C571      0.02200   0.08640   0.06410  -0.00750  -0.00350  -0.00900
C573      0.03640   0.07440   0.05070   0.00260  -0.00070  -0.00700
C574      0.02690   0.08000   0.06020  -0.00770   0.01380   0.00480
O575      0.05890   0.11540   0.09230  -0.00320   0.03410  -0.01320
C576      0.03600   0.08080   0.06160  -0.00570   0.01190  -0.00770
C578      0.04500   0.06580   0.05730   0.00190   0.00720   0.00080
C580      0.02550   0.08520   0.06030  -0.01190   0.02500  -0.00900
C581      0.03430   0.07160   0.06260   0.00230   0.00290   0.00050
C583      0.04620   0.07500   0.07040  -0.00630   0.01830   0.00220
C584      0.02760   0.10060   0.04930  -0.00250   0.00930  -0.00740
C585      0.03450   0.09200   0.04990  -0.00360   0.01040  -0.00780
C586      0.03640   0.10000   0.05460   0.00540   0.01210   0.00140
C587      0.03320   0.09200   0.07170   0.00420   0.02120  -0.00070
C588      0.04370   0.08260   0.06880  -0.00750   0.02460  -0.00390
C589      0.03580   0.14200   0.05840  -0.01210   0.01150   0.00060
C590      0.04380   0.08970   0.07420   0.00810   0.01800   0.00500
C591      0.03720   0.11100   0.06080   0.00270   0.01760  -0.00920
C592      0.03260   0.12100   0.06090  -0.00170   0.02430   0.00430
C593      0.02780   0.07940   0.05910   0.00880   0.01040  -0.00720
C594      0.03040   0.14900   0.07800   0.00340   0.03350   0.01890
C596      0.04010   0.14800   0.05420   0.00220   0.02050  -0.01210
C597      0.04500   0.12800   0.06460   0.00540   0.03300  -0.00750
O598      0.05630   0.11590   0.11140   0.00870   0.04890   0.01590
C599      0.06170   0.07600   0.08500  -0.00110   0.02040   0.01300
C600      0.04900   0.10400   0.06520  -0.01260   0.01270  -0.00470
C602      0.06110   0.12000   0.05750   0.02140   0.00790  -0.00630
C603      0.03970   0.18200   0.07220  -0.01720   0.02620   0.02300
C605      0.04950   0.08180   0.07310  -0.00350   0.01790  -0.01090
C606      0.05760   0.08670   0.07830   0.00520   0.03290  -0.00130
C608      0.04580   0.13700   0.06880   0.01910   0.02200   0.01280
C610      0.04450   0.14000   0.06810  -0.00440   0.02450   0.01040
C611      0.04920   0.14500   0.05970   0.01480   0.02520  -0.00930
C612      0.04560   0.10300   0.09300  -0.00080   0.01080  -0.00590
N613      0.04540   0.20200   0.05740   0.00560   0.00040  -0.00530
C614      0.03860   0.13700   0.08300   0.00230   0.01970   0.02080
C615      0.03810   0.09080   0.08150  -0.01340   0.01630  -0.01310
C616      0.04960   0.14100   0.09100   0.02310   0.01490  -0.03280
C618      0.05220   0.16800   0.05990   0.02920   0.01780  -0.00280
C620      0.04960   0.07460   0.09800   0.01120   0.01590  -0.00540
C622      0.07000   0.11100   0.08300  -0.00990   0.00640   0.00470
C624      0.05750   0.08900   0.07150  -0.00050   0.01970   0.00840
C625      0.05460   0.13000   0.12300   0.01470   0.05830  -0.02670
C626      0.05510   0.15100   0.07840  -0.00280   0.03470   0.02430
C628      0.04140   0.13700   0.05930   0.00210   0.03070  -0.00320
C630      0.04610   0.09040   0.07910   0.00120   0.01350   0.00390
C632      0.04990   0.11700   0.10000   0.00850   0.04140   0.01830
C634      0.04100   0.12900   0.07660  -0.00580   0.02980  -0.00330
C636      0.10000   0.07800   0.11400   0.01000  -0.00200  -0.00500
C638      0.03110   0.14600   0.07050   0.00200   0.03110   0.01640
C639      0.07100   0.11400   0.06710  -0.00040   0.01030  -0.01070
C641      0.04270   0.15000   0.05770   0.00390   0.01480   0.00200
C642      0.04680   0.13400   0.05840   0.02090   0.00690   0.00330
C643      0.05620   0.17300   0.08160   0.00900   0.03850   0.03900
C644      0.06600   0.13200   0.12600  -0.02400  -0.00300  -0.03000
C645      0.05100   0.10600   0.08730   0.01480   0.03300   0.00580
N646      0.07140   0.18300   0.11300   0.02070   0.05550   0.03500
C647      0.04640   0.11700   0.11000   0.02540   0.01060   0.02690
C648      0.06130   0.08400   0.11400  -0.00680   0.00460  -0.01060
C650      0.06500   0.08300   0.15300  -0.00390  -0.02100  -0.02000
C651      0.03870   0.13100   0.06030  -0.01090   0.00640  -0.01280
C653      0.06630   0.11100   0.11600  -0.01340   0.03840  -0.02600
C655      0.05030   0.14300   0.11900  -0.01460   0.01320   0.04700
C656      0.06170   0.11100   0.14900  -0.02890   0.01200  -0.03000
C658      0.05120   0.09600   0.10400   0.02170   0.01670   0.00200
C660      0.08100   0.11700   0.09600  -0.00900   0.01400  -0.01300
N662      0.07800   0.17700   0.17500  -0.03000   0.07910  -0.00900
C663      0.16300   0.09900   0.11200   0.03000   0.01500   0.00000
C665      0.10100   0.16400   0.11000   0.00300  -0.04800   0.00900
C667      0.05760   0.14400   0.09200  -0.00300  -0.00140  -0.02100
N669      0.12800   0.13100   0.24400   0.03300   0.13270   0.01100
C670      0.05390   0.10100   0.09000   0.00130   0.01800   0.00320
C672      0.14200   0.09900   0.10100   0.02900   0.01000   0.00900
C673      0.05850   0.20100   0.08000   0.03400   0.01560  -0.01500
C675      0.09000   0.18900   0.09800   0.03300  -0.00300  -0.05700
C677      0.08600   0.14300   0.13900   0.01400  -0.02400  -0.05700
C680      0.09000   0.16400   0.14200   0.03200  -0.02300   0.02700
C683      0.10200   0.14600   0.19600  -0.04200  -0.00600  -0.06800
C686      0.10700   0.11900   0.15400  -0.02100  -0.04700  -0.00500
C689      0.40600   0.31100   0.36900   0.07400  -0.04200   0.25400
C692      0.22100   0.16600   0.16600   0.06700   0.00000   0.03300
C695      0.22000   0.37200   0.34900   0.14800  -0.18800  -0.23900
C698      0.12000   0.18900   0.19900   0.01300  -0.04000  -0.08700
C701      0.07600   0.31700   0.15300   0.04300  -0.05800   0.03300
C704      0.14400   0.23300   0.48400  -0.03500  -0.15100   0.10600
C707      0.45000   0.37000   0.46000  -0.02100   0.17000  -0.15200
C710      0.29600   0.26100   0.36400  -0.07500  -0.09800  -0.10000
C713      0.20900   0.52000   0.36900   0.00000  -0.13100  -0.05900
C716      0.35500   0.40000   0.31800   0.06000  -0.15100  -0.03000
C719      0.74000   0.45000   0.47000   0.28000   0.04000   0.10000
C722      0.43000   0.40300   0.45100  -0.05100  -0.01000  -0.24200
C725      0.19600   0.18200   0.16500  -0.00800  -0.04500  -0.02600
C729      0.23200   0.50900   0.22800   0.17600  -0.08000  -0.05300
C732      0.29600   0.47300   0.30200  -0.05800  -0.00700  -0.19500
C736      0.49400   0.47600   0.38300  -0.03600  -0.24600  -0.19100
C739      0.42000   0.33000   0.72000  -0.06000  -0.12000   0.18000
C743      0.88000   0.89000   0.84000  -0.01000   0.12000   0.02000
C746      0.22600   0.58000   0.66000   0.15000   0.02000  -0.19000
C749      0.64000   0.76000   0.53400   0.24000  -0.37400  -0.38900
S753      0.03390   0.10420   0.06310   0.00210  -0.01870  -0.00750
S754      0.03780   0.08870   0.06560   0.00100  -0.01960   0.00090
C755      0.02600   0.06510   0.05260   0.00680   0.00360  -0.00080
C756      0.02680   0.07670   0.05020  -0.00380  -0.01460  -0.00090
C757      0.01470   0.07710   0.05300  -0.00620  -0.00430  -0.00540
C758      0.03670   0.08740   0.04750  -0.00220  -0.01070  -0.00570
C759      0.02200   0.08640   0.06410   0.00750   0.00350  -0.00900
C761      0.03640   0.07440   0.05070  -0.00260   0.00070  -0.00700
C762      0.02690   0.08000   0.06020   0.00770  -0.01380   0.00480
O763      0.05890   0.11540   0.09230   0.00320  -0.03410  -0.01320
C764      0.03600   0.08080   0.06160   0.00570  -0.01190  -0.00770
C766      0.04500   0.06580   0.05730  -0.00190  -0.00720   0.00080
C768      0.02550   0.08520   0.06030   0.01190  -0.02500  -0.00900
C769      0.03430   0.07160   0.06260  -0.00230  -0.00290   0.00050
C771      0.04620   0.07500   0.07040   0.00630  -0.01830   0.00220
C772      0.02760   0.10060   0.04930   0.00250  -0.00930  -0.00740
C773      0.03450   0.09200   0.04990   0.00360  -0.01040  -0.00780
C774      0.03640   0.10000   0.05460  -0.00540  -0.01210   0.00140
C775      0.03320   0.09200   0.07170  -0.00420  -0.02120  -0.00070
C776      0.04370   0.08260   0.06880   0.00750  -0.02460  -0.00390
C777      0.03580   0.14200   0.05840   0.01210  -0.01150   0.00060
C778      0.04380   0.08970   0.07420  -0.00810  -0.01800   0.00500
C779      0.03720   0.11100   0.06080  -0.00270  -0.01760  -0.00920
C780      0.03260   0.12100   0.06090   0.00170  -0.02430   0.00430
C781      0.02780   0.07940   0.05910  -0.00880  -0.01040  -0.00720
C782      0.03040   0.14900   0.07800  -0.00340  -0.03350   0.01890
C784      0.04010   0.14800   0.05420  -0.00220  -0.02050  -0.01210
C785      0.04500   0.12800   0.06460  -0.00540  -0.03300  -0.00750
O786      0.05630   0.11590   0.11140  -0.00870  -0.04890   0.01590
C787      0.06170   0.07600   0.08500   0.00110  -0.02040   0.01300
C788      0.04900   0.10400   0.06520   0.01260  -0.01270  -0.00470
C790      0.06110   0.12000   0.05750  -0.02140  -0.00790  -0.00630
C791      0.03970   0.18200   0.07220   0.01720  -0.02620   0.02300
C793      0.04950   0.08180   0.07310   0.00350  -0.01790  -0.01090
C794      0.05760   0.08670   0.07830  -0.00520  -0.03290  -0.00130
C796      0.04580   0.13700   0.06880  -0.01910  -0.02200   0.01280
C798      0.04450   0.14000   0.06810   0.00440  -0.02450   0.01040
C799      0.04920   0.14500   0.05970  -0.01480  -0.02520  -0.00930
C800      0.04560   0.10300   0.09300   0.00080  -0.01080  -0.00590
N801      0.04540   0.20200   0.05740  -0.00560  -0.00040  -0.00530
C802      0.03860   0.13700   0.08300  -0.00230  -0.01970   0.02080
C803      0.03810   0.09080   0.08150   0.01340  -0.01630  -0.01310
C804      0.04960   0.14100   0.09100  -0.02310  -0.01490  -0.03280
C806      0.05220   0.16800   0.05990  -0.02920  -0.01780  -0.00280
C808      0.04960   0.07460   0.09800  -0.01120  -0.01590  -0.00540
C810      0.07000   0.11100   0.08300   0.00990  -0.00640   0.00470
C812      0.05750   0.08900   0.07150   0.00050  -0.01970   0.00840
C813      0.05460   0.13000   0.12300  -0.01470  -0.05830  -0.02670
C814      0.05510   0.15100   0.07840   0.00280  -0.03470   0.02430
C816      0.04140   0.13700   0.05930  -0.00210  -0.03070  -0.00320
C818      0.04610   0.09040   0.07910  -0.00120  -0.01350   0.00390
C820      0.04990   0.11700   0.10000  -0.00850  -0.04140   0.01830
C822      0.04100   0.12900   0.07660   0.00580  -0.02980  -0.00330
C824      0.10000   0.07800   0.11400  -0.01000   0.00200  -0.00500
C826      0.03110   0.14600   0.07050  -0.00200  -0.03110   0.01640
C827      0.07100   0.11400   0.06710   0.00040  -0.01030  -0.01070
C829      0.04270   0.15000   0.05770  -0.00390  -0.01480   0.00200
C830      0.04680   0.13400   0.05840  -0.02090  -0.00690   0.00330
C831      0.05620   0.17300   0.08160  -0.00900  -0.03850   0.03900
C832      0.06600   0.13200   0.12600   0.02400   0.00300  -0.03000
C833      0.05100   0.10600   0.08730  -0.01480  -0.03300   0.00580
N834      0.07140   0.18300   0.11300  -0.02070  -0.05550   0.03500
C835      0.04640   0.11700   0.11000  -0.02540  -0.01060   0.02690
C836      0.06130   0.08400   0.11400   0.00680  -0.00460  -0.01060
C838      0.06500   0.08300   0.15300   0.00390   0.02100  -0.02000
C839      0.03870   0.13100   0.06030   0.01090  -0.00640  -0.01280
C841      0.06630   0.11100   0.11600   0.01340  -0.03840  -0.02600
C843      0.05030   0.14300   0.11900   0.01460  -0.01320   0.04700
C844      0.06170   0.11100   0.14900   0.02890  -0.01200  -0.03000
C846      0.05120   0.09600   0.10400  -0.02170  -0.01670   0.00200
C848      0.08100   0.11700   0.09600   0.00900  -0.01400  -0.01300
N850      0.07800   0.17700   0.17500   0.03000  -0.07910  -0.00900
C851      0.16300   0.09900   0.11200  -0.03000  -0.01500   0.00000
C853      0.10100   0.16400   0.11000  -0.00300   0.04800   0.00900
C855      0.05760   0.14400   0.09200   0.00300   0.00140  -0.02100
N857      0.12800   0.13100   0.24400  -0.03300  -0.13270   0.01100
C858      0.05390   0.10100   0.09000  -0.00130  -0.01800   0.00320
C860      0.14200   0.09900   0.10100  -0.02900  -0.01000   0.00900
C861      0.05850   0.20100   0.08000  -0.03400  -0.01560  -0.01500
C863      0.09000   0.18900   0.09800  -0.03300   0.00300  -0.05700
C865      0.08600   0.14300   0.13900  -0.01400   0.02400  -0.05700
C868      0.09000   0.16400   0.14200  -0.03200   0.02300   0.02700
C871      0.10200   0.14600   0.19600   0.04200   0.00600  -0.06800
C874      0.10700   0.11900   0.15400   0.02100   0.04700  -0.00500
C877      0.40600   0.31100   0.36900  -0.07400   0.04200   0.25400
C880      0.22100   0.16600   0.16600  -0.06700   0.00000   0.03300
C883      0.22000   0.37200   0.34900  -0.14800   0.18800  -0.23900
C886      0.12000   0.18900   0.19900  -0.01300   0.04000  -0.08700
C889      0.07600   0.31700   0.15300  -0.04300   0.05800   0.03300
C892      0.14400   0.23300   0.48400   0.03500   0.15100   0.10600
C895      0.45000   0.37000   0.46000   0.02100  -0.17000  -0.15200
C898      0.29600   0.26100   0.36400   0.07500   0.09800  -0.10000
C901      0.20900   0.52000   0.36900   0.00000   0.13100  -0.05900
C904      0.35500   0.40000   0.31800  -0.06000   0.15100  -0.03000
C907      0.74000   0.45000   0.47000  -0.28000  -0.04000   0.10000
C910      0.43000   0.40300   0.45100   0.05100   0.01000  -0.24200
C913      0.19600   0.18200   0.16500   0.00800   0.04500  -0.02600
C917      0.23200   0.50900   0.22800  -0.17600   0.08000  -0.05300
C920      0.29600   0.47300   0.30200   0.05800   0.00700  -0.19500
C924      0.49400   0.47600   0.38300   0.03600   0.24600  -0.19100
C927      0.42000   0.33000   0.72000   0.06000   0.12000   0.18000
C931      0.88000   0.89000   0.84000   0.01000  -0.12000   0.02000
C934      0.22600   0.58000   0.66000  -0.15000  -0.02000  -0.19000
C937      0.64000   0.76000   0.53400  -0.24000   0.37400  -0.38900
S941      0.03390   0.10420   0.06310   0.00210   0.01870   0.00750
S942      0.03780   0.08870   0.06560   0.00100   0.01960  -0.00090
C943      0.02600   0.06510   0.05260   0.00680  -0.00360   0.00080
C944      0.02680   0.07670   0.05020  -0.00380   0.01460   0.00090
C945      0.01470   0.07710   0.05300  -0.00620   0.00430   0.00540
C946      0.03670   0.08740   0.04750  -0.00220   0.01070   0.00570
C947      0.02200   0.08640   0.06410   0.00750  -0.00350   0.00900
C949      0.03640   0.07440   0.05070  -0.00260  -0.00070   0.00700
C950      0.02690   0.08000   0.06020   0.00770   0.01380  -0.00480
O951      0.05890   0.11540   0.09230   0.00320   0.03410   0.01320
C952      0.03600   0.08080   0.06160   0.00570   0.01190   0.00770
C954      0.04500   0.06580   0.05730  -0.00190   0.00720  -0.00080
C956      0.02550   0.08520   0.06030   0.01190   0.02500   0.00900
C957      0.03430   0.07160   0.06260  -0.00230   0.00290  -0.00050
C959      0.04620   0.07500   0.07040   0.00630   0.01830  -0.00220
C960      0.02760   0.10060   0.04930   0.00250   0.00930   0.00740
C961      0.03450   0.09200   0.04990   0.00360   0.01040   0.00780
C962      0.03640   0.10000   0.05460  -0.00540   0.01210  -0.00140
C963      0.03320   0.09200   0.07170  -0.00420   0.02120   0.00070
C964      0.04370   0.08260   0.06880   0.00750   0.02460   0.00390
C965      0.03580   0.14200   0.05840   0.01210   0.01150  -0.00060
C966      0.04380   0.08970   0.07420  -0.00810   0.01800  -0.00500
C967      0.03720   0.11100   0.06080  -0.00270   0.01760   0.00920
C968      0.03260   0.12100   0.06090   0.00170   0.02430  -0.00430
C969      0.02780   0.07940   0.05910  -0.00880   0.01040   0.00720
C970      0.03040   0.14900   0.07800  -0.00340   0.03350  -0.01890
C972      0.04010   0.14800   0.05420  -0.00220   0.02050   0.01210
C973      0.04500   0.12800   0.06460  -0.00540   0.03300   0.00750
O974      0.05630   0.11590   0.11140  -0.00870   0.04890  -0.01590
C975      0.06170   0.07600   0.08500   0.00110   0.02040  -0.01300
C976      0.04900   0.10400   0.06520   0.01260   0.01270   0.00470
C978      0.06110   0.12000   0.05750  -0.02140   0.00790   0.00630
C979      0.03970   0.18200   0.07220   0.01720   0.02620  -0.02300
C981      0.04950   0.08180   0.07310   0.00350   0.01790   0.01090
C982      0.05760   0.08670   0.07830  -0.00520   0.03290   0.00130
C984      0.04580   0.13700   0.06880  -0.01910   0.02200  -0.01280
C986      0.04450   0.14000   0.06810   0.00440   0.02450  -0.01040
C987      0.04920   0.14500   0.05970  -0.01480   0.02520   0.00930
C988      0.04560   0.10300   0.09300   0.00080   0.01080   0.00590
N989      0.04540   0.20200   0.05740  -0.00560   0.00040   0.00530
C990      0.03860   0.13700   0.08300  -0.00230   0.01970  -0.02080
C991      0.03810   0.09080   0.08150   0.01340   0.01630   0.01310
C992      0.04960   0.14100   0.09100  -0.02310   0.01490   0.03280
C994      0.05220   0.16800   0.05990  -0.02920   0.01780   0.00280
C996      0.04960   0.07460   0.09800  -0.01120   0.01590   0.00540
C998      0.07000   0.11100   0.08300   0.00990   0.00640  -0.00470
C1000     0.05750   0.08900   0.07150   0.00050   0.01970  -0.00840
C1001     0.05460   0.13000   0.12300  -0.01470   0.05830   0.02670
C1002     0.05510   0.15100   0.07840   0.00280   0.03470  -0.02430
C1004     0.04140   0.13700   0.05930  -0.00210   0.03070   0.00320
C1006     0.04610   0.09040   0.07910  -0.00120   0.01350  -0.00390
C1008     0.04990   0.11700   0.10000  -0.00850   0.04140  -0.01830
C1010     0.04100   0.12900   0.07660   0.00580   0.02980   0.00330
C1012     0.10000   0.07800   0.11400  -0.01000  -0.00200   0.00500
C1014     0.03110   0.14600   0.07050  -0.00200   0.03110  -0.01640
C1015     0.07100   0.11400   0.06710   0.00040   0.01030   0.01070
C1017     0.04270   0.15000   0.05770  -0.00390   0.01480  -0.00200
C1018     0.04680   0.13400   0.05840  -0.02090   0.00690  -0.00330
C1019     0.05620   0.17300   0.08160  -0.00900   0.03850  -0.03900
C1020     0.06600   0.13200   0.12600   0.02400  -0.00300   0.03000
C1021     0.05100   0.10600   0.08730  -0.01480   0.03300  -0.00580
N1022     0.07140   0.18300   0.11300  -0.02070   0.05550  -0.03500
C1023     0.04640   0.11700   0.11000  -0.02540   0.01060  -0.02690
C1024     0.06130   0.08400   0.11400   0.00680   0.00460   0.01060
C1026     0.06500   0.08300   0.15300   0.00390  -0.02100   0.02000
C1027     0.03870   0.13100   0.06030   0.01090   0.00640   0.01280
C1029     0.06630   0.11100   0.11600   0.01340   0.03840   0.02600
C1031     0.05030   0.14300   0.11900   0.01460   0.01320  -0.04700
C1032     0.06170   0.11100   0.14900   0.02890   0.01200   0.03000
C1034     0.05120   0.09600   0.10400  -0.02170   0.01670  -0.00200
C1036     0.08100   0.11700   0.09600   0.00900   0.01400   0.01300
N1038     0.07800   0.17700   0.17500   0.03000   0.07910   0.00900
C1039     0.16300   0.09900   0.11200  -0.03000   0.01500   0.00000
C1041     0.10100   0.16400   0.11000  -0.00300  -0.04800  -0.00900
C1043     0.05760   0.14400   0.09200   0.00300  -0.00140   0.02100
N1045     0.12800   0.13100   0.24400  -0.03300   0.13270  -0.01100
C1046     0.05390   0.10100   0.09000  -0.00130   0.01800  -0.00320
C1048     0.14200   0.09900   0.10100  -0.02900   0.01000  -0.00900
C1049     0.05850   0.20100   0.08000  -0.03400   0.01560   0.01500
C1051     0.09000   0.18900   0.09800  -0.03300  -0.00300   0.05700
C1053     0.08600   0.14300   0.13900  -0.01400  -0.02400   0.05700
C1056     0.09000   0.16400   0.14200  -0.03200  -0.02300  -0.02700
C1059     0.10200   0.14600   0.19600   0.04200  -0.00600   0.06800
C1062     0.10700   0.11900   0.15400   0.02100  -0.04700   0.00500
C1065     0.40600   0.31100   0.36900  -0.07400  -0.04200  -0.25400
C1068     0.22100   0.16600   0.16600  -0.06700   0.00000  -0.03300
C1071     0.22000   0.37200   0.34900  -0.14800  -0.18800   0.23900
C1074     0.12000   0.18900   0.19900  -0.01300  -0.04000   0.08700
C1077     0.07600   0.31700   0.15300  -0.04300  -0.05800  -0.03300
C1080     0.14400   0.23300   0.48400   0.03500  -0.15100  -0.10600
C1083     0.45000   0.37000   0.46000   0.02100   0.17000   0.15200
C1086     0.29600   0.26100   0.36400   0.07500  -0.09800   0.10000
C1089     0.20900   0.52000   0.36900   0.00000  -0.13100   0.05900
C1092     0.35500   0.40000   0.31800  -0.06000  -0.15100   0.03000
C1095     0.74000   0.45000   0.47000  -0.28000   0.04000  -0.10000
C1098     0.43000   0.40300   0.45100   0.05100  -0.01000   0.24200
C1101     0.19600   0.18200   0.16500   0.00800  -0.04500   0.02600
C1105     0.23200   0.50900   0.22800  -0.17600  -0.08000   0.05300
C1108     0.29600   0.47300   0.30200   0.05800  -0.00700   0.19500
C1112     0.49400   0.47600   0.38300   0.03600  -0.24600   0.19100
C1115     0.42000   0.33000   0.72000   0.06000  -0.12000  -0.18000
C1119     0.88000   0.89000   0.84000   0.01000   0.12000  -0.02000
C1122     0.22600   0.58000   0.66000  -0.15000   0.02000   0.19000
C1125     0.64000   0.76000   0.53400  -0.24000  -0.37400   0.38900
S1129     0.03390   0.10420   0.06310  -0.00210  -0.01870   0.00750
S1130     0.03780   0.08870   0.06560  -0.00100  -0.01960  -0.00090
C1131     0.02600   0.06510   0.05260  -0.00680   0.00360   0.00080
C1132     0.02680   0.07670   0.05020   0.00380  -0.01460   0.00090
C1133     0.01470   0.07710   0.05300   0.00620  -0.00430   0.00540
C1134     0.03670   0.08740   0.04750   0.00220  -0.01070   0.00570
C1135     0.02200   0.08640   0.06410  -0.00750   0.00350   0.00900
C1137     0.03640   0.07440   0.05070   0.00260   0.00070   0.00700
C1138     0.02690   0.08000   0.06020  -0.00770  -0.01380  -0.00480
O1139     0.05890   0.11540   0.09230  -0.00320  -0.03410   0.01320
C1140     0.03600   0.08080   0.06160  -0.00570  -0.01190   0.00770
C1142     0.04500   0.06580   0.05730   0.00190  -0.00720  -0.00080
C1144     0.02550   0.08520   0.06030  -0.01190  -0.02500   0.00900
C1145     0.03430   0.07160   0.06260   0.00230  -0.00290  -0.00050
C1147     0.04620   0.07500   0.07040  -0.00630  -0.01830  -0.00220
C1148     0.02760   0.10060   0.04930  -0.00250  -0.00930   0.00740
C1149     0.03450   0.09200   0.04990  -0.00360  -0.01040   0.00780
C1150     0.03640   0.10000   0.05460   0.00540  -0.01210  -0.00140
C1151     0.03320   0.09200   0.07170   0.00420  -0.02120   0.00070
C1152     0.04370   0.08260   0.06880  -0.00750  -0.02460   0.00390
C1153     0.03580   0.14200   0.05840  -0.01210  -0.01150  -0.00060
C1154     0.04380   0.08970   0.07420   0.00810  -0.01800  -0.00500
C1155     0.03720   0.11100   0.06080   0.00270  -0.01760   0.00920
C1156     0.03260   0.12100   0.06090  -0.00170  -0.02430  -0.00430
C1157     0.02780   0.07940   0.05910   0.00880  -0.01040   0.00720
C1158     0.03040   0.14900   0.07800   0.00340  -0.03350  -0.01890
C1160     0.04010   0.14800   0.05420   0.00220  -0.02050   0.01210
C1161     0.04500   0.12800   0.06460   0.00540  -0.03300   0.00750
O1162     0.05630   0.11590   0.11140   0.00870  -0.04890  -0.01590
C1163     0.06170   0.07600   0.08500  -0.00110  -0.02040  -0.01300
C1164     0.04900   0.10400   0.06520  -0.01260  -0.01270   0.00470
C1166     0.06110   0.12000   0.05750   0.02140  -0.00790   0.00630
C1167     0.03970   0.18200   0.07220  -0.01720  -0.02620  -0.02300
C1169     0.04950   0.08180   0.07310  -0.00350  -0.01790   0.01090
C1170     0.05760   0.08670   0.07830   0.00520  -0.03290   0.00130
C1172     0.04580   0.13700   0.06880   0.01910  -0.02200  -0.01280
C1174     0.04450   0.14000   0.06810  -0.00440  -0.02450  -0.01040
C1175     0.04920   0.14500   0.05970   0.01480  -0.02520   0.00930
C1176     0.04560   0.10300   0.09300  -0.00080  -0.01080   0.00590
N1177     0.04540   0.20200   0.05740   0.00560  -0.00040   0.00530
C1178     0.03860   0.13700   0.08300   0.00230  -0.01970  -0.02080
C1179     0.03810   0.09080   0.08150  -0.01340  -0.01630   0.01310
C1180     0.04960   0.14100   0.09100   0.02310  -0.01490   0.03280
C1182     0.05220   0.16800   0.05990   0.02920  -0.01780   0.00280
C1184     0.04960   0.07460   0.09800   0.01120  -0.01590   0.00540
C1186     0.07000   0.11100   0.08300  -0.00990  -0.00640  -0.00470
C1188     0.05750   0.08900   0.07150  -0.00050  -0.01970  -0.00840
C1189     0.05460   0.13000   0.12300   0.01470  -0.05830   0.02670
C1190     0.05510   0.15100   0.07840  -0.00280  -0.03470  -0.02430
C1192     0.04140   0.13700   0.05930   0.00210  -0.03070   0.00320
C1194     0.04610   0.09040   0.07910   0.00120  -0.01350  -0.00390
C1196     0.04990   0.11700   0.10000   0.00850  -0.04140  -0.01830
C1198     0.04100   0.12900   0.07660  -0.00580  -0.02980   0.00330
C1200     0.10000   0.07800   0.11400   0.01000   0.00200   0.00500
C1202     0.03110   0.14600   0.07050   0.00200  -0.03110  -0.01640
C1203     0.07100   0.11400   0.06710  -0.00040  -0.01030   0.01070
C1205     0.04270   0.15000   0.05770   0.00390  -0.01480  -0.00200
C1206     0.04680   0.13400   0.05840   0.02090  -0.00690  -0.00330
C1207     0.05620   0.17300   0.08160   0.00900  -0.03850  -0.03900
C1208     0.06600   0.13200   0.12600  -0.02400   0.00300   0.03000
C1209     0.05100   0.10600   0.08730   0.01480  -0.03300  -0.00580
N1210     0.07140   0.18300   0.11300   0.02070  -0.05550  -0.03500
C1211     0.04640   0.11700   0.11000   0.02540  -0.01060  -0.02690
C1212     0.06130   0.08400   0.11400  -0.00680  -0.00460   0.01060
C1214     0.06500   0.08300   0.15300  -0.00390   0.02100   0.02000
C1215     0.03870   0.13100   0.06030  -0.01090  -0.00640   0.01280
C1217     0.06630   0.11100   0.11600  -0.01340  -0.03840   0.02600
C1219     0.05030   0.14300   0.11900  -0.01460  -0.01320  -0.04700
C1220     0.06170   0.11100   0.14900  -0.02890  -0.01200   0.03000
C1222     0.05120   0.09600   0.10400   0.02170  -0.01670  -0.00200
C1224     0.08100   0.11700   0.09600  -0.00900  -0.01400   0.01300
N1226     0.07800   0.17700   0.17500  -0.03000  -0.07910   0.00900
C1227     0.16300   0.09900   0.11200   0.03000  -0.01500   0.00000
C1229     0.10100   0.16400   0.11000   0.00300   0.04800  -0.00900
C1231     0.05760   0.14400   0.09200  -0.00300   0.00140   0.02100
N1233     0.12800   0.13100   0.24400   0.03300  -0.13270  -0.01100
C1234     0.05390   0.10100   0.09000   0.00130  -0.01800  -0.00320
C1236     0.14200   0.09900   0.10100   0.02900  -0.01000  -0.00900
C1237     0.05850   0.20100   0.08000   0.03400  -0.01560   0.01500
C1239     0.09000   0.18900   0.09800   0.03300   0.00300   0.05700
C1241     0.08600   0.14300   0.13900   0.01400   0.02400   0.05700
C1244     0.09000   0.16400   0.14200   0.03200   0.02300  -0.02700
C1247     0.10200   0.14600   0.19600  -0.04200   0.00600   0.06800
C1250     0.10700   0.11900   0.15400  -0.02100   0.04700   0.00500
C1253     0.40600   0.31100   0.36900   0.07400   0.04200  -0.25400
C1256     0.22100   0.16600   0.16600   0.06700   0.00000  -0.03300
C1259     0.22000   0.37200   0.34900   0.14800   0.18800   0.23900
C1262     0.12000   0.18900   0.19900   0.01300   0.04000   0.08700
C1265     0.07600   0.31700   0.15300   0.04300   0.05800  -0.03300
C1268     0.14400   0.23300   0.48400  -0.03500   0.15100  -0.10600
C1271     0.45000   0.37000   0.46000  -0.02100  -0.17000   0.15200
C1274     0.29600   0.26100   0.36400  -0.07500   0.09800   0.10000
C1277     0.20900   0.52000   0.36900   0.00000   0.13100   0.05900
C1280     0.35500   0.40000   0.31800   0.06000   0.15100   0.03000
C1283     0.74000   0.45000   0.47000   0.28000  -0.04000  -0.10000
C1286     0.43000   0.40300   0.45100  -0.05100   0.01000   0.24200
C1289     0.19600   0.18200   0.16500  -0.00800   0.04500   0.02600
C1293     0.23200   0.50900   0.22800   0.17600   0.08000   0.05300
C1296     0.29600   0.47300   0.30200  -0.05800   0.00700   0.19500
C1300     0.49400   0.47600   0.38300  -0.03600   0.24600   0.19100
C1303     0.42000   0.33000   0.72000  -0.06000   0.12000  -0.18000
C1307     0.88000   0.89000   0.84000  -0.01000  -0.12000  -0.02000
C1310     0.22600   0.58000   0.66000   0.15000  -0.02000   0.19000
C1313     0.64000   0.76000   0.53400   0.24000   0.37400   0.38900
S1317     0.03390   0.10420   0.06310  -0.00210   0.01870  -0.00750
S1318     0.03780   0.08870   0.06560  -0.00100   0.01960   0.00090
C1319     0.02600   0.06510   0.05260  -0.00680  -0.00360  -0.00080
C1320     0.02680   0.07670   0.05020   0.00380   0.01460  -0.00090
C1321     0.01470   0.07710   0.05300   0.00620   0.00430  -0.00540
C1322     0.03670   0.08740   0.04750   0.00220   0.01070  -0.00570
C1323     0.02200   0.08640   0.06410  -0.00750  -0.00350  -0.00900
C1325     0.03640   0.07440   0.05070   0.00260  -0.00070  -0.00700
C1326     0.02690   0.08000   0.06020  -0.00770   0.01380   0.00480
O1327     0.05890   0.11540   0.09230  -0.00320   0.03410  -0.01320
C1328     0.03600   0.08080   0.06160  -0.00570   0.01190  -0.00770
C1330     0.04500   0.06580   0.05730   0.00190   0.00720   0.00080
C1332     0.02550   0.08520   0.06030  -0.01190   0.02500  -0.00900
C1333     0.03430   0.07160   0.06260   0.00230   0.00290   0.00050
C1335     0.04620   0.07500   0.07040  -0.00630   0.01830   0.00220
C1336     0.02760   0.10060   0.04930  -0.00250   0.00930  -0.00740
C1337     0.03450   0.09200   0.04990  -0.00360   0.01040  -0.00780
C1338     0.03640   0.10000   0.05460   0.00540   0.01210   0.00140
C1339     0.03320   0.09200   0.07170   0.00420   0.02120  -0.00070
C1340     0.04370   0.08260   0.06880  -0.00750   0.02460  -0.00390
C1341     0.03580   0.14200   0.05840  -0.01210   0.01150   0.00060
C1342     0.04380   0.08970   0.07420   0.00810   0.01800   0.00500
C1343     0.03720   0.11100   0.06080   0.00270   0.01760  -0.00920
C1344     0.03260   0.12100   0.06090  -0.00170   0.02430   0.00430
C1345     0.02780   0.07940   0.05910   0.00880   0.01040  -0.00720
C1346     0.03040   0.14900   0.07800   0.00340   0.03350   0.01890
C1348     0.04010   0.14800   0.05420   0.00220   0.02050  -0.01210
C1349     0.04500   0.12800   0.06460   0.00540   0.03300  -0.00750
O1350     0.05630   0.11590   0.11140   0.00870   0.04890   0.01590
C1351     0.06170   0.07600   0.08500  -0.00110   0.02040   0.01300
C1352     0.04900   0.10400   0.06520  -0.01260   0.01270  -0.00470
C1354     0.06110   0.12000   0.05750   0.02140   0.00790  -0.00630
C1355     0.03970   0.18200   0.07220  -0.01720   0.02620   0.02300
C1357     0.04950   0.08180   0.07310  -0.00350   0.01790  -0.01090
C1358     0.05760   0.08670   0.07830   0.00520   0.03290  -0.00130
C1360     0.04580   0.13700   0.06880   0.01910   0.02200   0.01280
C1362     0.04450   0.14000   0.06810  -0.00440   0.02450   0.01040
C1363     0.04920   0.14500   0.05970   0.01480   0.02520  -0.00930
C1364     0.04560   0.10300   0.09300  -0.00080   0.01080  -0.00590
N1365     0.04540   0.20200   0.05740   0.00560   0.00040  -0.00530
C1366     0.03860   0.13700   0.08300   0.00230   0.01970   0.02080
C1367     0.03810   0.09080   0.08150  -0.01340   0.01630  -0.01310
C1368     0.04960   0.14100   0.09100   0.02310   0.01490  -0.03280
C1370     0.05220   0.16800   0.05990   0.02920   0.01780  -0.00280
C1372     0.04960   0.07460   0.09800   0.01120   0.01590  -0.00540
C1374     0.07000   0.11100   0.08300  -0.00990   0.00640   0.00470
C1376     0.05750   0.08900   0.07150  -0.00050   0.01970   0.00840
C1377     0.05460   0.13000   0.12300   0.01470   0.05830  -0.02670
C1378     0.05510   0.15100   0.07840  -0.00280   0.03470   0.02430
C1380     0.04140   0.13700   0.05930   0.00210   0.03070  -0.00320
C1382     0.04610   0.09040   0.07910   0.00120   0.01350   0.00390
C1384     0.04990   0.11700   0.10000   0.00850   0.04140   0.01830
C1386     0.04100   0.12900   0.07660  -0.00580   0.02980  -0.00330
C1388     0.10000   0.07800   0.11400   0.01000  -0.00200  -0.00500
C1390     0.03110   0.14600   0.07050   0.00200   0.03110   0.01640
C1391     0.07100   0.11400   0.06710  -0.00040   0.01030  -0.01070
C1393     0.04270   0.15000   0.05770   0.00390   0.01480   0.00200
C1394     0.04680   0.13400   0.05840   0.02090   0.00690   0.00330
C1395     0.05620   0.17300   0.08160   0.00900   0.03850   0.03900
C1396     0.06600   0.13200   0.12600  -0.02400  -0.00300  -0.03000
C1397     0.05100   0.10600   0.08730   0.01480   0.03300   0.00580
N1398     0.07140   0.18300   0.11300   0.02070   0.05550   0.03500
C1399     0.04640   0.11700   0.11000   0.02540   0.01060   0.02690
C1400     0.06130   0.08400   0.11400  -0.00680   0.00460  -0.01060
C1402     0.06500   0.08300   0.15300  -0.00390  -0.02100  -0.02000
C1403     0.03870   0.13100   0.06030  -0.01090   0.00640  -0.01280
C1405     0.06630   0.11100   0.11600  -0.01340   0.03840  -0.02600
C1407     0.05030   0.14300   0.11900  -0.01460   0.01320   0.04700
C1408     0.06170   0.11100   0.14900  -0.02890   0.01200  -0.03000
C1410     0.05120   0.09600   0.10400   0.02170   0.01670   0.00200
C1412     0.08100   0.11700   0.09600  -0.00900   0.01400  -0.01300
N1414     0.07800   0.17700   0.17500  -0.03000   0.07910  -0.00900
C1415     0.16300   0.09900   0.11200   0.03000   0.01500   0.00000
C1417     0.10100   0.16400   0.11000   0.00300  -0.04800   0.00900
C1419     0.05760   0.14400   0.09200  -0.00300  -0.00140  -0.02100
N1421     0.12800   0.13100   0.24400   0.03300   0.13270   0.01100
C1422     0.05390   0.10100   0.09000   0.00130   0.01800   0.00320
C1424     0.14200   0.09900   0.10100   0.02900   0.01000   0.00900
C1425     0.05850   0.20100   0.08000   0.03400   0.01560  -0.01500
C1427     0.09000   0.18900   0.09800   0.03300  -0.00300  -0.05700
C1429     0.08600   0.14300   0.13900   0.01400  -0.02400  -0.05700
C1432     0.09000   0.16400   0.14200   0.03200  -0.02300   0.02700
C1435     0.10200   0.14600   0.19600  -0.04200  -0.00600  -0.06800
C1438     0.10700   0.11900   0.15400  -0.02100  -0.04700  -0.00500
C1441     0.40600   0.31100   0.36900   0.07400  -0.04200   0.25400
C1444     0.22100   0.16600   0.16600   0.06700   0.00000   0.03300
C1447     0.22000   0.37200   0.34900   0.14800  -0.18800  -0.23900
C1450     0.12000   0.18900   0.19900   0.01300  -0.04000  -0.08700
C1453     0.07600   0.31700   0.15300   0.04300  -0.05800   0.03300
C1456     0.14400   0.23300   0.48400  -0.03500  -0.15100   0.10600
C1459     0.45000   0.37000   0.46000  -0.02100   0.17000  -0.15200
C1462     0.29600   0.26100   0.36400  -0.07500  -0.09800  -0.10000
C1465     0.20900   0.52000   0.36900   0.00000  -0.13100  -0.05900
C1468     0.35500   0.40000   0.31800   0.06000  -0.15100  -0.03000
C1471     0.74000   0.45000   0.47000   0.28000   0.04000   0.10000
C1474     0.43000   0.40300   0.45100  -0.05100  -0.01000  -0.24200
C1477     0.19600   0.18200   0.16500  -0.00800  -0.04500  -0.02600
C1481     0.23200   0.50900   0.22800   0.17600  -0.08000  -0.05300
C1484     0.29600   0.47300   0.30200  -0.05800  -0.00700  -0.19500
C1488     0.49400   0.47600   0.38300  -0.03600  -0.24600  -0.19100
C1491     0.42000   0.33000   0.72000  -0.06000  -0.12000   0.18000
C1495     0.88000   0.89000   0.84000  -0.01000   0.12000   0.02000
C1498     0.22600   0.58000   0.66000   0.15000   0.02000  -0.19000
C1501     0.64000   0.76000   0.53400   0.24000  -0.37400  -0.38900
C1505     0.01430   0.08900   0.04880   0.00000   0.00000  -0.00640
C1506     0.01430   0.08900   0.04880   0.00000   0.00000   0.00640
C1507     0.01430   0.08900   0.04880   0.00000   0.00000  -0.00640
C1508     0.01430   0.08900   0.04880   0.00000   0.00000   0.00640
loop_
_geom_bond_atom_site_label_1
_geom_bond_atom_site_label_2
_geom_bond_distance
_geom_bond_site_symmetry_2
_ccdc_geom_bond_type
S1     C6      1.660   .     S
S1     C28     1.729   .     S
S2     C16     1.674   .     S
S2     C27     1.724   .     S
C3     C7      1.375   .     D
C3     C10     1.397   .     S
C3     C1505   1.527   .     S
C4     C29     1.357   .     D
C4     C17     1.418   .     S
C4     C16     1.480   .     S
C5     C9      1.373   .     S
C5     C17     1.380   .     D
C5     C1505   1.535   .     S
C6     C22     1.377   .     D
C6     C20     1.516   .     S
C7     C20     1.393   .     S
C7     H8      0.949   .     S
C9     C14     1.361   .     D
C9     C10     1.504   .     S
C10    C12     1.421   .     D
O11    C33     1.255   .     D
C12    C21     1.387   .     S
C12    H13     0.951   .     S
C14    C29     1.423   .     S
C14    H15     0.949   .     S
C16    C19     1.400   .     D
C17    H18     0.950   .     S
C19    C42     1.428   .     S
C19    C23     1.518   .     S
C20    C21     1.368   .     D
C21    C24     1.512   .     S
C22    C36     1.427   .     S
C22    C24     1.511   .     S
C23    C29     1.528   .     S
C23    C26     1.530   .     S
C23    C41     1.538   .     S
C24    C51     1.536   .     S
C24    C60     1.561   .     S
C25    O34     1.235   .     D
C25    C74     1.474   .     S
C25    C35     1.488   .     S
C26    C66     1.354   .     D
C26    C56     1.438   .     S
C27    C42     1.388   .     D
C27    C64     1.464   .     S
C28    C36     1.353   .     D
C28    C70     1.460   .     S
C30    C39     1.411   .     D
C30    C50     1.412   .     S
C30    H31     0.949   .     S
C32    C48     1.361   .     D
C32    C50     1.457   .     S
C32    C35     1.468   .     S
C33    C38     1.450   .     S
C33    C47     1.466   .     S
C35    C64     1.353   .     D
C36    H37     0.951   .     S
C38    C70     1.362   .     D
C38    C46     1.483   .     S
C39    C62     1.394   .     S
C39    H40     0.949   .     S
C41    C106    1.404   .     D
C41    C58     1.425   .     S
C42    H43     0.950   .     S
C44    C66     1.360   .     S
C44    C83     1.463   .     D
C44    H45     0.949   .     S
C46    C81     1.369   .     D
C46    C78     1.463   .     S
C47    C52     1.360   .     S
C47    C78     1.411   .     D
C48    C61     1.390   .     S
C48    C77     1.413   .     S
N49    C77     1.203   .     T
C50    C74     1.399   .     D
C51    C87     1.377   .     D
C51    C89     1.444   .     S
C52    C111    1.418   .     D
C52    H53     0.950   .     S
C54    C109    1.385   .     D
C54    C78     1.394   .     S
C54    H55     0.950   .     S
C56    C94     1.386   .     D
C56    H57     0.949   .     S
C58    C96     1.384   .     D
C58    H59     0.950   .     S
C60    C72     1.367   .     D
C60    C75     1.379   .     S
C61    N105    1.178   .     T
C62    C68     1.378   .     D
C62    H63     0.949   .     S
C64    H65     0.951   .     S
C66    H67     0.949   .     S
C68    C74     1.385   .     S
C68    H69     0.952   .     S
C70    H71     0.952   .     S
C72    C99     1.372   .     S
C72    H73     0.950   .     S
C75    C101    1.362   .     D
C75    H76     0.950   .     S
C79    N82     1.135   .     T
C79    C81     1.446   .     S
C80    C92     1.326   .     S
C80    C103    1.394   .     D
C80    C119    1.544   .     S
C81    C91     1.348   .     S
C83    C94     1.355   .     S
C83    C116    1.540   .     S
C84    C86     1.332   .     D
C84    C106    1.426   .     S
C84    H85     0.949   .     S
C86    C96     1.416   .     S
C86    C122    1.516   .     S
C87    C103    1.417   .     S
C87    H88     0.950   .     S
C89    C92     1.429   .     D
C89    H90     0.950   .     S
C91    N98     1.229   .     T
C92    H93     0.950   .     S
C94    H95     0.950   .     S
C96    H97     0.949   .     S
C99    C108    1.418   .     D
C99    H100    0.952   .     S
C101   C108    1.419   .     S
C101   H102    0.950   .     S
C103   H104    0.950   .     S
C106   H107    0.951   .     S
C108   C128    1.471   .     S
C109   C111    1.385   .     S
C109   H110    0.951   .     S
C111   H112    0.951   .     S
C113   C122    1.529   .     S
C113   C134    1.537   .     S
C113   H114    0.991   .     S
C113   H115    0.989   .     S
C116   C137    1.600   .     S
C116   H117    0.990   .     S
C116   H118    0.991   .     S
C119   C146    1.546   .     S
C119   H120    0.990   .     S
C119   H121    0.989   .     S
C122   H123    0.989   .     S
C122   H124    0.990   .     S
C125   C128    1.539   .     S
C125   C155    1.549   .     S
C125   H126    0.990   .     S
C125   H127    0.991   .     S
C128   H129    0.993   .     S
C128   H130    0.990   .     S
C131   C134    1.494   .     S
C131   C158    1.536   .     S
C131   H132    0.990   .     S
C131   H133    0.990   .     S
C134   H135    0.990   .     S
C134   H136    0.991   .     S
C137   C140    1.537   .     S
C137   H138    0.987   .     S
C137   H139    0.989   .     S
C140   C182    1.581   .     S
C140   H141    0.990   .     S
C140   H142    0.991   .     S
C143   C149    1.540   .     S
C143   C172    1.548   .     S
C143   H144    0.990   .     S
C143   H145    0.992   .     S
C146   C149    1.512   .     S
C146   H147    0.991   .     S
C146   H148    0.992   .     S
C149   H150    0.991   .     S
C149   H151    0.990   .     S
C152   C155    1.517   .     S
C152   C179    1.555   .     S
C152   H153    0.991   .     S
C152   H154    0.988   .     S
C155   H156    0.990   .     S
C155   H157    0.991   .     S
C158   C185    1.557   .     S
C158   H159    0.991   .     S
C158   H160    0.991   .     S
C161   C165    1.524   .     S
C161   H162    0.982   .     S
C161   H163    0.982   .     S
C161   H164    0.979   .     S
C165   C182    1.558   .     S
C165   H166    0.992   .     S
C165   H167    0.991   .     S
C168   C172    1.523   .     S
C168   H169    0.980   .     S
C168   H170    0.980   .     S
C168   H171    0.981   .     S
C172   H173    0.989   .     S
C172   H174    0.991   .     S
C175   C179    1.531   .     S
C175   H176    0.980   .     S
C175   H177    0.979   .     S
C175   H178    0.981   .     S
C179   H180    0.990   .     S
C179   H181    0.992   .     S
C182   H183    0.992   .     S
C182   H184    0.990   .     S
C185   H186    0.979   .     S
C185   H187    0.979   .     S
C185   H188    0.981   .     S
S189   C194    1.660   .     S
S189   C216    1.729   .     S
S190   C204    1.674   .     S
S190   C215    1.724   .     S
C191   C195    1.375   .     D
C191   C198    1.397   .     S
C191   C1506   1.527   .     S
C192   C217    1.357   .     D
C192   C205    1.418   .     S
C192   C204    1.480   .     S
C193   C197    1.373   .     S
C193   C205    1.380   .     D
C193   C1506   1.535   .     S
C194   C210    1.377   .     D
C194   C208    1.516   .     S
C195   C208    1.393   .     S
C195   H196    0.949   .     S
C197   C202    1.361   .     D
C197   C198    1.504   .     S
C198   C200    1.421   .     D
O199   C221    1.255   .     D
C200   C209    1.387   .     S
C200   H201    0.951   .     S
C202   C217    1.423   .     S
C202   H203    0.949   .     S
C204   C207    1.400   .     D
C205   H206    0.950   .     S
C207   C230    1.428   .     S
C207   C211    1.518   .     S
C208   C209    1.368   .     D
C209   C212    1.512   .     S
C210   C224    1.427   .     S
C210   C212    1.511   .     S
C211   C217    1.528   .     S
C211   C214    1.530   .     S
C211   C229    1.538   .     S
C212   C239    1.536   .     S
C212   C248    1.561   .     S
C213   O222    1.235   .     D
C213   C262    1.474   .     S
C213   C223    1.488   .     S
C214   C254    1.354   .     D
C214   C244    1.438   .     S
C215   C230    1.388   .     D
C215   C252    1.464   .     S
C216   C224    1.353   .     D
C216   C258    1.460   .     S
C218   C227    1.411   .     D
C218   C238    1.412   .     S
C218   H219    0.949   .     S
C220   C236    1.361   .     D
C220   C238    1.457   .     S
C220   C223    1.468   .     S
C221   C226    1.450   .     S
C221   C235    1.466   .     S
C223   C252    1.353   .     D
C224   H225    0.951   .     S
C226   C258    1.362   .     D
C226   C234    1.483   .     S
C227   C250    1.394   .     S
C227   H228    0.949   .     S
C229   C294    1.404   .     D
C229   C246    1.425   .     S
C230   H231    0.950   .     S
C232   C254    1.360   .     S
C232   C271    1.463   .     D
C232   H233    0.949   .     S
C234   C269    1.369   .     D
C234   C266    1.463   .     S
C235   C240    1.360   .     S
C235   C266    1.411   .     D
C236   C249    1.390   .     S
C236   C265    1.413   .     S
N237   C265    1.203   .     T
C238   C262    1.399   .     D
C239   C275    1.377   .     D
C239   C277    1.444   .     S
C240   C299    1.418   .     D
C240   H241    0.950   .     S
C242   C297    1.385   .     D
C242   C266    1.394   .     S
C242   H243    0.950   .     S
C244   C282    1.386   .     D
C244   H245    0.949   .     S
C246   C284    1.384   .     D
C246   H247    0.950   .     S
C248   C260    1.367   .     D
C248   C263    1.379   .     S
C249   N293    1.178   .     T
C250   C256    1.378   .     D
C250   H251    0.949   .     S
C252   H253    0.951   .     S
C254   H255    0.949   .     S
C256   C262    1.385   .     S
C256   H257    0.952   .     S
C258   H259    0.952   .     S
C260   C287    1.372   .     S
C260   H261    0.950   .     S
C263   C289    1.362   .     D
C263   H264    0.950   .     S
C267   N270    1.135   .     T
C267   C269    1.446   .     S
C268   C280    1.326   .     S
C268   C291    1.394   .     D
C268   C307    1.544   .     S
C269   C279    1.348   .     S
C271   C282    1.355   .     S
C271   C304    1.540   .     S
C272   C274    1.332   .     D
C272   C294    1.426   .     S
C272   H273    0.949   .     S
C274   C284    1.416   .     S
C274   C310    1.516   .     S
C275   C291    1.417   .     S
C275   H276    0.950   .     S
C277   C280    1.429   .     D
C277   H278    0.950   .     S
C279   N286    1.229   .     T
C280   H281    0.950   .     S
C282   H283    0.950   .     S
C284   H285    0.949   .     S
C287   C296    1.418   .     D
C287   H288    0.952   .     S
C289   C296    1.419   .     S
C289   H290    0.950   .     S
C291   H292    0.950   .     S
C294   H295    0.951   .     S
C296   C316    1.471   .     S
C297   C299    1.385   .     S
C297   H298    0.951   .     S
C299   H300    0.951   .     S
C301   C310    1.529   .     S
C301   C322    1.537   .     S
C301   H302    0.991   .     S
C301   H303    0.989   .     S
C304   C325    1.600   .     S
C304   H305    0.990   .     S
C304   H306    0.991   .     S
C307   C334    1.546   .     S
C307   H308    0.990   .     S
C307   H309    0.989   .     S
C310   H311    0.989   .     S
C310   H312    0.990   .     S
C313   C316    1.539   .     S
C313   C343    1.549   .     S
C313   H314    0.990   .     S
C313   H315    0.991   .     S
C316   H317    0.993   .     S
C316   H318    0.990   .     S
C319   C322    1.494   .     S
C319   C346    1.536   .     S
C319   H320    0.990   .     S
C319   H321    0.990   .     S
C322   H323    0.990   .     S
C322   H324    0.991   .     S
C325   C328    1.537   .     S
C325   H326    0.987   .     S
C325   H327    0.989   .     S
C328   C370    1.581   .     S
C328   H329    0.990   .     S
C328   H330    0.991   .     S
C331   C337    1.540   .     S
C331   C360    1.548   .     S
C331   H332    0.990   .     S
C331   H333    0.992   .     S
C334   C337    1.512   .     S
C334   H335    0.991   .     S
C334   H336    0.992   .     S
C337   H338    0.991   .     S
C337   H339    0.990   .     S
C340   C343    1.517   .     S
C340   C367    1.555   .     S
C340   H341    0.991   .     S
C340   H342    0.988   .     S
C343   H344    0.990   .     S
C343   H345    0.991   .     S
C346   C373    1.557   .     S
C346   H347    0.991   .     S
C346   H348    0.991   .     S
C349   C353    1.524   .     S
C349   H350    0.982   .     S
C349   H351    0.982   .     S
C349   H352    0.979   .     S
C353   C370    1.558   .     S
C353   H354    0.992   .     S
C353   H355    0.991   .     S
C356   C360    1.523   .     S
C356   H357    0.980   .     S
C356   H358    0.980   .     S
C356   H359    0.981   .     S
C360   H361    0.989   .     S
C360   H362    0.991   .     S
C363   C367    1.531   .     S
C363   H364    0.980   .     S
C363   H365    0.979   .     S
C363   H366    0.981   .     S
C367   H368    0.990   .     S
C367   H369    0.992   .     S
C370   H371    0.992   .     S
C370   H372    0.990   .     S
C373   H374    0.979   .     S
C373   H375    0.979   .     S
C373   H376    0.981   .     S
S377   C382    1.660   .     S
S377   C404    1.729   .     S
S378   C392    1.674   .     S
S378   C403    1.724   .     S
C379   C383    1.375   .     D
C379   C386    1.397   .     S
C379   C1506   1.527   .     S
C380   C405    1.357   .     D
C380   C393    1.418   .     S
C380   C392    1.480   .     S
C381   C385    1.373   .     S
C381   C393    1.380   .     D
C381   C1506   1.535   .     S
C382   C398    1.377   .     D
C382   C396    1.516   .     S
C383   C396    1.393   .     S
C383   H384    0.949   .     S
C385   C390    1.361   .     D
C385   C386    1.504   .     S
C386   C388    1.421   .     D
O387   C409    1.255   .     D
C388   C397    1.387   .     S
C388   H389    0.951   .     S
C390   C405    1.423   .     S
C390   H391    0.949   .     S
C392   C395    1.400   .     D
C393   H394    0.950   .     S
C395   C418    1.428   .     S
C395   C399    1.518   .     S
C396   C397    1.368   .     D
C397   C400    1.512   .     S
C398   C412    1.427   .     S
C398   C400    1.511   .     S
C399   C405    1.528   .     S
C399   C402    1.530   .     S
C399   C417    1.538   .     S
C400   C427    1.536   .     S
C400   C436    1.561   .     S
C401   O410    1.235   .     D
C401   C450    1.474   .     S
C401   C411    1.488   .     S
C402   C442    1.354   .     D
C402   C432    1.438   .     S
C403   C418    1.388   .     D
C403   C440    1.464   .     S
C404   C412    1.353   .     D
C404   C446    1.460   .     S
C406   C415    1.411   .     D
C406   C426    1.412   .     S
C406   H407    0.949   .     S
C408   C424    1.361   .     D
C408   C426    1.457   .     S
C408   C411    1.468   .     S
C409   C414    1.450   .     S
C409   C423    1.466   .     S
C411   C440    1.353   .     D
C412   H413    0.951   .     S
C414   C446    1.362   .     D
C414   C422    1.483   .     S
C415   C438    1.394   .     S
C415   H416    0.949   .     S
C417   C482    1.404   .     D
C417   C434    1.425   .     S
C418   H419    0.950   .     S
C420   C442    1.360   .     S
C420   C459    1.463   .     D
C420   H421    0.949   .     S
C422   C457    1.369   .     D
C422   C454    1.463   .     S
C423   C428    1.360   .     S
C423   C454    1.411   .     D
C424   C437    1.390   .     S
C424   C453    1.413   .     S
N425   C453    1.203   .     T
C426   C450    1.399   .     D
C427   C463    1.377   .     D
C427   C465    1.444   .     S
C428   C487    1.418   .     D
C428   H429    0.950   .     S
C430   C485    1.385   .     D
C430   C454    1.394   .     S
C430   H431    0.950   .     S
C432   C470    1.386   .     D
C432   H433    0.949   .     S
C434   C472    1.384   .     D
C434   H435    0.950   .     S
C436   C448    1.367   .     D
C436   C451    1.379   .     S
C437   N481    1.178   .     T
C438   C444    1.378   .     D
C438   H439    0.949   .     S
C440   H441    0.951   .     S
C442   H443    0.949   .     S
C444   C450    1.385   .     S
C444   H445    0.952   .     S
C446   H447    0.952   .     S
C448   C475    1.372   .     S
C448   H449    0.950   .     S
C451   C477    1.362   .     D
C451   H452    0.950   .     S
C455   N458    1.135   .     T
C455   C457    1.446   .     S
C456   C468    1.326   .     S
C456   C479    1.394   .     D
C456   C495    1.544   .     S
C457   C467    1.348   .     S
C459   C470    1.355   .     S
C459   C492    1.540   .     S
C460   C462    1.332   .     D
C460   C482    1.426   .     S
C460   H461    0.949   .     S
C462   C472    1.416   .     S
C462   C498    1.516   .     S
C463   C479    1.417   .     S
C463   H464    0.950   .     S
C465   C468    1.429   .     D
C465   H466    0.950   .     S
C467   N474    1.229   .     T
C468   H469    0.950   .     S
C470   H471    0.950   .     S
C472   H473    0.949   .     S
C475   C484    1.418   .     D
C475   H476    0.952   .     S
C477   C484    1.419   .     S
C477   H478    0.950   .     S
C479   H480    0.950   .     S
C482   H483    0.951   .     S
C484   C504    1.471   .     S
C485   C487    1.385   .     S
C485   H486    0.951   .     S
C487   H488    0.951   .     S
C489   C498    1.529   .     S
C489   C510    1.537   .     S
C489   H490    0.991   .     S
C489   H491    0.989   .     S
C492   C513    1.600   .     S
C492   H493    0.990   .     S
C492   H494    0.991   .     S
C495   C522    1.546   .     S
C495   H496    0.990   .     S
C495   H497    0.989   .     S
C498   H499    0.989   .     S
C498   H500    0.990   .     S
C501   C504    1.539   .     S
C501   C531    1.549   .     S
C501   H502    0.990   .     S
C501   H503    0.991   .     S
C504   H505    0.993   .     S
C504   H506    0.990   .     S
C507   C510    1.494   .     S
C507   C534    1.536   .     S
C507   H508    0.990   .     S
C507   H509    0.990   .     S
C510   H511    0.990   .     S
C510   H512    0.991   .     S
C513   C516    1.537   .     S
C513   H514    0.987   .     S
C513   H515    0.989   .     S
C516   C558    1.581   .     S
C516   H517    0.990   .     S
C516   H518    0.991   .     S
C519   C525    1.540   .     S
C519   C548    1.548   .     S
C519   H520    0.990   .     S
C519   H521    0.992   .     S
C522   C525    1.512   .     S
C522   H523    0.991   .     S
C522   H524    0.992   .     S
C525   H526    0.991   .     S
C525   H527    0.990   .     S
C528   C531    1.517   .     S
C528   C555    1.555   .     S
C528   H529    0.991   .     S
C528   H530    0.988   .     S
C531   H532    0.990   .     S
C531   H533    0.991   .     S
C534   C561    1.557   .     S
C534   H535    0.991   .     S
C534   H536    0.991   .     S
C537   C541    1.524   .     S
C537   H538    0.982   .     S
C537   H539    0.982   .     S
C537   H540    0.979   .     S
C541   C558    1.558   .     S
C541   H542    0.992   .     S
C541   H543    0.991   .     S
C544   C548    1.523   .     S
C544   H545    0.980   .     S
C544   H546    0.980   .     S
C544   H547    0.981   .     S
C548   H549    0.989   .     S
C548   H550    0.991   .     S
C551   C555    1.531   .     S
C551   H552    0.980   .     S
C551   H553    0.979   .     S
C551   H554    0.981   .     S
C555   H556    0.990   .     S
C555   H557    0.992   .     S
C558   H559    0.992   .     S
C558   H560    0.990   .     S
C561   H562    0.979   .     S
C561   H563    0.979   .     S
C561   H564    0.981   .     S
S565   C570    1.660   .     S
S565   C592    1.729   .     S
S566   C580    1.674   .     S
S566   C591    1.724   .     S
C567   C571    1.375   .     D
C567   C574    1.397   .     S
C567   C1505   1.527   .     S
C568   C593    1.357   .     D
C568   C581    1.418   .     S
C568   C580    1.480   .     S
C569   C573    1.373   .     S
C569   C581    1.380   .     D
C569   C1505   1.535   .     S
C570   C586    1.377   .     D
C570   C584    1.516   .     S
C571   C584    1.393   .     S
C571   H572    0.949   .     S
C573   C578    1.361   .     D
C573   C574    1.504   .     S
C574   C576    1.421   .     D
O575   C597    1.255   .     D
C576   C585    1.387   .     S
C576   H577    0.951   .     S
C578   C593    1.423   .     S
C578   H579    0.949   .     S
C580   C583    1.400   .     D
C581   H582    0.950   .     S
C583   C606    1.428   .     S
C583   C587    1.518   .     S
C584   C585    1.368   .     D
C585   C588    1.512   .     S
C586   C600    1.427   .     S
C586   C588    1.511   .     S
C587   C593    1.528   .     S
C587   C590    1.530   .     S
C587   C605    1.538   .     S
C588   C615    1.536   .     S
C588   C624    1.561   .     S
C589   O598    1.235   .     D
C589   C638    1.474   .     S
C589   C599    1.488   .     S
C590   C630    1.354   .     D
C590   C620    1.438   .     S
C591   C606    1.388   .     D
C591   C628    1.464   .     S
C592   C600    1.353   .     D
C592   C634    1.460   .     S
C594   C603    1.411   .     D
C594   C614    1.412   .     S
C594   H595    0.949   .     S
C596   C612    1.361   .     D
C596   C614    1.457   .     S
C596   C599    1.468   .     S
C597   C602    1.450   .     S
C597   C611    1.466   .     S
C599   C628    1.353   .     D
C600   H601    0.951   .     S
C602   C634    1.362   .     D
C602   C610    1.483   .     S
C603   C626    1.394   .     S
C603   H604    0.949   .     S
C605   C670    1.404   .     D
C605   C622    1.425   .     S
C606   H607    0.950   .     S
C608   C630    1.360   .     S
C608   C647    1.463   .     D
C608   H609    0.949   .     S
C610   C645    1.369   .     D
C610   C642    1.463   .     S
C611   C616    1.360   .     S
C611   C642    1.411   .     D
C612   C625    1.390   .     S
C612   C641    1.413   .     S
N613   C641    1.203   .     T
C614   C638    1.399   .     D
C615   C651    1.377   .     D
C615   C653    1.444   .     S
C616   C675    1.418   .     D
C616   H617    0.950   .     S
C618   C673    1.385   .     D
C618   C642    1.394   .     S
C618   H619    0.950   .     S
C620   C658    1.386   .     D
C620   H621    0.949   .     S
C622   C660    1.384   .     D
C622   H623    0.950   .     S
C624   C636    1.367   .     D
C624   C639    1.379   .     S
C625   N669    1.178   .     T
C626   C632    1.378   .     D
C626   H627    0.949   .     S
C628   H629    0.951   .     S
C630   H631    0.949   .     S
C632   C638    1.385   .     S
C632   H633    0.952   .     S
C634   H635    0.952   .     S
C636   C663    1.372   .     S
C636   H637    0.950   .     S
C639   C665    1.362   .     D
C639   H640    0.950   .     S
C643   N646    1.135   .     T
C643   C645    1.446   .     S
C644   C656    1.326   .     S
C644   C667    1.394   .     D
C644   C683    1.544   .     S
C645   C655    1.348   .     S
C647   C658    1.355   .     S
C647   C680    1.540   .     S
C648   C650    1.332   .     D
C648   C670    1.426   .     S
C648   H649    0.949   .     S
C650   C660    1.416   .     S
C650   C686    1.516   .     S
C651   C667    1.417   .     S
C651   H652    0.950   .     S
C653   C656    1.429   .     D
C653   H654    0.950   .     S
C655   N662    1.229   .     T
C656   H657    0.950   .     S
C658   H659    0.950   .     S
C660   H661    0.949   .     S
C663   C672    1.418   .     D
C663   H664    0.952   .     S
C665   C672    1.419   .     S
C665   H666    0.950   .     S
C667   H668    0.950   .     S
C670   H671    0.951   .     S
C672   C692    1.471   .     S
C673   C675    1.385   .     S
C673   H674    0.951   .     S
C675   H676    0.951   .     S
C677   C686    1.529   .     S
C677   C698    1.537   .     S
C677   H678    0.991   .     S
C677   H679    0.989   .     S
C680   C701    1.600   .     S
C680   H681    0.990   .     S
C680   H682    0.991   .     S
C683   C710    1.546   .     S
C683   H684    0.990   .     S
C683   H685    0.989   .     S
C686   H687    0.989   .     S
C686   H688    0.990   .     S
C689   C692    1.539   .     S
C689   C719    1.549   .     S
C689   H690    0.990   .     S
C689   H691    0.991   .     S
C692   H693    0.993   .     S
C692   H694    0.990   .     S
C695   C698    1.494   .     S
C695   C722    1.536   .     S
C695   H696    0.990   .     S
C695   H697    0.990   .     S
C698   H699    0.990   .     S
C698   H700    0.991   .     S
C701   C704    1.537   .     S
C701   H702    0.987   .     S
C701   H703    0.989   .     S
C704   C746    1.581   .     S
C704   H705    0.990   .     S
C704   H706    0.991   .     S
C707   C713    1.540   .     S
C707   C736    1.548   .     S
C707   H708    0.990   .     S
C707   H709    0.992   .     S
C710   C713    1.512   .     S
C710   H711    0.991   .     S
C710   H712    0.992   .     S
C713   H714    0.991   .     S
C713   H715    0.990   .     S
C716   C719    1.517   .     S
C716   C743    1.555   .     S
C716   H717    0.991   .     S
C716   H718    0.988   .     S
C719   H720    0.990   .     S
C719   H721    0.991   .     S
C722   C749    1.557   .     S
C722   H723    0.991   .     S
C722   H724    0.991   .     S
C725   C729    1.524   .     S
C725   H726    0.982   .     S
C725   H727    0.982   .     S
C725   H728    0.979   .     S
C729   C746    1.558   .     S
C729   H730    0.992   .     S
C729   H731    0.991   .     S
C732   C736    1.523   .     S
C732   H733    0.980   .     S
C732   H734    0.980   .     S
C732   H735    0.981   .     S
C736   H737    0.989   .     S
C736   H738    0.991   .     S
C739   C743    1.531   .     S
C739   H740    0.980   .     S
C739   H741    0.979   .     S
C739   H742    0.981   .     S
C743   H744    0.990   .     S
C743   H745    0.992   .     S
C746   H747    0.992   .     S
C746   H748    0.990   .     S
C749   H750    0.979   .     S
C749   H751    0.979   .     S
C749   H752    0.981   .     S
S753   C758    1.660   .     S
S753   C780    1.729   .     S
S754   C768    1.674   .     S
S754   C779    1.724   .     S
C755   C759    1.375   .     D
C755   C762    1.397   .     S
C755   C1507   1.527   .     S
C756   C781    1.357   .     D
C756   C769    1.418   .     S
C756   C768    1.480   .     S
C757   C761    1.373   .     S
C757   C769    1.380   .     D
C757   C1507   1.535   .     S
C758   C774    1.377   .     D
C758   C772    1.516   .     S
C759   C772    1.393   .     S
C759   H760    0.949   .     S
C761   C766    1.361   .     D
C761   C762    1.504   .     S
C762   C764    1.421   .     D
O763   C785    1.255   .     D
C764   C773    1.387   .     S
C764   H765    0.951   .     S
C766   C781    1.423   .     S
C766   H767    0.949   .     S
C768   C771    1.400   .     D
C769   H770    0.950   .     S
C771   C794    1.428   .     S
C771   C775    1.518   .     S
C772   C773    1.368   .     D
C773   C776    1.512   .     S
C774   C788    1.427   .     S
C774   C776    1.511   .     S
C775   C781    1.528   .     S
C775   C778    1.530   .     S
C775   C793    1.538   .     S
C776   C803    1.536   .     S
C776   C812    1.561   .     S
C777   O786    1.235   .     D
C777   C826    1.474   .     S
C777   C787    1.488   .     S
C778   C818    1.354   .     D
C778   C808    1.438   .     S
C779   C794    1.388   .     D
C779   C816    1.464   .     S
C780   C788    1.353   .     D
C780   C822    1.460   .     S
C782   C791    1.411   .     D
C782   C802    1.412   .     S
C782   H783    0.949   .     S
C784   C800    1.361   .     D
C784   C802    1.457   .     S
C784   C787    1.468   .     S
C785   C790    1.450   .     S
C785   C799    1.466   .     S
C787   C816    1.353   .     D
C788   H789    0.951   .     S
C790   C822    1.362   .     D
C790   C798    1.483   .     S
C791   C814    1.394   .     S
C791   H792    0.949   .     S
C793   C858    1.404   .     D
C793   C810    1.425   .     S
C794   H795    0.950   .     S
C796   C818    1.360   .     S
C796   C835    1.463   .     D
C796   H797    0.949   .     S
C798   C833    1.369   .     D
C798   C830    1.463   .     S
C799   C804    1.360   .     S
C799   C830    1.411   .     D
C800   C813    1.390   .     S
C800   C829    1.413   .     S
N801   C829    1.203   .     T
C802   C826    1.399   .     D
C803   C839    1.377   .     D
C803   C841    1.444   .     S
C804   C863    1.418   .     D
C804   H805    0.950   .     S
C806   C861    1.385   .     D
C806   C830    1.394   .     S
C806   H807    0.950   .     S
C808   C846    1.386   .     D
C808   H809    0.949   .     S
C810   C848    1.384   .     D
C810   H811    0.950   .     S
C812   C824    1.367   .     D
C812   C827    1.379   .     S
C813   N857    1.178   .     T
C814   C820    1.378   .     D
C814   H815    0.949   .     S
C816   H817    0.951   .     S
C818   H819    0.949   .     S
C820   C826    1.385   .     S
C820   H821    0.952   .     S
C822   H823    0.952   .     S
C824   C851    1.372   .     S
C824   H825    0.950   .     S
C827   C853    1.362   .     D
C827   H828    0.950   .     S
C831   N834    1.135   .     T
C831   C833    1.446   .     S
C832   C844    1.326   .     S
C832   C855    1.394   .     D
C832   C871    1.544   .     S
C833   C843    1.348   .     S
C835   C846    1.355   .     S
C835   C868    1.540   .     S
C836   C838    1.332   .     D
C836   C858    1.426   .     S
C836   H837    0.949   .     S
C838   C848    1.416   .     S
C838   C874    1.516   .     S
C839   C855    1.417   .     S
C839   H840    0.950   .     S
C841   C844    1.429   .     D
C841   H842    0.950   .     S
C843   N850    1.229   .     T
C844   H845    0.950   .     S
C846   H847    0.950   .     S
C848   H849    0.949   .     S
C851   C860    1.418   .     D
C851   H852    0.952   .     S
C853   C860    1.419   .     S
C853   H854    0.950   .     S
C855   H856    0.950   .     S
C858   H859    0.951   .     S
C860   C880    1.471   .     S
C861   C863    1.385   .     S
C861   H862    0.951   .     S
C863   H864    0.951   .     S
C865   C874    1.529   .     S
C865   C886    1.537   .     S
C865   H866    0.991   .     S
C865   H867    0.989   .     S
C868   C889    1.600   .     S
C868   H869    0.990   .     S
C868   H870    0.991   .     S
C871   C898    1.546   .     S
C871   H872    0.990   .     S
C871   H873    0.989   .     S
C874   H875    0.989   .     S
C874   H876    0.990   .     S
C877   C880    1.539   .     S
C877   C907    1.549   .     S
C877   H878    0.990   .     S
C877   H879    0.991   .     S
C880   H881    0.993   .     S
C880   H882    0.990   .     S
C883   C886    1.494   .     S
C883   C910    1.536   .     S
C883   H884    0.990   .     S
C883   H885    0.990   .     S
C886   H887    0.990   .     S
C886   H888    0.991   .     S
C889   C892    1.537   .     S
C889   H890    0.987   .     S
C889   H891    0.989   .     S
C892   C934    1.581   .     S
C892   H893    0.990   .     S
C892   H894    0.991   .     S
C895   C901    1.540   .     S
C895   C924    1.548   .     S
C895   H896    0.990   .     S
C895   H897    0.992   .     S
C898   C901    1.512   .     S
C898   H899    0.991   .     S
C898   H900    0.992   .     S
C901   H902    0.991   .     S
C901   H903    0.990   .     S
C904   C907    1.517   .     S
C904   C931    1.555   .     S
C904   H905    0.991   .     S
C904   H906    0.988   .     S
C907   H908    0.990   .     S
C907   H909    0.991   .     S
C910   C937    1.557   .     S
C910   H911    0.991   .     S
C910   H912    0.991   .     S
C913   C917    1.524   .     S
C913   H914    0.982   .     S
C913   H915    0.982   .     S
C913   H916    0.979   .     S
C917   C934    1.558   .     S
C917   H918    0.992   .     S
C917   H919    0.991   .     S
C920   C924    1.523   .     S
C920   H921    0.980   .     S
C920   H922    0.980   .     S
C920   H923    0.981   .     S
C924   H925    0.989   .     S
C924   H926    0.991   .     S
C927   C931    1.531   .     S
C927   H928    0.980   .     S
C927   H929    0.979   .     S
C927   H930    0.981   .     S
C931   H932    0.990   .     S
C931   H933    0.992   .     S
C934   H935    0.992   .     S
C934   H936    0.990   .     S
C937   H938    0.979   .     S
C937   H939    0.979   .     S
C937   H940    0.981   .     S
S941   C946    1.660   .     S
S941   C968    1.729   .     S
S942   C956    1.674   .     S
S942   C967    1.724   .     S
C943   C947    1.375   .     D
C943   C950    1.397   .     S
C943   C1508   1.527   .     S
C944   C969    1.357   .     D
C944   C957    1.418   .     S
C944   C956    1.480   .     S
C945   C949    1.373   .     S
C945   C957    1.380   .     D
C945   C1508   1.535   .     S
C946   C962    1.377   .     D
C946   C960    1.516   .     S
C947   C960    1.393   .     S
C947   H948    0.949   .     S
C949   C954    1.361   .     D
C949   C950    1.504   .     S
C950   C952    1.421   .     D
O951   C973    1.255   .     D
C952   C961    1.387   .     S
C952   H953    0.951   .     S
C954   C969    1.423   .     S
C954   H955    0.949   .     S
C956   C959    1.400   .     D
C957   H958    0.950   .     S
C959   C982    1.428   .     S
C959   C963    1.518   .     S
C960   C961    1.368   .     D
C961   C964    1.512   .     S
C962   C976    1.427   .     S
C962   C964    1.511   .     S
C963   C969    1.528   .     S
C963   C966    1.530   .     S
C963   C981    1.538   .     S
C964   C991    1.536   .     S
C964   C1000   1.561   .     S
C965   O974    1.235   .     D
C965   C1014   1.474   .     S
C965   C975    1.488   .     S
C966   C1006   1.354   .     D
C966   C996    1.438   .     S
C967   C982    1.388   .     D
C967   C1004   1.464   .     S
C968   C976    1.353   .     D
C968   C1010   1.460   .     S
C970   C979    1.411   .     D
C970   C990    1.412   .     S
C970   H971    0.949   .     S
C972   C988    1.361   .     D
C972   C990    1.457   .     S
C972   C975    1.468   .     S
C973   C978    1.450   .     S
C973   C987    1.466   .     S
C975   C1004   1.353   .     D
C976   H977    0.951   .     S
C978   C1010   1.362   .     D
C978   C986    1.483   .     S
C979   C1002   1.394   .     S
C979   H980    0.949   .     S
C981   C1046   1.404   .     D
C981   C998    1.425   .     S
C982   H983    0.950   .     S
C984   C1006   1.360   .     S
C984   C1023   1.463   .     D
C984   H985    0.949   .     S
C986   C1021   1.369   .     D
C986   C1018   1.463   .     S
C987   C992    1.360   .     S
C987   C1018   1.411   .     D
C988   C1001   1.390   .     S
C988   C1017   1.413   .     S
N989   C1017   1.203   .     T
C990   C1014   1.399   .     D
C991   C1027   1.377   .     D
C991   C1029   1.444   .     S
C992   C1051   1.418   .     D
C992   H993    0.950   .     S
C994   C1049   1.385   .     D
C994   C1018   1.394   .     S
C994   H995    0.950   .     S
C996   C1034   1.386   .     D
C996   H997    0.949   .     S
C998   C1036   1.384   .     D
C998   H999    0.950   .     S
C1000  C1012   1.367   .     D
C1000  C1015   1.379   .     S
C1001  N1045   1.178   .     T
C1002  C1008   1.378   .     D
C1002  H1003   0.949   .     S
C1004  H1005   0.951   .     S
C1006  H1007   0.949   .     S
C1008  C1014   1.385   .     S
C1008  H1009   0.952   .     S
C1010  H1011   0.952   .     S
C1012  C1039   1.372   .     S
C1012  H1013   0.950   .     S
C1015  C1041   1.362   .     D
C1015  H1016   0.950   .     S
C1019  N1022   1.135   .     T
C1019  C1021   1.446   .     S
C1020  C1032   1.326   .     S
C1020  C1043   1.394   .     D
C1020  C1059   1.544   .     S
C1021  C1031   1.348   .     S
C1023  C1034   1.355   .     S
C1023  C1056   1.540   .     S
C1024  C1026   1.332   .     D
C1024  C1046   1.426   .     S
C1024  H1025   0.949   .     S
C1026  C1036   1.416   .     S
C1026  C1062   1.516   .     S
C1027  C1043   1.417   .     S
C1027  H1028   0.950   .     S
C1029  C1032   1.429   .     D
C1029  H1030   0.950   .     S
C1031  N1038   1.229   .     T
C1032  H1033   0.950   .     S
C1034  H1035   0.950   .     S
C1036  H1037   0.949   .     S
C1039  C1048   1.418   .     D
C1039  H1040   0.952   .     S
C1041  C1048   1.419   .     S
C1041  H1042   0.950   .     S
C1043  H1044   0.950   .     S
C1046  H1047   0.951   .     S
C1048  C1068   1.471   .     S
C1049  C1051   1.385   .     S
C1049  H1050   0.951   .     S
C1051  H1052   0.951   .     S
C1053  C1062   1.529   .     S
C1053  C1074   1.537   .     S
C1053  H1054   0.991   .     S
C1053  H1055   0.989   .     S
C1056  C1077   1.600   .     S
C1056  H1057   0.990   .     S
C1056  H1058   0.991   .     S
C1059  C1086   1.546   .     S
C1059  H1060   0.990   .     S
C1059  H1061   0.989   .     S
C1062  H1063   0.989   .     S
C1062  H1064   0.990   .     S
C1065  C1068   1.539   .     S
C1065  C1095   1.549   .     S
C1065  H1066   0.990   .     S
C1065  H1067   0.991   .     S
C1068  H1069   0.993   .     S
C1068  H1070   0.990   .     S
C1071  C1074   1.494   .     S
C1071  C1098   1.536   .     S
C1071  H1072   0.990   .     S
C1071  H1073   0.990   .     S
C1074  H1075   0.990   .     S
C1074  H1076   0.991   .     S
C1077  C1080   1.537   .     S
C1077  H1078   0.987   .     S
C1077  H1079   0.989   .     S
C1080  C1122   1.581   .     S
C1080  H1081   0.990   .     S
C1080  H1082   0.991   .     S
C1083  C1089   1.540   .     S
C1083  C1112   1.548   .     S
C1083  H1084   0.990   .     S
C1083  H1085   0.992   .     S
C1086  C1089   1.512   .     S
C1086  H1087   0.991   .     S
C1086  H1088   0.992   .     S
C1089  H1090   0.991   .     S
C1089  H1091   0.990   .     S
C1092  C1095   1.517   .     S
C1092  C1119   1.555   .     S
C1092  H1093   0.991   .     S
C1092  H1094   0.988   .     S
C1095  H1096   0.990   .     S
C1095  H1097   0.991   .     S
C1098  C1125   1.557   .     S
C1098  H1099   0.991   .     S
C1098  H1100   0.991   .     S
C1101  C1105   1.524   .     S
C1101  H1102   0.982   .     S
C1101  H1103   0.982   .     S
C1101  H1104   0.979   .     S
C1105  C1122   1.558   .     S
C1105  H1106   0.992   .     S
C1105  H1107   0.991   .     S
C1108  C1112   1.523   .     S
C1108  H1109   0.980   .     S
C1108  H1110   0.980   .     S
C1108  H1111   0.981   .     S
C1112  H1113   0.989   .     S
C1112  H1114   0.991   .     S
C1115  C1119   1.531   .     S
C1115  H1116   0.980   .     S
C1115  H1117   0.979   .     S
C1115  H1118   0.981   .     S
C1119  H1120   0.990   .     S
C1119  H1121   0.992   .     S
C1122  H1123   0.992   .     S
C1122  H1124   0.990   .     S
C1125  H1126   0.979   .     S
C1125  H1127   0.979   .     S
C1125  H1128   0.981   .     S
S1129  C1134   1.660   .     S
S1129  C1156   1.729   .     S
S1130  C1144   1.674   .     S
S1130  C1155   1.724   .     S
C1131  C1135   1.375   .     D
C1131  C1138   1.397   .     S
C1131  C1508   1.527   .     S
C1132  C1157   1.357   .     D
C1132  C1145   1.418   .     S
C1132  C1144   1.480   .     S
C1133  C1137   1.373   .     S
C1133  C1145   1.380   .     D
C1133  C1508   1.535   .     S
C1134  C1150   1.377   .     D
C1134  C1148   1.516   .     S
C1135  C1148   1.393   .     S
C1135  H1136   0.949   .     S
C1137  C1142   1.361   .     D
C1137  C1138   1.504   .     S
C1138  C1140   1.421   .     D
O1139  C1161   1.255   .     D
C1140  C1149   1.387   .     S
C1140  H1141   0.951   .     S
C1142  C1157   1.423   .     S
C1142  H1143   0.949   .     S
C1144  C1147   1.400   .     D
C1145  H1146   0.950   .     S
C1147  C1170   1.428   .     S
C1147  C1151   1.518   .     S
C1148  C1149   1.368   .     D
C1149  C1152   1.512   .     S
C1150  C1164   1.427   .     S
C1150  C1152   1.511   .     S
C1151  C1157   1.528   .     S
C1151  C1154   1.530   .     S
C1151  C1169   1.538   .     S
C1152  C1179   1.536   .     S
C1152  C1188   1.561   .     S
C1153  O1162   1.235   .     D
C1153  C1202   1.474   .     S
C1153  C1163   1.488   .     S
C1154  C1194   1.354   .     D
C1154  C1184   1.438   .     S
C1155  C1170   1.388   .     D
C1155  C1192   1.464   .     S
C1156  C1164   1.353   .     D
C1156  C1198   1.460   .     S
C1158  C1167   1.411   .     D
C1158  C1178   1.412   .     S
C1158  H1159   0.949   .     S
C1160  C1176   1.361   .     D
C1160  C1178   1.457   .     S
C1160  C1163   1.468   .     S
C1161  C1166   1.450   .     S
C1161  C1175   1.466   .     S
C1163  C1192   1.353   .     D
C1164  H1165   0.951   .     S
C1166  C1198   1.362   .     D
C1166  C1174   1.483   .     S
C1167  C1190   1.394   .     S
C1167  H1168   0.949   .     S
C1169  C1234   1.404   .     D
C1169  C1186   1.425   .     S
C1170  H1171   0.950   .     S
C1172  C1194   1.360   .     S
C1172  C1211   1.463   .     D
C1172  H1173   0.949   .     S
C1174  C1209   1.369   .     D
C1174  C1206   1.463   .     S
C1175  C1180   1.360   .     S
C1175  C1206   1.411   .     D
C1176  C1189   1.390   .     S
C1176  C1205   1.413   .     S
N1177  C1205   1.203   .     T
C1178  C1202   1.399   .     D
C1179  C1215   1.377   .     D
C1179  C1217   1.444   .     S
C1180  C1239   1.418   .     D
C1180  H1181   0.950   .     S
C1182  C1237   1.385   .     D
C1182  C1206   1.394   .     S
C1182  H1183   0.950   .     S
C1184  C1222   1.386   .     D
C1184  H1185   0.949   .     S
C1186  C1224   1.384   .     D
C1186  H1187   0.950   .     S
C1188  C1200   1.367   .     D
C1188  C1203   1.379   .     S
C1189  N1233   1.178   .     T
C1190  C1196   1.378   .     D
C1190  H1191   0.949   .     S
C1192  H1193   0.951   .     S
C1194  H1195   0.949   .     S
C1196  C1202   1.385   .     S
C1196  H1197   0.952   .     S
C1198  H1199   0.952   .     S
C1200  C1227   1.372   .     S
C1200  H1201   0.950   .     S
C1203  C1229   1.362   .     D
C1203  H1204   0.950   .     S
C1207  N1210   1.135   .     T
C1207  C1209   1.446   .     S
C1208  C1220   1.326   .     S
C1208  C1231   1.394   .     D
C1208  C1247   1.544   .     S
C1209  C1219   1.348   .     S
C1211  C1222   1.355   .     S
C1211  C1244   1.540   .     S
C1212  C1214   1.332   .     D
C1212  C1234   1.426   .     S
C1212  H1213   0.949   .     S
C1214  C1224   1.416   .     S
C1214  C1250   1.516   .     S
C1215  C1231   1.417   .     S
C1215  H1216   0.950   .     S
C1217  C1220   1.429   .     D
C1217  H1218   0.950   .     S
C1219  N1226   1.229   .     T
C1220  H1221   0.950   .     S
C1222  H1223   0.950   .     S
C1224  H1225   0.949   .     S
C1227  C1236   1.418   .     D
C1227  H1228   0.952   .     S
C1229  C1236   1.419   .     S
C1229  H1230   0.950   .     S
C1231  H1232   0.950   .     S
C1234  H1235   0.951   .     S
C1236  C1256   1.471   .     S
C1237  C1239   1.385   .     S
C1237  H1238   0.951   .     S
C1239  H1240   0.951   .     S
C1241  C1250   1.529   .     S
C1241  C1262   1.537   .     S
C1241  H1242   0.991   .     S
C1241  H1243   0.989   .     S
C1244  C1265   1.600   .     S
C1244  H1245   0.990   .     S
C1244  H1246   0.991   .     S
C1247  C1274   1.546   .     S
C1247  H1248   0.990   .     S
C1247  H1249   0.989   .     S
C1250  H1251   0.989   .     S
C1250  H1252   0.990   .     S
C1253  C1256   1.539   .     S
C1253  C1283   1.549   .     S
C1253  H1254   0.990   .     S
C1253  H1255   0.991   .     S
C1256  H1257   0.993   .     S
C1256  H1258   0.990   .     S
C1259  C1262   1.494   .     S
C1259  C1286   1.536   .     S
C1259  H1260   0.990   .     S
C1259  H1261   0.990   .     S
C1262  H1263   0.990   .     S
C1262  H1264   0.991   .     S
C1265  C1268   1.537   .     S
C1265  H1266   0.987   .     S
C1265  H1267   0.989   .     S
C1268  C1310   1.581   .     S
C1268  H1269   0.990   .     S
C1268  H1270   0.991   .     S
C1271  C1277   1.540   .     S
C1271  C1300   1.548   .     S
C1271  H1272   0.990   .     S
C1271  H1273   0.992   .     S
C1274  C1277   1.512   .     S
C1274  H1275   0.991   .     S
C1274  H1276   0.992   .     S
C1277  H1278   0.991   .     S
C1277  H1279   0.990   .     S
C1280  C1283   1.517   .     S
C1280  C1307   1.555   .     S
C1280  H1281   0.991   .     S
C1280  H1282   0.988   .     S
C1283  H1284   0.990   .     S
C1283  H1285   0.991   .     S
C1286  C1313   1.557   .     S
C1286  H1287   0.991   .     S
C1286  H1288   0.991   .     S
C1289  C1293   1.524   .     S
C1289  H1290   0.982   .     S
C1289  H1291   0.982   .     S
C1289  H1292   0.979   .     S
C1293  C1310   1.558   .     S
C1293  H1294   0.992   .     S
C1293  H1295   0.991   .     S
C1296  C1300   1.523   .     S
C1296  H1297   0.980   .     S
C1296  H1298   0.980   .     S
C1296  H1299   0.981   .     S
C1300  H1301   0.989   .     S
C1300  H1302   0.991   .     S
C1303  C1307   1.531   .     S
C1303  H1304   0.980   .     S
C1303  H1305   0.979   .     S
C1303  H1306   0.981   .     S
C1307  H1308   0.990   .     S
C1307  H1309   0.992   .     S
C1310  H1311   0.992   .     S
C1310  H1312   0.990   .     S
C1313  H1314   0.979   .     S
C1313  H1315   0.979   .     S
C1313  H1316   0.981   .     S
S1317  C1322   1.660   .     S
S1317  C1344   1.729   .     S
S1318  C1332   1.674   .     S
S1318  C1343   1.724   .     S
C1319  C1323   1.375   .     D
C1319  C1326   1.397   .     S
C1319  C1507   1.527   .     S
C1320  C1345   1.357   .     D
C1320  C1333   1.418   .     S
C1320  C1332   1.480   .     S
C1321  C1325   1.373   .     S
C1321  C1333   1.380   .     D
C1321  C1507   1.535   .     S
C1322  C1338   1.377   .     D
C1322  C1336   1.516   .     S
C1323  C1336   1.393   .     S
C1323  H1324   0.949   .     S
C1325  C1330   1.361   .     D
C1325  C1326   1.504   .     S
C1326  C1328   1.421   .     D
O1327  C1349   1.255   .     D
C1328  C1337   1.387   .     S
C1328  H1329   0.951   .     S
C1330  C1345   1.423   .     S
C1330  H1331   0.949   .     S
C1332  C1335   1.400   .     D
C1333  H1334   0.950   .     S
C1335  C1358   1.428   .     S
C1335  C1339   1.518   .     S
C1336  C1337   1.368   .     D
C1337  C1340   1.512   .     S
C1338  C1352   1.427   .     S
C1338  C1340   1.511   .     S
C1339  C1345   1.528   .     S
C1339  C1342   1.530   .     S
C1339  C1357   1.538   .     S
C1340  C1367   1.536   .     S
C1340  C1376   1.561   .     S
C1341  O1350   1.235   .     D
C1341  C1390   1.474   .     S
C1341  C1351   1.488   .     S
C1342  C1382   1.354   .     D
C1342  C1372   1.438   .     S
C1343  C1358   1.388   .     D
C1343  C1380   1.464   .     S
C1344  C1352   1.353   .     D
C1344  C1386   1.460   .     S
C1346  C1355   1.411   .     D
C1346  C1366   1.412   .     S
C1346  H1347   0.949   .     S
C1348  C1364   1.361   .     D
C1348  C1366   1.457   .     S
C1348  C1351   1.468   .     S
C1349  C1354   1.450   .     S
C1349  C1363   1.466   .     S
C1351  C1380   1.353   .     D
C1352  H1353   0.951   .     S
C1354  C1386   1.362   .     D
C1354  C1362   1.483   .     S
C1355  C1378   1.394   .     S
C1355  H1356   0.949   .     S
C1357  C1422   1.404   .     D
C1357  C1374   1.425   .     S
C1358  H1359   0.950   .     S
C1360  C1382   1.360   .     S
C1360  C1399   1.463   .     D
C1360  H1361   0.949   .     S
C1362  C1397   1.369   .     D
C1362  C1394   1.463   .     S
C1363  C1368   1.360   .     S
C1363  C1394   1.411   .     D
C1364  C1377   1.390   .     S
C1364  C1393   1.413   .     S
N1365  C1393   1.203   .     T
C1366  C1390   1.399   .     D
C1367  C1403   1.377   .     D
C1367  C1405   1.444   .     S
C1368  C1427   1.418   .     D
C1368  H1369   0.950   .     S
C1370  C1425   1.385   .     D
C1370  C1394   1.394   .     S
C1370  H1371   0.950   .     S
C1372  C1410   1.386   .     D
C1372  H1373   0.949   .     S
C1374  C1412   1.384   .     D
C1374  H1375   0.950   .     S
C1376  C1388   1.367   .     D
C1376  C1391   1.379   .     S
C1377  N1421   1.178   .     T
C1378  C1384   1.378   .     D
C1378  H1379   0.949   .     S
C1380  H1381   0.951   .     S
C1382  H1383   0.949   .     S
C1384  C1390   1.385   .     S
C1384  H1385   0.952   .     S
C1386  H1387   0.952   .     S
C1388  C1415   1.372   .     S
C1388  H1389   0.950   .     S
C1391  C1417   1.362   .     D
C1391  H1392   0.950   .     S
C1395  N1398   1.135   .     T
C1395  C1397   1.446   .     S
C1396  C1408   1.326   .     S
C1396  C1419   1.394   .     D
C1396  C1435   1.544   .     S
C1397  C1407   1.348   .     S
C1399  C1410   1.355   .     S
C1399  C1432   1.540   .     S
C1400  C1402   1.332   .     D
C1400  C1422   1.426   .     S
C1400  H1401   0.949   .     S
C1402  C1412   1.416   .     S
C1402  C1438   1.516   .     S
C1403  C1419   1.417   .     S
C1403  H1404   0.950   .     S
C1405  C1408   1.429   .     D
C1405  H1406   0.950   .     S
C1407  N1414   1.229   .     T
C1408  H1409   0.950   .     S
C1410  H1411   0.950   .     S
C1412  H1413   0.949   .     S
C1415  C1424   1.418   .     D
C1415  H1416   0.952   .     S
C1417  C1424   1.419   .     S
C1417  H1418   0.950   .     S
C1419  H1420   0.950   .     S
C1422  H1423   0.951   .     S
C1424  C1444   1.471   .     S
C1425  C1427   1.385   .     S
C1425  H1426   0.951   .     S
C1427  H1428   0.951   .     S
C1429  C1438   1.529   .     S
C1429  C1450   1.537   .     S
C1429  H1430   0.991   .     S
C1429  H1431   0.989   .     S
C1432  C1453   1.600   .     S
C1432  H1433   0.990   .     S
C1432  H1434   0.991   .     S
C1435  C1462   1.546   .     S
C1435  H1436   0.990   .     S
C1435  H1437   0.989   .     S
C1438  H1439   0.989   .     S
C1438  H1440   0.990   .     S
C1441  C1444   1.539   .     S
C1441  C1471   1.549   .     S
C1441  H1442   0.990   .     S
C1441  H1443   0.991   .     S
C1444  H1445   0.993   .     S
C1444  H1446   0.990   .     S
C1447  C1450   1.494   .     S
C1447  C1474   1.536   .     S
C1447  H1448   0.990   .     S
C1447  H1449   0.990   .     S
C1450  H1451   0.990   .     S
C1450  H1452   0.991   .     S
C1453  C1456   1.537   .     S
C1453  H1454   0.987   .     S
C1453  H1455   0.989   .     S
C1456  C1498   1.581   .     S
C1456  H1457   0.990   .     S
C1456  H1458   0.991   .     S
C1459  C1465   1.540   .     S
C1459  C1488   1.548   .     S
C1459  H1460   0.990   .     S
C1459  H1461   0.992   .     S
C1462  C1465   1.512   .     S
C1462  H1463   0.991   .     S
C1462  H1464   0.992   .     S
C1465  H1466   0.991   .     S
C1465  H1467   0.990   .     S
C1468  C1471   1.517   .     S
C1468  C1495   1.555   .     S
C1468  H1469   0.991   .     S
C1468  H1470   0.988   .     S
C1471  H1472   0.990   .     S
C1471  H1473   0.991   .     S
C1474  C1501   1.557   .     S
C1474  H1475   0.991   .     S
C1474  H1476   0.991   .     S
C1477  C1481   1.524   .     S
C1477  H1478   0.982   .     S
C1477  H1479   0.982   .     S
C1477  H1480   0.979   .     S
C1481  C1498   1.558   .     S
C1481  H1482   0.992   .     S
C1481  H1483   0.991   .     S
C1484  C1488   1.523   .     S
C1484  H1485   0.980   .     S
C1484  H1486   0.980   .     S
C1484  H1487   0.981   .     S
C1488  H1489   0.989   .     S
C1488  H1490   0.991   .     S
C1491  C1495   1.531   .     S
C1491  H1492   0.980   .     S
C1491  H1493   0.979   .     S
C1491  H1494   0.981   .     S
C1495  H1496   0.990   .     S
C1495  H1497   0.992   .     S
C1498  H1499   0.992   .     S
C1498  H1500   0.990   .     S
C1501  H1502   0.979   .     S
C1501  H1503   0.979   .     S
C1501  H1504   0.981   .     S
