data_124
_audit_creation_date              2023-09-08
_audit_creation_method            'Materials Studio'
_symmetry_space_group_name_H-M    'P1'
_symmetry_Int_Tables_number       1
_symmetry_cell_setting            triclinic
loop_
_symmetry_equiv_pos_as_xyz
  x,y,z
_cell_length_a                    18.6831
_cell_length_b                    21.4471
_cell_length_c                    30.2459
_cell_angle_alpha                 90.0000
_cell_angle_beta                  90.0000
_cell_angle_gamma                 90.0000
loop_
_atom_site_label
_atom_site_type_symbol
_atom_site_fract_x
_atom_site_fract_y
_atom_site_fract_z
_atom_site_U_iso_or_equiv
_atom_site_adp_type
_atom_site_occupancy
B1     B     0.78153   0.23070   0.04175   0.00000  Uiso   1.00
C2     C     0.96454   0.07780   0.19498   0.00000  Uiso   1.00
C3     C     0.96331   0.11323   0.23411   0.00000  Uiso   1.00
C4     C     0.02597   0.12826   0.25602   0.00000  Uiso   1.00
C5     C     0.09157   0.11157   0.23799   0.00000  Uiso   1.00
C6     C     0.15414   0.13976   0.25372   0.00000  Uiso   1.00
C7     C     0.21930   0.12941   0.23272   0.00000  Uiso   1.00
C8     C     0.22401   0.08741   0.19751   0.00000  Uiso   1.00
C9     C     0.28818   0.08084   0.17424   0.00000  Uiso   1.00
C10    C     0.29005   0.04635   0.13527   0.00000  Uiso   1.00
C11    C     0.22902   0.01390   0.12085   0.00000  Uiso   1.00
C12    C     0.16254   0.05522   0.18276   0.00000  Uiso   1.00
C13    C     0.09373   0.07022   0.20158   0.00000  Uiso   1.00
C14    C     0.68698   0.07419   0.10232   0.00000  Uiso   1.00
C15    C     0.23585   0.98617   0.07567   0.00000  Uiso   1.00
C16    C     0.22847   0.92193   0.06763   0.00000  Uiso   1.00
C17    C     0.22878   0.89763   0.02378   0.00000  Uiso   1.00
C18    C     0.23710   0.93606   0.98643   0.00000  Uiso   1.00
C19    C     0.24663   0.99982   0.99480   0.00000  Uiso   1.00
C20    C     0.24804   0.02383   0.03818   0.00000  Uiso   1.00
C21    C     0.22171   0.91027   0.94057   0.00000  Uiso   1.00
C22    C     0.05232   0.84775   0.13748   0.00000  Uiso   1.00
C23    C     0.06877   0.79394   0.11361   0.00000  Uiso   1.00
C24    C     0.08033   0.79788   0.06902   0.00000  Uiso   1.00
C25    C     0.07676   0.85386   0.04882   0.00000  Uiso   1.00
C26    C     0.07873   0.85685   0.00320   0.00000  Uiso   1.00
C27    C     0.07609   0.91408   0.98267   0.00000  Uiso   1.00
C28    C     0.07661   0.96979   0.00688   0.00000  Uiso   1.00
C29    C     0.08987   0.02677   0.98655   0.00000  Uiso   1.00
C30    C     0.10546   0.07919   0.01201   0.00000  Uiso   1.00
C31    C     0.09628   0.07758   0.05776   0.00000  Uiso   1.00
C32    C     0.06732   0.96820   0.05277   0.00000  Uiso   1.00
C33    C     0.06520   0.90846   0.07435   0.00000  Uiso   1.00
C34    C     0.89180   0.78705   0.28761   0.00000  Uiso   1.00
C35    C     0.12826   0.31119   0.15450   0.00000  Uiso   1.00
Cu36   Cu    0.07250   0.99519   0.13449   0.00000  Uiso   1.00
F37    F     0.79913   0.26591   0.00368   0.00000  Uiso   1.00
F38    F     0.74629   0.26860   0.07338   0.00000  Uiso   1.00
F39    F     0.73640   0.18050   0.02941   0.00000  Uiso   1.00
F40    F     0.84529   0.20777   0.06057   0.00000  Uiso   1.00
N41    N     0.03030   0.05138   0.18189   0.00000  Uiso   1.00
N42    N     0.16856   0.01611   0.14720   0.00000  Uiso   1.00
N43    N     0.06352   0.90624   0.11850   0.00000  Uiso   1.00
N44    N     0.06975   0.02318   0.07594   0.00000  Uiso   1.00
N45    N     0.65476   0.02034   0.10078   0.00000  Uiso   1.00
N46    N     0.22881   0.94258   0.90399   0.00000  Uiso   1.00
N47    N     0.92313   0.78136   0.32573   0.00000  Uiso   1.00
N48    N     0.07089   0.34609   0.15307   0.00000  Uiso   1.00
F49    F     0.49159   0.61642   0.53823   0.00000  Uiso   1.00
F50    F     0.43891   0.69143   0.49346   0.00000  Uiso   1.00
F51    F     0.05938   0.23020   0.01246   0.00000  Uiso   1.00
F52    F    -0.01922   0.15606   0.03663   0.00000  Uiso   1.00
C53    C     0.98025   0.82292   0.82411   0.00000  Uiso   1.00
C54    C     0.94868   0.80698   0.78433   0.00000  Uiso   1.00
C55    C     0.99025   0.78498   0.74956   0.00000  Uiso   1.00
C56    C     0.06469   0.78123   0.75330   0.00000  Uiso   1.00
C57    C     0.09681   0.79528   0.79360   0.00000  Uiso   1.00
C58    C     0.05454   0.81768   0.82857   0.00000  Uiso   1.00
C59    C     0.37149   0.49102   0.56308   0.00000  Uiso   1.00
C60    C     0.37882   0.42634   0.56237   0.00000  Uiso   1.00
C61    C     0.39661   0.39400   0.52387   0.00000  Uiso   1.00
C62    C     0.40629   0.42388   0.48496   0.00000  Uiso   1.00
C63    C     0.40605   0.49121   0.48455   0.00000  Uiso   1.00
C64    C     0.38553   0.52349   0.52328   0.00000  Uiso   1.00
C65    C     0.41053   0.38542   0.44371   0.00000  Uiso   1.00
C66    C     0.37013   0.40240   0.40679   0.00000  Uiso   1.00
C67    C     0.36161   0.36249   0.37026   0.00000  Uiso   1.00
C68    C     0.40242   0.30769   0.36754   0.00000  Uiso   1.00
C69    C     0.44242   0.29041   0.40445   0.00000  Uiso   1.00
C70    C     0.44613   0.32858   0.44161   0.00000  Uiso   1.00
C71    C     0.95361   0.40030   0.81697   0.00000  Uiso   1.00
C72    C     0.93146   0.39902   0.77408   0.00000  Uiso   1.00
C73    C     0.98045   0.41408   0.74023   0.00000  Uiso   1.00
C74    C     0.05215   0.42852   0.74831   0.00000  Uiso   1.00
C75    C     0.07191   0.43564   0.79274   0.00000  Uiso   1.00
C76    C     0.02274   0.42002   0.82646   0.00000  Uiso   1.00
C77    C     0.09686   0.43606   0.71341   0.00000  Uiso   1.00
C78    C     0.07199   0.44413   0.67063   0.00000  Uiso   1.00
C79    C     0.11508   0.44434   0.63385   0.00000  Uiso   1.00
C80    C     0.18723   0.43108   0.63588   0.00000  Uiso   1.00
C81    C     0.21654   0.42222   0.67870   0.00000  Uiso   1.00
C82    C     0.17166   0.42412   0.71728   0.00000  Uiso   1.00
C83    C     0.11491   0.13458   0.08476   0.00000  Uiso   1.00
C84    C     0.06897   0.15172   0.11824   0.00000  Uiso   1.00
C85    C     0.07571   0.20677   0.14150   0.00000  Uiso   1.00
C86    C     0.12844   0.25018   0.13099   0.00000  Uiso   1.00
C87    C     0.17832   0.23392   0.09804   0.00000  Uiso   1.00
C88    C     0.17123   0.17668   0.07481   0.00000  Uiso   1.00
C89    C     0.75487   0.08017   0.12812   0.00000  Uiso   1.00
C90    C     0.76072   0.06631   0.17314   0.00000  Uiso   1.00
C91    C     0.82833   0.06656   0.19419   0.00000  Uiso   1.00
C92    C     0.89301   0.07602   0.17035   0.00000  Uiso   1.00
C93    C     0.88547   0.08906   0.12502   0.00000  Uiso   1.00
C94    C     0.81795   0.09218   0.10492   0.00000  Uiso   1.00
H95    H     0.91012   0.13001   0.24823   0.00000  Uiso   1.00
H96    H     0.02372   0.15432   0.28884   0.00000  Uiso   1.00
H97    H     0.15192   0.17146   0.28395   0.00000  Uiso   1.00
H98    H     0.26927   0.15525   0.24420   0.00000  Uiso   1.00
H99    H     0.33912   0.10373   0.18716   0.00000  Uiso   1.00
H100   H     0.34129   0.04432   0.11485   0.00000  Uiso   1.00
H101   H     0.66334   0.11594   0.08413   0.00000  Uiso   1.00
H102   H     0.22209   0.88818   0.09648   0.00000  Uiso   1.00
H103   H     0.22213   0.84542   0.01806   0.00000  Uiso   1.00
H104   H     0.25349   0.03377   0.96611   0.00000  Uiso   1.00
H105   H     0.25956   0.07570   0.04236   0.00000  Uiso   1.00
H106   H     0.20300   0.85972   0.93909   0.00000  Uiso   1.00
H107   H     0.07249   0.74709   0.13126   0.00000  Uiso   1.00
H108   H     0.09289   0.75402   0.04919   0.00000  Uiso   1.00
H109   H     0.08252   0.81217   0.98292   0.00000  Uiso   1.00
H110   H     0.07339   0.91696   0.94507   0.00000  Uiso   1.00
H111   H     0.08800   0.03068   0.94898   0.00000  Uiso   1.00
H112   H     0.12578   0.12354   0.99546   0.00000  Uiso   1.00
H113   H     0.83179   0.79638   0.28590   0.00000  Uiso   1.00
H114   H     0.17739   0.32759   0.17360   0.00000  Uiso   1.00
H115   H     0.88833   0.81187   0.77996   0.00000  Uiso   1.00
H116   H     0.96370   0.76967   0.71741   0.00000  Uiso   1.00
H117   H     0.15692   0.78858   0.79801   0.00000  Uiso   1.00
H118   H     0.08151   0.83167   0.86089   0.00000  Uiso   1.00
H119   H     0.37022   0.39820   0.59390   0.00000  Uiso   1.00
H120   H     0.40331   0.34118   0.52477   0.00000  Uiso   1.00
H121   H     0.42223   0.51745   0.45333   0.00000  Uiso   1.00
H122   H     0.38036   0.57643   0.52215   0.00000  Uiso   1.00
H123   H     0.34281   0.44990   0.40562   0.00000  Uiso   1.00
H124   H     0.32172   0.37473   0.34309   0.00000  Uiso   1.00
H125   H     0.47282   0.24432   0.40455   0.00000  Uiso   1.00
H126   H     0.47957   0.31201   0.47086   0.00000  Uiso   1.00
H127   H     0.87386   0.38587   0.76584   0.00000  Uiso   1.00
H128   H     0.96209   0.41485   0.70429   0.00000  Uiso   1.00
H129   H     0.12741   0.45396   0.80150   0.00000  Uiso   1.00
H130   H     0.04118   0.42397   0.86228   0.00000  Uiso   1.00
H131   H     0.01238   0.45115   0.66433   0.00000  Uiso   1.00
H132   H     0.09145   0.45577   0.60006   0.00000  Uiso   1.00
H133   H     0.27636   0.41347   0.68282   0.00000  Uiso   1.00
H134   H     0.19646   0.41596   0.75123   0.00000  Uiso   1.00
H135   H     0.02273   0.11982   0.12788   0.00000  Uiso   1.00
H136   H     0.03764   0.21745   0.16997   0.00000  Uiso   1.00
H137   H     0.22452   0.26672   0.08996   0.00000  Uiso   1.00
H138   H     0.21160   0.16478   0.04783   0.00000  Uiso   1.00
H139   H     0.71077   0.05469   0.19317   0.00000  Uiso   1.00
H140   H     0.83215   0.05901   0.23142   0.00000  Uiso   1.00
H141   H     0.93494   0.09737   0.10375   0.00000  Uiso   1.00
H142   H     0.81562   0.10503   0.06837   0.00000  Uiso   1.00
B143   B     0.28153   0.73070   0.04175   0.00000  Uiso   1.00
C144   C     0.46454   0.57780   0.19498   0.00000  Uiso   1.00
C145   C     0.46331   0.61323   0.23411   0.00000  Uiso   1.00
C146   C     0.52597   0.62826   0.25602   0.00000  Uiso   1.00
C147   C     0.59157   0.61157   0.23799   0.00000  Uiso   1.00
C148   C     0.65414   0.63976   0.25372   0.00000  Uiso   1.00
C149   C     0.71930   0.62941   0.23272   0.00000  Uiso   1.00
C150   C     0.72401   0.58741   0.19751   0.00000  Uiso   1.00
C151   C     0.78818   0.58084   0.17424   0.00000  Uiso   1.00
C152   C     0.79005   0.54635   0.13527   0.00000  Uiso   1.00
C153   C     0.72902   0.51390   0.12085   0.00000  Uiso   1.00
C154   C     0.66254   0.55522   0.18276   0.00000  Uiso   1.00
C155   C     0.59373   0.57022   0.20158   0.00000  Uiso   1.00
C156   C     0.18698   0.57419   0.10232   0.00000  Uiso   1.00
C157   C     0.73585   0.48617   0.07567   0.00000  Uiso   1.00
C158   C     0.72847   0.42193   0.06763   0.00000  Uiso   1.00
C159   C     0.72878   0.39763   0.02378   0.00000  Uiso   1.00
C160   C     0.73710   0.43606   0.98643   0.00000  Uiso   1.00
C161   C     0.74663   0.49982   0.99480   0.00000  Uiso   1.00
C162   C     0.74804   0.52383   0.03818   0.00000  Uiso   1.00
C163   C     0.72171   0.41027   0.94057   0.00000  Uiso   1.00
C164   C     0.55232   0.34775   0.13748   0.00000  Uiso   1.00
C165   C     0.56877   0.29394   0.11361   0.00000  Uiso   1.00
C166   C     0.58033   0.29788   0.06902   0.00000  Uiso   1.00
C167   C     0.57676   0.35386   0.04882   0.00000  Uiso   1.00
C168   C     0.57873   0.35685   0.00320   0.00000  Uiso   1.00
C169   C     0.57609   0.41408   0.98267   0.00000  Uiso   1.00
C170   C     0.57661   0.46979   0.00688   0.00000  Uiso   1.00
C171   C     0.58987   0.52677   0.98655   0.00000  Uiso   1.00
C172   C     0.60546   0.57919   0.01201   0.00000  Uiso   1.00
C173   C     0.59628   0.57758   0.05776   0.00000  Uiso   1.00
C174   C     0.56732   0.46820   0.05277   0.00000  Uiso   1.00
C175   C     0.56520   0.40846   0.07435   0.00000  Uiso   1.00
C176   C     0.39180   0.28705   0.28761   0.00000  Uiso   1.00
C177   C     0.62826   0.81119   0.15450   0.00000  Uiso   1.00
Cu178  Cu    0.57250   0.49519   0.13449   0.00000  Uiso   1.00
F179   F     0.29913   0.76591   0.00368   0.00000  Uiso   1.00
F180   F     0.24629   0.76860   0.07338   0.00000  Uiso   1.00
F181   F     0.23640   0.68050   0.02941   0.00000  Uiso   1.00
F182   F     0.34529   0.70777   0.06057   0.00000  Uiso   1.00
N183   N     0.53030   0.55138   0.18189   0.00000  Uiso   1.00
N184   N     0.66856   0.51611   0.14720   0.00000  Uiso   1.00
N185   N     0.56352   0.40624   0.11850   0.00000  Uiso   1.00
N186   N     0.56975   0.52318   0.07594   0.00000  Uiso   1.00
N187   N     0.15476   0.52034   0.10078   0.00000  Uiso   1.00
N188   N     0.72881   0.44258   0.90399   0.00000  Uiso   1.00
N189   N     0.42313   0.28136   0.32573   0.00000  Uiso   1.00
N190   N     0.57089   0.84609   0.15307   0.00000  Uiso   1.00
F191   F    -0.00841   0.11642   0.53823   0.00000  Uiso   1.00
F192   F    -0.06109   0.19143   0.49346   0.00000  Uiso   1.00
F193   F     0.55938   0.73020   0.01246   0.00000  Uiso   1.00
F194   F     0.48078   0.65606   0.03663   0.00000  Uiso   1.00
C195   C     0.48025   0.32292   0.82411   0.00000  Uiso   1.00
C196   C     0.44868   0.30698   0.78433   0.00000  Uiso   1.00
C197   C     0.49025   0.28498   0.74956   0.00000  Uiso   1.00
C198   C     0.56469   0.28123   0.75330   0.00000  Uiso   1.00
C199   C     0.59681   0.29528   0.79360   0.00000  Uiso   1.00
C200   C     0.55454   0.31768   0.82857   0.00000  Uiso   1.00
C201   C     0.87149   0.99102   0.56308   0.00000  Uiso   1.00
C202   C     0.87882   0.92634   0.56237   0.00000  Uiso   1.00
C203   C     0.89661   0.89400   0.52387   0.00000  Uiso   1.00
C204   C     0.90629   0.92388   0.48496   0.00000  Uiso   1.00
C205   C     0.90605   0.99121   0.48455   0.00000  Uiso   1.00
C206   C     0.88553   0.02349   0.52328   0.00000  Uiso   1.00
C207   C     0.91053   0.88542   0.44371   0.00000  Uiso   1.00
C208   C     0.87013   0.90240   0.40679   0.00000  Uiso   1.00
C209   C     0.86161   0.86249   0.37026   0.00000  Uiso   1.00
C210   C     0.90242   0.80769   0.36754   0.00000  Uiso   1.00
C211   C     0.94242   0.79041   0.40445   0.00000  Uiso   1.00
C212   C     0.94613   0.82858   0.44161   0.00000  Uiso   1.00
C213   C     0.45361   0.90030   0.81697   0.00000  Uiso   1.00
C214   C     0.43146   0.89902   0.77408   0.00000  Uiso   1.00
C215   C     0.48045   0.91408   0.74023   0.00000  Uiso   1.00
C216   C     0.55215   0.92852   0.74831   0.00000  Uiso   1.00
C217   C     0.57191   0.93564   0.79274   0.00000  Uiso   1.00
C218   C     0.52274   0.92002   0.82646   0.00000  Uiso   1.00
C219   C     0.59686   0.93606   0.71341   0.00000  Uiso   1.00
C220   C     0.57199   0.94413   0.67063   0.00000  Uiso   1.00
C221   C     0.61508   0.94434   0.63385   0.00000  Uiso   1.00
C222   C     0.68723   0.93108   0.63588   0.00000  Uiso   1.00
C223   C     0.71654   0.92222   0.67870   0.00000  Uiso   1.00
C224   C     0.67166   0.92412   0.71728   0.00000  Uiso   1.00
C225   C     0.61491   0.63458   0.08476   0.00000  Uiso   1.00
C226   C     0.56897   0.65172   0.11824   0.00000  Uiso   1.00
C227   C     0.57571   0.70677   0.14150   0.00000  Uiso   1.00
C228   C     0.62844   0.75018   0.13099   0.00000  Uiso   1.00
C229   C     0.67832   0.73392   0.09804   0.00000  Uiso   1.00
C230   C     0.67123   0.67668   0.07481   0.00000  Uiso   1.00
C231   C     0.25487   0.58017   0.12812   0.00000  Uiso   1.00
C232   C     0.26072   0.56631   0.17314   0.00000  Uiso   1.00
C233   C     0.32833   0.56656   0.19419   0.00000  Uiso   1.00
C234   C     0.39301   0.57602   0.17035   0.00000  Uiso   1.00
C235   C     0.38547   0.58906   0.12502   0.00000  Uiso   1.00
C236   C     0.31795   0.59218   0.10492   0.00000  Uiso   1.00
H237   H     0.41012   0.63001   0.24823   0.00000  Uiso   1.00
H238   H     0.52372   0.65432   0.28884   0.00000  Uiso   1.00
H239   H     0.65192   0.67146   0.28395   0.00000  Uiso   1.00
H240   H     0.76927   0.65525   0.24420   0.00000  Uiso   1.00
H241   H     0.83912   0.60373   0.18716   0.00000  Uiso   1.00
H242   H     0.84129   0.54432   0.11485   0.00000  Uiso   1.00
H243   H     0.16334   0.61594   0.08413   0.00000  Uiso   1.00
H244   H     0.72209   0.38818   0.09648   0.00000  Uiso   1.00
H245   H     0.72213   0.34542   0.01806   0.00000  Uiso   1.00
H246   H     0.75349   0.53377   0.96611   0.00000  Uiso   1.00
H247   H     0.75956   0.57570   0.04236   0.00000  Uiso   1.00
H248   H     0.70300   0.35972   0.93909   0.00000  Uiso   1.00
H249   H     0.57249   0.24709   0.13126   0.00000  Uiso   1.00
H250   H     0.59289   0.25402   0.04919   0.00000  Uiso   1.00
H251   H     0.58252   0.31217   0.98292   0.00000  Uiso   1.00
H252   H     0.57339   0.41696   0.94507   0.00000  Uiso   1.00
H253   H     0.58800   0.53068   0.94898   0.00000  Uiso   1.00
H254   H     0.62578   0.62354   0.99546   0.00000  Uiso   1.00
H255   H     0.33179   0.29638   0.28590   0.00000  Uiso   1.00
H256   H     0.67739   0.82759   0.17360   0.00000  Uiso   1.00
H257   H     0.38833   0.31187   0.77996   0.00000  Uiso   1.00
H258   H     0.46370   0.26967   0.71741   0.00000  Uiso   1.00
H259   H     0.65692   0.28858   0.79801   0.00000  Uiso   1.00
H260   H     0.58151   0.33167   0.86089   0.00000  Uiso   1.00
H261   H     0.87022   0.89820   0.59390   0.00000  Uiso   1.00
H262   H     0.90331   0.84118   0.52477   0.00000  Uiso   1.00
H263   H     0.92223   0.01745   0.45333   0.00000  Uiso   1.00
H264   H     0.88036   0.07643   0.52215   0.00000  Uiso   1.00
H265   H     0.84281   0.94990   0.40562   0.00000  Uiso   1.00
H266   H     0.82172   0.87473   0.34309   0.00000  Uiso   1.00
H267   H     0.97282   0.74432   0.40455   0.00000  Uiso   1.00
H268   H     0.97957   0.81201   0.47086   0.00000  Uiso   1.00
H269   H     0.37386   0.88587   0.76584   0.00000  Uiso   1.00
H270   H     0.46209   0.91485   0.70429   0.00000  Uiso   1.00
H271   H     0.62741   0.95396   0.80150   0.00000  Uiso   1.00
H272   H     0.54118   0.92397   0.86228   0.00000  Uiso   1.00
H273   H     0.51238   0.95115   0.66433   0.00000  Uiso   1.00
H274   H     0.59145   0.95577   0.60006   0.00000  Uiso   1.00
H275   H     0.77636   0.91347   0.68282   0.00000  Uiso   1.00
H276   H     0.69646   0.91596   0.75123   0.00000  Uiso   1.00
H277   H     0.52273   0.61982   0.12788   0.00000  Uiso   1.00
H278   H     0.53764   0.71745   0.16997   0.00000  Uiso   1.00
H279   H     0.72452   0.76672   0.08996   0.00000  Uiso   1.00
H280   H     0.71160   0.66478   0.04783   0.00000  Uiso   1.00
H281   H     0.21077   0.55469   0.19317   0.00000  Uiso   1.00
H282   H     0.33215   0.55901   0.23142   0.00000  Uiso   1.00
H283   H     0.43494   0.59737   0.10375   0.00000  Uiso   1.00
H284   H     0.31562   0.60503   0.06837   0.00000  Uiso   1.00
B285   B     0.21847   0.23070   0.95825   0.00000  Uiso   1.00
C286   C     0.03546   0.07780   0.80502   0.00000  Uiso   1.00
C287   C     0.03669   0.11323   0.76589   0.00000  Uiso   1.00
C288   C     0.97403   0.12826   0.74398   0.00000  Uiso   1.00
C289   C     0.90843   0.11157   0.76201   0.00000  Uiso   1.00
C290   C     0.84586   0.13976   0.74628   0.00000  Uiso   1.00
C291   C     0.78070   0.12941   0.76728   0.00000  Uiso   1.00
C292   C     0.77599   0.08741   0.80249   0.00000  Uiso   1.00
C293   C     0.71182   0.08084   0.82576   0.00000  Uiso   1.00
C294   C     0.70995   0.04635   0.86473   0.00000  Uiso   1.00
C295   C     0.77098   0.01390   0.87915   0.00000  Uiso   1.00
C296   C     0.83746   0.05522   0.81724   0.00000  Uiso   1.00
C297   C     0.90627   0.07022   0.79842   0.00000  Uiso   1.00
C298   C     0.31302   0.07419   0.89768   0.00000  Uiso   1.00
C299   C     0.76415   0.98617   0.92433   0.00000  Uiso   1.00
C300   C     0.77153   0.92193   0.93237   0.00000  Uiso   1.00
C301   C     0.77122   0.89763   0.97622   0.00000  Uiso   1.00
C302   C     0.76290   0.93606   0.01357   0.00000  Uiso   1.00
C303   C     0.75337   0.99982   0.00520   0.00000  Uiso   1.00
C304   C     0.75196   0.02383   0.96182   0.00000  Uiso   1.00
C305   C     0.77829   0.91027   0.05943   0.00000  Uiso   1.00
C306   C     0.94768   0.84775   0.86252   0.00000  Uiso   1.00
C307   C     0.93123   0.79394   0.88639   0.00000  Uiso   1.00
C308   C     0.91967   0.79788   0.93098   0.00000  Uiso   1.00
C309   C     0.92324   0.85386   0.95118   0.00000  Uiso   1.00
C310   C     0.92127   0.85685   0.99680   0.00000  Uiso   1.00
C311   C     0.92391   0.91408   0.01733   0.00000  Uiso   1.00
C312   C     0.92339   0.96979   0.99312   0.00000  Uiso   1.00
C313   C     0.91013   0.02677   0.01345   0.00000  Uiso   1.00
C314   C     0.89454   0.07919   0.98799   0.00000  Uiso   1.00
C315   C     0.90372   0.07758   0.94224   0.00000  Uiso   1.00
C316   C     0.93268   0.96820   0.94723   0.00000  Uiso   1.00
C317   C     0.93480   0.90846   0.92565   0.00000  Uiso   1.00
C318   C     0.10820   0.78705   0.71239   0.00000  Uiso   1.00
C319   C     0.87174   0.31119   0.84550   0.00000  Uiso   1.00
Cu320  Cu    0.92750   0.99519   0.86551   0.00000  Uiso   1.00
F321   F     0.20087   0.26591   0.99632   0.00000  Uiso   1.00
F322   F     0.25371   0.26860   0.92662   0.00000  Uiso   1.00
F323   F     0.26360   0.18050   0.97059   0.00000  Uiso   1.00
F324   F     0.15471   0.20777   0.93943   0.00000  Uiso   1.00
N325   N     0.96970   0.05138   0.81811   0.00000  Uiso   1.00
N326   N     0.83144   0.01611   0.85280   0.00000  Uiso   1.00
N327   N     0.93648   0.90624   0.88150   0.00000  Uiso   1.00
N328   N     0.93025   0.02318   0.92406   0.00000  Uiso   1.00
N329   N     0.34524   0.02034   0.89922   0.00000  Uiso   1.00
N330   N     0.77119   0.94258   0.09601   0.00000  Uiso   1.00
N331   N     0.07687   0.78136   0.67427   0.00000  Uiso   1.00
N332   N     0.92911   0.34609   0.84693   0.00000  Uiso   1.00
F333   F     0.50841   0.61642   0.46177   0.00000  Uiso   1.00
F334   F     0.56109   0.69143   0.50654   0.00000  Uiso   1.00
F335   F    -0.05938   0.23020  -0.01246   0.00000  Uiso   1.00
F336   F     0.01922   0.15606  -0.03663   0.00000  Uiso   1.00
C337   C     0.01975   0.82292   0.17589   0.00000  Uiso   1.00
C338   C     0.05132   0.80698   0.21567   0.00000  Uiso   1.00
C339   C     0.00975   0.78498   0.25044   0.00000  Uiso   1.00
C340   C     0.93531   0.78123   0.24670   0.00000  Uiso   1.00
C341   C     0.90319   0.79528   0.20640   0.00000  Uiso   1.00
C342   C     0.94546   0.81768   0.17143   0.00000  Uiso   1.00
C343   C     0.62851   0.49102   0.43692   0.00000  Uiso   1.00
C344   C     0.62118   0.42634   0.43763   0.00000  Uiso   1.00
C345   C     0.60339   0.39400   0.47613   0.00000  Uiso   1.00
C346   C     0.59371   0.42388   0.51504   0.00000  Uiso   1.00
C347   C     0.59395   0.49121   0.51545   0.00000  Uiso   1.00
C348   C     0.61447   0.52349   0.47672   0.00000  Uiso   1.00
C349   C     0.58947   0.38542   0.55629   0.00000  Uiso   1.00
C350   C     0.62987   0.40240   0.59321   0.00000  Uiso   1.00
C351   C     0.63839   0.36249   0.62974   0.00000  Uiso   1.00
C352   C     0.59758   0.30769   0.63246   0.00000  Uiso   1.00
C353   C     0.55758   0.29041   0.59555   0.00000  Uiso   1.00
C354   C     0.55387   0.32858   0.55839   0.00000  Uiso   1.00
C355   C     0.04639   0.40030   0.18303   0.00000  Uiso   1.00
C356   C     0.06854   0.39902   0.22592   0.00000  Uiso   1.00
C357   C     0.01955   0.41408   0.25977   0.00000  Uiso   1.00
C358   C     0.94785   0.42852   0.25169   0.00000  Uiso   1.00
C359   C     0.92809   0.43564   0.20726   0.00000  Uiso   1.00
C360   C     0.97726   0.42002   0.17354   0.00000  Uiso   1.00
C361   C     0.90314   0.43606   0.28659   0.00000  Uiso   1.00
C362   C     0.92801   0.44413   0.32937   0.00000  Uiso   1.00
C363   C     0.88492   0.44434   0.36615   0.00000  Uiso   1.00
C364   C     0.81277   0.43108   0.36412   0.00000  Uiso   1.00
C365   C     0.78346   0.42222   0.32130   0.00000  Uiso   1.00
C366   C     0.82834   0.42412   0.28272   0.00000  Uiso   1.00
C367   C     0.88509   0.13458   0.91524   0.00000  Uiso   1.00
C368   C     0.93103   0.15172   0.88176   0.00000  Uiso   1.00
C369   C     0.92429   0.20677   0.85850   0.00000  Uiso   1.00
C370   C     0.87156   0.25018   0.86901   0.00000  Uiso   1.00
C371   C     0.82168   0.23392   0.90196   0.00000  Uiso   1.00
C372   C     0.82877   0.17668   0.92519   0.00000  Uiso   1.00
C373   C     0.24513   0.08017   0.87188   0.00000  Uiso   1.00
C374   C     0.23928   0.06631   0.82686   0.00000  Uiso   1.00
C375   C     0.17167   0.06656   0.80581   0.00000  Uiso   1.00
C376   C     0.10699   0.07602   0.82965   0.00000  Uiso   1.00
C377   C     0.11453   0.08906   0.87498   0.00000  Uiso   1.00
C378   C     0.18205   0.09218   0.89508   0.00000  Uiso   1.00
H379   H     0.08988   0.13001   0.75177   0.00000  Uiso   1.00
H380   H     0.97628   0.15432   0.71116   0.00000  Uiso   1.00
H381   H     0.84808   0.17146   0.71605   0.00000  Uiso   1.00
H382   H     0.73073   0.15525   0.75580   0.00000  Uiso   1.00
H383   H     0.66088   0.10373   0.81284   0.00000  Uiso   1.00
H384   H     0.65871   0.04432   0.88515   0.00000  Uiso   1.00
H385   H     0.33666   0.11594   0.91587   0.00000  Uiso   1.00
H386   H     0.77791   0.88818   0.90352   0.00000  Uiso   1.00
H387   H     0.77787   0.84542   0.98194   0.00000  Uiso   1.00
H388   H     0.74651   0.03377   0.03389   0.00000  Uiso   1.00
H389   H     0.74044   0.07570   0.95764   0.00000  Uiso   1.00
H390   H     0.79700   0.85972   0.06091   0.00000  Uiso   1.00
H391   H     0.92751   0.74709   0.86874   0.00000  Uiso   1.00
H392   H     0.90711   0.75402   0.95081   0.00000  Uiso   1.00
H393   H     0.91748   0.81217   0.01708   0.00000  Uiso   1.00
H394   H     0.92661   0.91696   0.05493   0.00000  Uiso   1.00
H395   H     0.91200   0.03068   0.05102   0.00000  Uiso   1.00
H396   H     0.87422   0.12354   0.00454   0.00000  Uiso   1.00
H397   H     0.16821   0.79638   0.71410   0.00000  Uiso   1.00
H398   H     0.82261   0.32759   0.82640   0.00000  Uiso   1.00
H399   H     0.11167   0.81187   0.22004   0.00000  Uiso   1.00
H400   H     0.03630   0.76967   0.28259   0.00000  Uiso   1.00
H401   H     0.84308   0.78858   0.20199   0.00000  Uiso   1.00
H402   H     0.91849   0.83167   0.13911   0.00000  Uiso   1.00
H403   H     0.62978   0.39820   0.40610   0.00000  Uiso   1.00
H404   H     0.59669   0.34118   0.47523   0.00000  Uiso   1.00
H405   H     0.57777   0.51745   0.54667   0.00000  Uiso   1.00
H406   H     0.61964   0.57643   0.47785   0.00000  Uiso   1.00
H407   H     0.65719   0.44990   0.59438   0.00000  Uiso   1.00
H408   H     0.67828   0.37473   0.65691   0.00000  Uiso   1.00
H409   H     0.52718   0.24432   0.59545   0.00000  Uiso   1.00
H410   H     0.52043   0.31201   0.52914   0.00000  Uiso   1.00
H411   H     0.12614   0.38587   0.23416   0.00000  Uiso   1.00
H412   H     0.03791   0.41485   0.29571   0.00000  Uiso   1.00
H413   H     0.87259   0.45396   0.19850   0.00000  Uiso   1.00
H414   H     0.95882   0.42397   0.13772   0.00000  Uiso   1.00
H415   H     0.98762   0.45115   0.33567   0.00000  Uiso   1.00
H416   H     0.90855   0.45577   0.39994   0.00000  Uiso   1.00
H417   H     0.72364   0.41347   0.31718   0.00000  Uiso   1.00
H418   H     0.80354   0.41596   0.24877   0.00000  Uiso   1.00
H419   H     0.97727   0.11982   0.87212   0.00000  Uiso   1.00
H420   H     0.96236   0.21745   0.83003   0.00000  Uiso   1.00
H421   H     0.77548   0.26672   0.91004   0.00000  Uiso   1.00
H422   H     0.78840   0.16478   0.95217   0.00000  Uiso   1.00
H423   H     0.28923   0.05469   0.80683   0.00000  Uiso   1.00
H424   H     0.16785   0.05901   0.76858   0.00000  Uiso   1.00
H425   H     0.06506   0.09737   0.89625   0.00000  Uiso   1.00
H426   H     0.18438   0.10503   0.93163   0.00000  Uiso   1.00
B427   B     0.71847   0.73070   0.95825   0.00000  Uiso   1.00
C428   C     0.53546   0.57780   0.80502   0.00000  Uiso   1.00
C429   C     0.53669   0.61323   0.76589   0.00000  Uiso   1.00
C430   C     0.47403   0.62826   0.74398   0.00000  Uiso   1.00
C431   C     0.40843   0.61157   0.76201   0.00000  Uiso   1.00
C432   C     0.34586   0.63976   0.74628   0.00000  Uiso   1.00
C433   C     0.28070   0.62941   0.76728   0.00000  Uiso   1.00
C434   C     0.27599   0.58741   0.80249   0.00000  Uiso   1.00
C435   C     0.21182   0.58084   0.82576   0.00000  Uiso   1.00
C436   C     0.20995   0.54635   0.86473   0.00000  Uiso   1.00
C437   C     0.27098   0.51390   0.87915   0.00000  Uiso   1.00
C438   C     0.33746   0.55522   0.81724   0.00000  Uiso   1.00
C439   C     0.40627   0.57022   0.79842   0.00000  Uiso   1.00
C440   C     0.81302   0.57419   0.89768   0.00000  Uiso   1.00
C441   C     0.26415   0.48617   0.92433   0.00000  Uiso   1.00
C442   C     0.27153   0.42193   0.93237   0.00000  Uiso   1.00
C443   C     0.27122   0.39763   0.97622   0.00000  Uiso   1.00
C444   C     0.26290   0.43606   0.01357   0.00000  Uiso   1.00
C445   C     0.25337   0.49982   0.00520   0.00000  Uiso   1.00
C446   C     0.25196   0.52383   0.96182   0.00000  Uiso   1.00
C447   C     0.27829   0.41027   0.05943   0.00000  Uiso   1.00
C448   C     0.44768   0.34775   0.86252   0.00000  Uiso   1.00
C449   C     0.43123   0.29394   0.88639   0.00000  Uiso   1.00
C450   C     0.41967   0.29788   0.93098   0.00000  Uiso   1.00
C451   C     0.42324   0.35386   0.95118   0.00000  Uiso   1.00
C452   C     0.42127   0.35685   0.99680   0.00000  Uiso   1.00
C453   C     0.42391   0.41408   0.01733   0.00000  Uiso   1.00
C454   C     0.42339   0.46979   0.99312   0.00000  Uiso   1.00
C455   C     0.41013   0.52677   0.01345   0.00000  Uiso   1.00
C456   C     0.39454   0.57919   0.98799   0.00000  Uiso   1.00
C457   C     0.40372   0.57758   0.94224   0.00000  Uiso   1.00
C458   C     0.43268   0.46820   0.94723   0.00000  Uiso   1.00
C459   C     0.43480   0.40846   0.92565   0.00000  Uiso   1.00
C460   C     0.60820   0.28705   0.71239   0.00000  Uiso   1.00
C461   C     0.37174   0.81119   0.84550   0.00000  Uiso   1.00
Cu462  Cu    0.42750   0.49519   0.86551   0.00000  Uiso   1.00
F463   F     0.70087   0.76591   0.99632   0.00000  Uiso   1.00
F464   F     0.75371   0.76860   0.92662   0.00000  Uiso   1.00
F465   F     0.76360   0.68050   0.97059   0.00000  Uiso   1.00
F466   F     0.65471   0.70777   0.93943   0.00000  Uiso   1.00
N467   N     0.46970   0.55138   0.81811   0.00000  Uiso   1.00
N468   N     0.33144   0.51611   0.85280   0.00000  Uiso   1.00
N469   N     0.43648   0.40624   0.88150   0.00000  Uiso   1.00
N470   N     0.43025   0.52318   0.92406   0.00000  Uiso   1.00
N471   N     0.84524   0.52034   0.89922   0.00000  Uiso   1.00
N472   N     0.27119   0.44258   0.09601   0.00000  Uiso   1.00
N473   N     0.57687   0.28136   0.67427   0.00000  Uiso   1.00
N474   N     0.42911   0.84609   0.84693   0.00000  Uiso   1.00
F475   F     0.00841   0.11642   0.46177   0.00000  Uiso   1.00
F476   F     0.06109   0.19143   0.50654   0.00000  Uiso   1.00
F477   F     0.44062   0.73020  -0.01246   0.00000  Uiso   1.00
F478   F     0.51922   0.65606  -0.03663   0.00000  Uiso   1.00
C479   C     0.51975   0.32292   0.17589   0.00000  Uiso   1.00
C480   C     0.55132   0.30698   0.21567   0.00000  Uiso   1.00
C481   C     0.50975   0.28498   0.25044   0.00000  Uiso   1.00
C482   C     0.43531   0.28123   0.24670   0.00000  Uiso   1.00
C483   C     0.40319   0.29528   0.20640   0.00000  Uiso   1.00
C484   C     0.44546   0.31768   0.17143   0.00000  Uiso   1.00
C485   C     0.12851   0.99102   0.43692   0.00000  Uiso   1.00
C486   C     0.12118   0.92634   0.43763   0.00000  Uiso   1.00
C487   C     0.10339   0.89400   0.47613   0.00000  Uiso   1.00
C488   C     0.09371   0.92388   0.51504   0.00000  Uiso   1.00
C489   C     0.09395   0.99121   0.51545   0.00000  Uiso   1.00
C490   C     0.11447   0.02349   0.47672   0.00000  Uiso   1.00
C491   C     0.08947   0.88542   0.55629   0.00000  Uiso   1.00
C492   C     0.12987   0.90240   0.59321   0.00000  Uiso   1.00
C493   C     0.13839   0.86249   0.62974   0.00000  Uiso   1.00
C494   C     0.09758   0.80769   0.63246   0.00000  Uiso   1.00
C495   C     0.05758   0.79041   0.59555   0.00000  Uiso   1.00
C496   C     0.05387   0.82858   0.55839   0.00000  Uiso   1.00
C497   C     0.54639   0.90030   0.18303   0.00000  Uiso   1.00
C498   C     0.56854   0.89902   0.22592   0.00000  Uiso   1.00
C499   C     0.51955   0.91408   0.25977   0.00000  Uiso   1.00
C500   C     0.44785   0.92852   0.25169   0.00000  Uiso   1.00
C501   C     0.42809   0.93564   0.20726   0.00000  Uiso   1.00
C502   C     0.47726   0.92002   0.17354   0.00000  Uiso   1.00
C503   C     0.40314   0.93606   0.28659   0.00000  Uiso   1.00
C504   C     0.42801   0.94413   0.32937   0.00000  Uiso   1.00
C505   C     0.38492   0.94434   0.36615   0.00000  Uiso   1.00
C506   C     0.31277   0.93108   0.36412   0.00000  Uiso   1.00
C507   C     0.28346   0.92222   0.32130   0.00000  Uiso   1.00
C508   C     0.32834   0.92412   0.28272   0.00000  Uiso   1.00
C509   C     0.38509   0.63458   0.91524   0.00000  Uiso   1.00
C510   C     0.43103   0.65172   0.88176   0.00000  Uiso   1.00
C511   C     0.42429   0.70677   0.85850   0.00000  Uiso   1.00
C512   C     0.37156   0.75018   0.86901   0.00000  Uiso   1.00
C513   C     0.32168   0.73392   0.90196   0.00000  Uiso   1.00
C514   C     0.32877   0.67668   0.92519   0.00000  Uiso   1.00
C515   C     0.74513   0.58017   0.87188   0.00000  Uiso   1.00
C516   C     0.73928   0.56631   0.82686   0.00000  Uiso   1.00
C517   C     0.67167   0.56656   0.80581   0.00000  Uiso   1.00
C518   C     0.60699   0.57602   0.82965   0.00000  Uiso   1.00
C519   C     0.61453   0.58906   0.87498   0.00000  Uiso   1.00
C520   C     0.68205   0.59218   0.89508   0.00000  Uiso   1.00
H521   H     0.58988   0.63001   0.75177   0.00000  Uiso   1.00
H522   H     0.47628   0.65432   0.71116   0.00000  Uiso   1.00
H523   H     0.34808   0.67146   0.71605   0.00000  Uiso   1.00
H524   H     0.23073   0.65525   0.75580   0.00000  Uiso   1.00
H525   H     0.16088   0.60373   0.81284   0.00000  Uiso   1.00
H526   H     0.15871   0.54432   0.88515   0.00000  Uiso   1.00
H527   H     0.83666   0.61594   0.91587   0.00000  Uiso   1.00
H528   H     0.27791   0.38818   0.90352   0.00000  Uiso   1.00
H529   H     0.27787   0.34542   0.98194   0.00000  Uiso   1.00
H530   H     0.24651   0.53377   0.03389   0.00000  Uiso   1.00
H531   H     0.24044   0.57570   0.95764   0.00000  Uiso   1.00
H532   H     0.29700   0.35972   0.06091   0.00000  Uiso   1.00
H533   H     0.42751   0.24709   0.86874   0.00000  Uiso   1.00
H534   H     0.40711   0.25402   0.95081   0.00000  Uiso   1.00
H535   H     0.41748   0.31217   0.01708   0.00000  Uiso   1.00
H536   H     0.42661   0.41696   0.05493   0.00000  Uiso   1.00
H537   H     0.41200   0.53068   0.05102   0.00000  Uiso   1.00
H538   H     0.37422   0.62354   0.00454   0.00000  Uiso   1.00
H539   H     0.66821   0.29638   0.71410   0.00000  Uiso   1.00
H540   H     0.32261   0.82759   0.82640   0.00000  Uiso   1.00
H541   H     0.61167   0.31187   0.22004   0.00000  Uiso   1.00
H542   H     0.53630   0.26967   0.28259   0.00000  Uiso   1.00
H543   H     0.34308   0.28858   0.20199   0.00000  Uiso   1.00
H544   H     0.41849   0.33167   0.13911   0.00000  Uiso   1.00
H545   H     0.12978   0.89820   0.40610   0.00000  Uiso   1.00
H546   H     0.09669   0.84118   0.47523   0.00000  Uiso   1.00
H547   H     0.07777   0.01745   0.54667   0.00000  Uiso   1.00
H548   H     0.11964   0.07643   0.47785   0.00000  Uiso   1.00
H549   H     0.15719   0.94990   0.59438   0.00000  Uiso   1.00
H550   H     0.17828   0.87473   0.65691   0.00000  Uiso   1.00
H551   H     0.02718   0.74432   0.59545   0.00000  Uiso   1.00
H552   H     0.02043   0.81201   0.52914   0.00000  Uiso   1.00
H553   H     0.62614   0.88587   0.23416   0.00000  Uiso   1.00
H554   H     0.53791   0.91485   0.29571   0.00000  Uiso   1.00
H555   H     0.37259   0.95396   0.19850   0.00000  Uiso   1.00
H556   H     0.45882   0.92397   0.13772   0.00000  Uiso   1.00
H557   H     0.48762   0.95115   0.33567   0.00000  Uiso   1.00
H558   H     0.40855   0.95577   0.39994   0.00000  Uiso   1.00
H559   H     0.22364   0.91347   0.31718   0.00000  Uiso   1.00
H560   H     0.30354   0.91596   0.24877   0.00000  Uiso   1.00
H561   H     0.47727   0.61982   0.87212   0.00000  Uiso   1.00
H562   H     0.46236   0.71745   0.83003   0.00000  Uiso   1.00
H563   H     0.27548   0.76672   0.91004   0.00000  Uiso   1.00
H564   H     0.28840   0.66478   0.95217   0.00000  Uiso   1.00
H565   H     0.78923   0.55469   0.80683   0.00000  Uiso   1.00
H566   H     0.66785   0.55901   0.76858   0.00000  Uiso   1.00
H567   H     0.56506   0.59737   0.89625   0.00000  Uiso   1.00
H568   H     0.68438   0.60503   0.93163   0.00000  Uiso   1.00
B569   B     0.71847   0.23070   0.54175   0.00000  Uiso   1.00
C570   C     0.53546   0.07780   0.69498   0.00000  Uiso   1.00
C571   C     0.53669   0.11323   0.73411   0.00000  Uiso   1.00
C572   C     0.47403   0.12826   0.75602   0.00000  Uiso   1.00
C573   C     0.40843   0.11157   0.73799   0.00000  Uiso   1.00
C574   C     0.34586   0.13976   0.75372   0.00000  Uiso   1.00
C575   C     0.28070   0.12941   0.73272   0.00000  Uiso   1.00
C576   C     0.27599   0.08741   0.69751   0.00000  Uiso   1.00
C577   C     0.21182   0.08084   0.67424   0.00000  Uiso   1.00
C578   C     0.20995   0.04635   0.63527   0.00000  Uiso   1.00
C579   C     0.27098   0.01390   0.62085   0.00000  Uiso   1.00
C580   C     0.33746   0.05522   0.68276   0.00000  Uiso   1.00
C581   C     0.40627   0.07022   0.70158   0.00000  Uiso   1.00
C582   C     0.81302   0.07419   0.60232   0.00000  Uiso   1.00
C583   C     0.26415   0.98617   0.57567   0.00000  Uiso   1.00
C584   C     0.27153   0.92193   0.56763   0.00000  Uiso   1.00
C585   C     0.27122   0.89763   0.52378   0.00000  Uiso   1.00
C586   C     0.26290   0.93606   0.48643   0.00000  Uiso   1.00
C587   C     0.25337   0.99982   0.49480   0.00000  Uiso   1.00
C588   C     0.25196   0.02383   0.53818   0.00000  Uiso   1.00
C589   C     0.27829   0.91027   0.44057   0.00000  Uiso   1.00
C590   C     0.44768   0.84775   0.63748   0.00000  Uiso   1.00
C591   C     0.43123   0.79394   0.61361   0.00000  Uiso   1.00
C592   C     0.41967   0.79788   0.56902   0.00000  Uiso   1.00
C593   C     0.42324   0.85386   0.54882   0.00000  Uiso   1.00
C594   C     0.42127   0.85685   0.50320   0.00000  Uiso   1.00
C595   C     0.42391   0.91408   0.48267   0.00000  Uiso   1.00
C596   C     0.42339   0.96979   0.50688   0.00000  Uiso   1.00
C597   C     0.41013   0.02677   0.48655   0.00000  Uiso   1.00
C598   C     0.39454   0.07919   0.51201   0.00000  Uiso   1.00
C599   C     0.40372   0.07758   0.55776   0.00000  Uiso   1.00
C600   C     0.43268   0.96820   0.55277   0.00000  Uiso   1.00
C601   C     0.43480   0.90846   0.57435   0.00000  Uiso   1.00
C602   C     0.60820   0.78705   0.78761   0.00000  Uiso   1.00
C603   C     0.37174   0.31119   0.65450   0.00000  Uiso   1.00
Cu604  Cu    0.42750   0.99519   0.63449   0.00000  Uiso   1.00
F605   F     0.70087   0.26591   0.50368   0.00000  Uiso   1.00
F606   F     0.75371   0.26860   0.57338   0.00000  Uiso   1.00
F607   F     0.76360   0.18050   0.52941   0.00000  Uiso   1.00
F608   F     0.65471   0.20777   0.56057   0.00000  Uiso   1.00
N609   N     0.46970   0.05138   0.68189   0.00000  Uiso   1.00
N610   N     0.33144   0.01611   0.64720   0.00000  Uiso   1.00
N611   N     0.43648   0.90624   0.61850   0.00000  Uiso   1.00
N612   N     0.43025   0.02318   0.57594   0.00000  Uiso   1.00
N613   N     0.84524   0.02034   0.60078   0.00000  Uiso   1.00
N614   N     0.27119   0.94258   0.40399   0.00000  Uiso   1.00
N615   N     0.57687   0.78136   0.82573   0.00000  Uiso   1.00
N616   N     0.42911   0.34609   0.65307   0.00000  Uiso   1.00
F617   F     0.00841   0.61642   0.03823   0.00000  Uiso   1.00
F618   F     0.06109   0.69143  -0.00654   0.00000  Uiso   1.00
F619   F     0.44062   0.23020   0.51246   0.00000  Uiso   1.00
F620   F     0.51922   0.15606   0.53663   0.00000  Uiso   1.00
C621   C     0.51975   0.82292   0.32411   0.00000  Uiso   1.00
C622   C     0.55132   0.80698   0.28433   0.00000  Uiso   1.00
C623   C     0.50975   0.78498   0.24956   0.00000  Uiso   1.00
C624   C     0.43531   0.78123   0.25330   0.00000  Uiso   1.00
C625   C     0.40319   0.79528   0.29360   0.00000  Uiso   1.00
C626   C     0.44546   0.81768   0.32857   0.00000  Uiso   1.00
C627   C     0.12851   0.49102   0.06308   0.00000  Uiso   1.00
C628   C     0.12118   0.42634   0.06237   0.00000  Uiso   1.00
C629   C     0.10339   0.39400   0.02387   0.00000  Uiso   1.00
C630   C     0.09371   0.42388   0.98496   0.00000  Uiso   1.00
C631   C     0.09395   0.49121   0.98455   0.00000  Uiso   1.00
C632   C     0.11447   0.52349   0.02328   0.00000  Uiso   1.00
C633   C     0.08947   0.38542   0.94371   0.00000  Uiso   1.00
C634   C     0.12987   0.40240   0.90679   0.00000  Uiso   1.00
C635   C     0.13839   0.36249   0.87026   0.00000  Uiso   1.00
C636   C     0.09758   0.30769   0.86754   0.00000  Uiso   1.00
C637   C     0.05758   0.29041   0.90445   0.00000  Uiso   1.00
C638   C     0.05387   0.32858   0.94161   0.00000  Uiso   1.00
C639   C     0.54639   0.40030   0.31697   0.00000  Uiso   1.00
C640   C     0.56854   0.39902   0.27408   0.00000  Uiso   1.00
C641   C     0.51955   0.41408   0.24023   0.00000  Uiso   1.00
C642   C     0.44785   0.42852   0.24831   0.00000  Uiso   1.00
C643   C     0.42809   0.43564   0.29274   0.00000  Uiso   1.00
C644   C     0.47726   0.42002   0.32646   0.00000  Uiso   1.00
C645   C     0.40314   0.43606   0.21341   0.00000  Uiso   1.00
C646   C     0.42801   0.44413   0.17063   0.00000  Uiso   1.00
C647   C     0.38492   0.44434   0.13385   0.00000  Uiso   1.00
C648   C     0.31277   0.43108   0.13588   0.00000  Uiso   1.00
C649   C     0.28346   0.42222   0.17870   0.00000  Uiso   1.00
C650   C     0.32834   0.42412   0.21728   0.00000  Uiso   1.00
C651   C     0.38509   0.13458   0.58476   0.00000  Uiso   1.00
C652   C     0.43103   0.15172   0.61824   0.00000  Uiso   1.00
C653   C     0.42429   0.20677   0.64150   0.00000  Uiso   1.00
C654   C     0.37156   0.25018   0.63099   0.00000  Uiso   1.00
C655   C     0.32168   0.23392   0.59804   0.00000  Uiso   1.00
C656   C     0.32877   0.17668   0.57481   0.00000  Uiso   1.00
C657   C     0.74513   0.08017   0.62812   0.00000  Uiso   1.00
C658   C     0.73928   0.06631   0.67314   0.00000  Uiso   1.00
C659   C     0.67167   0.06656   0.69419   0.00000  Uiso   1.00
C660   C     0.60699   0.07602   0.67035   0.00000  Uiso   1.00
C661   C     0.61453   0.08906   0.62502   0.00000  Uiso   1.00
C662   C     0.68205   0.09218   0.60492   0.00000  Uiso   1.00
H663   H     0.58988   0.13001   0.74823   0.00000  Uiso   1.00
H664   H     0.47628   0.15432   0.78884   0.00000  Uiso   1.00
H665   H     0.34808   0.17146   0.78395   0.00000  Uiso   1.00
H666   H     0.23073   0.15525   0.74420   0.00000  Uiso   1.00
H667   H     0.16088   0.10373   0.68716   0.00000  Uiso   1.00
H668   H     0.15871   0.04432   0.61485   0.00000  Uiso   1.00
H669   H     0.83666   0.11594   0.58413   0.00000  Uiso   1.00
H670   H     0.27791   0.88818   0.59648   0.00000  Uiso   1.00
H671   H     0.27787   0.84542   0.51806   0.00000  Uiso   1.00
H672   H     0.24651   0.03377   0.46611   0.00000  Uiso   1.00
H673   H     0.24044   0.07570   0.54236   0.00000  Uiso   1.00
H674   H     0.29700   0.85972   0.43909   0.00000  Uiso   1.00
H675   H     0.42751   0.74709   0.63126   0.00000  Uiso   1.00
H676   H     0.40711   0.75402   0.54919   0.00000  Uiso   1.00
H677   H     0.41748   0.81217   0.48292   0.00000  Uiso   1.00
H678   H     0.42661   0.91696   0.44507   0.00000  Uiso   1.00
H679   H     0.41200   0.03068   0.44898   0.00000  Uiso   1.00
H680   H     0.37422   0.12354   0.49546   0.00000  Uiso   1.00
H681   H     0.66821   0.79638   0.78590   0.00000  Uiso   1.00
H682   H     0.32261   0.32759   0.67360   0.00000  Uiso   1.00
H683   H     0.61167   0.81187   0.27996   0.00000  Uiso   1.00
H684   H     0.53630   0.76967   0.21741   0.00000  Uiso   1.00
H685   H     0.34308   0.78858   0.29801   0.00000  Uiso   1.00
H686   H     0.41849   0.83167   0.36089   0.00000  Uiso   1.00
H687   H     0.12978   0.39820   0.09390   0.00000  Uiso   1.00
H688   H     0.09669   0.34118   0.02477   0.00000  Uiso   1.00
H689   H     0.07777   0.51745   0.95333   0.00000  Uiso   1.00
H690   H     0.11964   0.57643   0.02215   0.00000  Uiso   1.00
H691   H     0.15719   0.44990   0.90562   0.00000  Uiso   1.00
H692   H     0.17828   0.37473   0.84309   0.00000  Uiso   1.00
H693   H     0.02718   0.24432   0.90455   0.00000  Uiso   1.00
H694   H     0.02043   0.31201   0.97086   0.00000  Uiso   1.00
H695   H     0.62614   0.38587   0.26584   0.00000  Uiso   1.00
H696   H     0.53791   0.41485   0.20429   0.00000  Uiso   1.00
H697   H     0.37259   0.45396   0.30150   0.00000  Uiso   1.00
H698   H     0.45882   0.42397   0.36228   0.00000  Uiso   1.00
H699   H     0.48762   0.45115   0.16433   0.00000  Uiso   1.00
H700   H     0.40855   0.45577   0.10006   0.00000  Uiso   1.00
H701   H     0.22364   0.41347   0.18282   0.00000  Uiso   1.00
H702   H     0.30354   0.41596   0.25123   0.00000  Uiso   1.00
H703   H     0.47727   0.11982   0.62788   0.00000  Uiso   1.00
H704   H     0.46236   0.21745   0.66997   0.00000  Uiso   1.00
H705   H     0.27548   0.26672   0.58996   0.00000  Uiso   1.00
H706   H     0.28840   0.16478   0.54783   0.00000  Uiso   1.00
H707   H     0.78923   0.05469   0.69317   0.00000  Uiso   1.00
H708   H     0.66785   0.05901   0.73142   0.00000  Uiso   1.00
H709   H     0.56506   0.09737   0.60375   0.00000  Uiso   1.00
H710   H     0.68438   0.10503   0.56837   0.00000  Uiso   1.00
B711   B     0.21847   0.73070   0.54175   0.00000  Uiso   1.00
C712   C     0.03546   0.57780   0.69498   0.00000  Uiso   1.00
C713   C     0.03669   0.61323   0.73411   0.00000  Uiso   1.00
C714   C     0.97403   0.62826   0.75602   0.00000  Uiso   1.00
C715   C     0.90843   0.61157   0.73799   0.00000  Uiso   1.00
C716   C     0.84586   0.63976   0.75372   0.00000  Uiso   1.00
C717   C     0.78070   0.62941   0.73272   0.00000  Uiso   1.00
C718   C     0.77599   0.58741   0.69751   0.00000  Uiso   1.00
C719   C     0.71182   0.58084   0.67424   0.00000  Uiso   1.00
C720   C     0.70995   0.54635   0.63527   0.00000  Uiso   1.00
C721   C     0.77098   0.51390   0.62085   0.00000  Uiso   1.00
C722   C     0.83746   0.55522   0.68276   0.00000  Uiso   1.00
C723   C     0.90627   0.57022   0.70158   0.00000  Uiso   1.00
C724   C     0.31302   0.57419   0.60232   0.00000  Uiso   1.00
C725   C     0.76415   0.48617   0.57567   0.00000  Uiso   1.00
C726   C     0.77153   0.42193   0.56763   0.00000  Uiso   1.00
C727   C     0.77122   0.39763   0.52378   0.00000  Uiso   1.00
C728   C     0.76290   0.43606   0.48643   0.00000  Uiso   1.00
C729   C     0.75337   0.49982   0.49480   0.00000  Uiso   1.00
C730   C     0.75196   0.52383   0.53818   0.00000  Uiso   1.00
C731   C     0.77829   0.41027   0.44057   0.00000  Uiso   1.00
C732   C     0.94768   0.34775   0.63748   0.00000  Uiso   1.00
C733   C     0.93123   0.29394   0.61361   0.00000  Uiso   1.00
C734   C     0.91967   0.29788   0.56902   0.00000  Uiso   1.00
C735   C     0.92324   0.35386   0.54882   0.00000  Uiso   1.00
C736   C     0.92127   0.35685   0.50320   0.00000  Uiso   1.00
C737   C     0.92391   0.41408   0.48267   0.00000  Uiso   1.00
C738   C     0.92339   0.46979   0.50688   0.00000  Uiso   1.00
C739   C     0.91013   0.52677   0.48655   0.00000  Uiso   1.00
C740   C     0.89454   0.57919   0.51201   0.00000  Uiso   1.00
C741   C     0.90372   0.57758   0.55776   0.00000  Uiso   1.00
C742   C     0.93268   0.46820   0.55277   0.00000  Uiso   1.00
C743   C     0.93480   0.40846   0.57435   0.00000  Uiso   1.00
C744   C     0.10820   0.28705   0.78761   0.00000  Uiso   1.00
C745   C     0.87174   0.81119   0.65450   0.00000  Uiso   1.00
Cu746  Cu    0.92750   0.49519   0.63449   0.00000  Uiso   1.00
F747   F     0.20087   0.76591   0.50368   0.00000  Uiso   1.00
F748   F     0.25371   0.76860   0.57338   0.00000  Uiso   1.00
F749   F     0.26360   0.68050   0.52941   0.00000  Uiso   1.00
F750   F     0.15471   0.70777   0.56057   0.00000  Uiso   1.00
N751   N     0.96970   0.55138   0.68189   0.00000  Uiso   1.00
N752   N     0.83144   0.51611   0.64720   0.00000  Uiso   1.00
N753   N     0.93648   0.40624   0.61850   0.00000  Uiso   1.00
N754   N     0.93025   0.52318   0.57594   0.00000  Uiso   1.00
N755   N     0.34524   0.52034   0.60078   0.00000  Uiso   1.00
N756   N     0.77119   0.44258   0.40399   0.00000  Uiso   1.00
N757   N     0.07687   0.28136   0.82573   0.00000  Uiso   1.00
N758   N     0.92911   0.84609   0.65307   0.00000  Uiso   1.00
F759   F     0.50841   0.11642   0.03823   0.00000  Uiso   1.00
F760   F     0.56109   0.19143  -0.00654   0.00000  Uiso   1.00
F761   F    -0.05938   0.73020   0.51246   0.00000  Uiso   1.00
F762   F     0.01922   0.65606   0.53663   0.00000  Uiso   1.00
C763   C     0.01975   0.32292   0.32411   0.00000  Uiso   1.00
C764   C     0.05132   0.30698   0.28433   0.00000  Uiso   1.00
C765   C     0.00975   0.28498   0.24956   0.00000  Uiso   1.00
C766   C     0.93531   0.28123   0.25330   0.00000  Uiso   1.00
C767   C     0.90319   0.29528   0.29360   0.00000  Uiso   1.00
C768   C     0.94546   0.31768   0.32857   0.00000  Uiso   1.00
C769   C     0.62851   0.99102   0.06308   0.00000  Uiso   1.00
C770   C     0.62118   0.92634   0.06237   0.00000  Uiso   1.00
C771   C     0.60339   0.89400   0.02387   0.00000  Uiso   1.00
C772   C     0.59371   0.92388   0.98496   0.00000  Uiso   1.00
C773   C     0.59395   0.99121   0.98455   0.00000  Uiso   1.00
C774   C     0.61447   0.02349   0.02328   0.00000  Uiso   1.00
C775   C     0.58947   0.88542   0.94371   0.00000  Uiso   1.00
C776   C     0.62987   0.90240   0.90679   0.00000  Uiso   1.00
C777   C     0.63839   0.86249   0.87026   0.00000  Uiso   1.00
C778   C     0.59758   0.80769   0.86754   0.00000  Uiso   1.00
C779   C     0.55758   0.79041   0.90445   0.00000  Uiso   1.00
C780   C     0.55387   0.82858   0.94161   0.00000  Uiso   1.00
C781   C     0.04639   0.90030   0.31697   0.00000  Uiso   1.00
C782   C     0.06854   0.89902   0.27408   0.00000  Uiso   1.00
C783   C     0.01955   0.91408   0.24023   0.00000  Uiso   1.00
C784   C     0.94785   0.92852   0.24831   0.00000  Uiso   1.00
C785   C     0.92809   0.93564   0.29274   0.00000  Uiso   1.00
C786   C     0.97726   0.92002   0.32646   0.00000  Uiso   1.00
C787   C     0.90314   0.93606   0.21341   0.00000  Uiso   1.00
C788   C     0.92801   0.94413   0.17063   0.00000  Uiso   1.00
C789   C     0.88492   0.94434   0.13385   0.00000  Uiso   1.00
C790   C     0.81277   0.93108   0.13588   0.00000  Uiso   1.00
C791   C     0.78346   0.92222   0.17870   0.00000  Uiso   1.00
C792   C     0.82834   0.92412   0.21728   0.00000  Uiso   1.00
C793   C     0.88509   0.63458   0.58476   0.00000  Uiso   1.00
C794   C     0.93103   0.65172   0.61824   0.00000  Uiso   1.00
C795   C     0.92429   0.70677   0.64150   0.00000  Uiso   1.00
C796   C     0.87156   0.75018   0.63099   0.00000  Uiso   1.00
C797   C     0.82168   0.73392   0.59804   0.00000  Uiso   1.00
C798   C     0.82877   0.67668   0.57481   0.00000  Uiso   1.00
C799   C     0.24513   0.58017   0.62812   0.00000  Uiso   1.00
C800   C     0.23928   0.56631   0.67314   0.00000  Uiso   1.00
C801   C     0.17167   0.56656   0.69419   0.00000  Uiso   1.00
C802   C     0.10699   0.57602   0.67035   0.00000  Uiso   1.00
C803   C     0.11453   0.58906   0.62502   0.00000  Uiso   1.00
C804   C     0.18205   0.59218   0.60492   0.00000  Uiso   1.00
H805   H     0.08988   0.63001   0.74823   0.00000  Uiso   1.00
H806   H     0.97628   0.65432   0.78884   0.00000  Uiso   1.00
H807   H     0.84808   0.67146   0.78395   0.00000  Uiso   1.00
H808   H     0.73073   0.65525   0.74420   0.00000  Uiso   1.00
H809   H     0.66088   0.60373   0.68716   0.00000  Uiso   1.00
H810   H     0.65871   0.54432   0.61485   0.00000  Uiso   1.00
H811   H     0.33666   0.61594   0.58413   0.00000  Uiso   1.00
H812   H     0.77791   0.38818   0.59648   0.00000  Uiso   1.00
H813   H     0.77787   0.34542   0.51806   0.00000  Uiso   1.00
H814   H     0.74651   0.53377   0.46611   0.00000  Uiso   1.00
H815   H     0.74044   0.57570   0.54236   0.00000  Uiso   1.00
H816   H     0.79700   0.35972   0.43909   0.00000  Uiso   1.00
H817   H     0.92751   0.24709   0.63126   0.00000  Uiso   1.00
H818   H     0.90711   0.25402   0.54919   0.00000  Uiso   1.00
H819   H     0.91748   0.31217   0.48292   0.00000  Uiso   1.00
H820   H     0.92661   0.41696   0.44507   0.00000  Uiso   1.00
H821   H     0.91200   0.53068   0.44898   0.00000  Uiso   1.00
H822   H     0.87422   0.62354   0.49546   0.00000  Uiso   1.00
H823   H     0.16821   0.29638   0.78590   0.00000  Uiso   1.00
H824   H     0.82261   0.82759   0.67360   0.00000  Uiso   1.00
H825   H     0.11167   0.31187   0.27996   0.00000  Uiso   1.00
H826   H     0.03630   0.26967   0.21741   0.00000  Uiso   1.00
H827   H     0.84308   0.28858   0.29801   0.00000  Uiso   1.00
H828   H     0.91849   0.33167   0.36089   0.00000  Uiso   1.00
H829   H     0.62978   0.89820   0.09390   0.00000  Uiso   1.00
H830   H     0.59669   0.84118   0.02477   0.00000  Uiso   1.00
H831   H     0.57777   0.01745   0.95333   0.00000  Uiso   1.00
H832   H     0.61964   0.07643   0.02215   0.00000  Uiso   1.00
H833   H     0.65719   0.94990   0.90562   0.00000  Uiso   1.00
H834   H     0.67828   0.87473   0.84309   0.00000  Uiso   1.00
H835   H     0.52718   0.74432   0.90455   0.00000  Uiso   1.00
H836   H     0.52043   0.81201   0.97086   0.00000  Uiso   1.00
H837   H     0.12614   0.88587   0.26584   0.00000  Uiso   1.00
H838   H     0.03791   0.91485   0.20429   0.00000  Uiso   1.00
H839   H     0.87259   0.95396   0.30150   0.00000  Uiso   1.00
H840   H     0.95882   0.92397   0.36228   0.00000  Uiso   1.00
H841   H     0.98762   0.95115   0.16433   0.00000  Uiso   1.00
H842   H     0.90855   0.95577   0.10006   0.00000  Uiso   1.00
H843   H     0.72364   0.91347   0.18282   0.00000  Uiso   1.00
H844   H     0.80354   0.91596   0.25123   0.00000  Uiso   1.00
H845   H     0.97727   0.61982   0.62788   0.00000  Uiso   1.00
H846   H     0.96236   0.71745   0.66997   0.00000  Uiso   1.00
H847   H     0.77548   0.76672   0.58996   0.00000  Uiso   1.00
H848   H     0.78840   0.66478   0.54783   0.00000  Uiso   1.00
H849   H     0.28923   0.55469   0.69317   0.00000  Uiso   1.00
H850   H     0.16785   0.55901   0.73142   0.00000  Uiso   1.00
H851   H     0.06506   0.59737   0.60375   0.00000  Uiso   1.00
H852   H     0.18438   0.60503   0.56837   0.00000  Uiso   1.00
B853   B     0.28153   0.23070   0.45825   0.00000  Uiso   1.00
C854   C     0.46454   0.07780   0.30502   0.00000  Uiso   1.00
C855   C     0.46331   0.11323   0.26589   0.00000  Uiso   1.00
C856   C     0.52597   0.12826   0.24398   0.00000  Uiso   1.00
C857   C     0.59157   0.11157   0.26201   0.00000  Uiso   1.00
C858   C     0.65414   0.13976   0.24628   0.00000  Uiso   1.00
C859   C     0.71930   0.12941   0.26728   0.00000  Uiso   1.00
C860   C     0.72401   0.08741   0.30249   0.00000  Uiso   1.00
C861   C     0.78818   0.08084   0.32576   0.00000  Uiso   1.00
C862   C     0.79005   0.04635   0.36473   0.00000  Uiso   1.00
C863   C     0.72902   0.01390   0.37915   0.00000  Uiso   1.00
C864   C     0.66254   0.05522   0.31724   0.00000  Uiso   1.00
C865   C     0.59373   0.07022   0.29842   0.00000  Uiso   1.00
C866   C     0.18698   0.07419   0.39768   0.00000  Uiso   1.00
C867   C     0.73585   0.98617   0.42433   0.00000  Uiso   1.00
C868   C     0.72847   0.92193   0.43237   0.00000  Uiso   1.00
C869   C     0.72878   0.89763   0.47622   0.00000  Uiso   1.00
C870   C     0.73710   0.93606   0.51357   0.00000  Uiso   1.00
C871   C     0.74663   0.99982   0.50520   0.00000  Uiso   1.00
C872   C     0.74804   0.02383   0.46182   0.00000  Uiso   1.00
C873   C     0.72171   0.91027   0.55943   0.00000  Uiso   1.00
C874   C     0.55232   0.84775   0.36252   0.00000  Uiso   1.00
C875   C     0.56877   0.79394   0.38639   0.00000  Uiso   1.00
C876   C     0.58033   0.79788   0.43098   0.00000  Uiso   1.00
C877   C     0.57676   0.85386   0.45118   0.00000  Uiso   1.00
C878   C     0.57873   0.85685   0.49680   0.00000  Uiso   1.00
C879   C     0.57609   0.91408   0.51733   0.00000  Uiso   1.00
C880   C     0.57661   0.96979   0.49312   0.00000  Uiso   1.00
C881   C     0.58987   0.02677   0.51345   0.00000  Uiso   1.00
C882   C     0.60546   0.07919   0.48799   0.00000  Uiso   1.00
C883   C     0.59628   0.07758   0.44224   0.00000  Uiso   1.00
C884   C     0.56732   0.96820   0.44723   0.00000  Uiso   1.00
C885   C     0.56520   0.90846   0.42565   0.00000  Uiso   1.00
C886   C     0.39180   0.78705   0.21239   0.00000  Uiso   1.00
C887   C     0.62826   0.31119   0.34550   0.00000  Uiso   1.00
Cu888  Cu    0.57250   0.99519   0.36551   0.00000  Uiso   1.00
F889   F     0.29913   0.26591   0.49632   0.00000  Uiso   1.00
F890   F     0.24629   0.26860   0.42662   0.00000  Uiso   1.00
F891   F     0.23640   0.18050   0.47059   0.00000  Uiso   1.00
F892   F     0.34529   0.20777   0.43943   0.00000  Uiso   1.00
N893   N     0.53030   0.05138   0.31811   0.00000  Uiso   1.00
N894   N     0.66856   0.01611   0.35280   0.00000  Uiso   1.00
N895   N     0.56352   0.90624   0.38150   0.00000  Uiso   1.00
N896   N     0.56975   0.02318   0.42406   0.00000  Uiso   1.00
N897   N     0.15476   0.02034   0.39922   0.00000  Uiso   1.00
N898   N     0.72881   0.94258   0.59601   0.00000  Uiso   1.00
N899   N     0.42313   0.78136   0.17427   0.00000  Uiso   1.00
N900   N     0.57089   0.34609   0.34693   0.00000  Uiso   1.00
F901   F    -0.00841   0.61642  -0.03823   0.00000  Uiso   1.00
F902   F    -0.06109   0.69143   0.00654   0.00000  Uiso   1.00
F903   F     0.55938   0.23020   0.48754   0.00000  Uiso   1.00
F904   F     0.48078   0.15606   0.46337   0.00000  Uiso   1.00
C905   C     0.48025   0.82292   0.67589   0.00000  Uiso   1.00
C906   C     0.44868   0.80698   0.71567   0.00000  Uiso   1.00
C907   C     0.49025   0.78498   0.75044   0.00000  Uiso   1.00
C908   C     0.56469   0.78123   0.74670   0.00000  Uiso   1.00
C909   C     0.59681   0.79528   0.70640   0.00000  Uiso   1.00
C910   C     0.55454   0.81768   0.67143   0.00000  Uiso   1.00
C911   C     0.87149   0.49102   0.93692   0.00000  Uiso   1.00
C912   C     0.87882   0.42634   0.93763   0.00000  Uiso   1.00
C913   C     0.89661   0.39400   0.97613   0.00000  Uiso   1.00
C914   C     0.90629   0.42388   0.01504   0.00000  Uiso   1.00
C915   C     0.90605   0.49121   0.01545   0.00000  Uiso   1.00
C916   C     0.88553   0.52349   0.97672   0.00000  Uiso   1.00
C917   C     0.91053   0.38542   0.05629   0.00000  Uiso   1.00
C918   C     0.87013   0.40240   0.09321   0.00000  Uiso   1.00
C919   C     0.86161   0.36249   0.12974   0.00000  Uiso   1.00
C920   C     0.90242   0.30769   0.13246   0.00000  Uiso   1.00
C921   C     0.94242   0.29041   0.09555   0.00000  Uiso   1.00
C922   C     0.94613   0.32858   0.05839   0.00000  Uiso   1.00
C923   C     0.45361   0.40030   0.68303   0.00000  Uiso   1.00
C924   C     0.43146   0.39902   0.72592   0.00000  Uiso   1.00
C925   C     0.48045   0.41408   0.75977   0.00000  Uiso   1.00
C926   C     0.55215   0.42852   0.75169   0.00000  Uiso   1.00
C927   C     0.57191   0.43564   0.70726   0.00000  Uiso   1.00
C928   C     0.52274   0.42002   0.67354   0.00000  Uiso   1.00
C929   C     0.59686   0.43606   0.78659   0.00000  Uiso   1.00
C930   C     0.57199   0.44413   0.82937   0.00000  Uiso   1.00
C931   C     0.61508   0.44434   0.86615   0.00000  Uiso   1.00
C932   C     0.68723   0.43108   0.86412   0.00000  Uiso   1.00
C933   C     0.71654   0.42222   0.82130   0.00000  Uiso   1.00
C934   C     0.67166   0.42412   0.78272   0.00000  Uiso   1.00
C935   C     0.61491   0.13458   0.41524   0.00000  Uiso   1.00
C936   C     0.56897   0.15172   0.38176   0.00000  Uiso   1.00
C937   C     0.57571   0.20677   0.35850   0.00000  Uiso   1.00
C938   C     0.62844   0.25018   0.36901   0.00000  Uiso   1.00
C939   C     0.67832   0.23392   0.40196   0.00000  Uiso   1.00
C940   C     0.67123   0.17668   0.42519   0.00000  Uiso   1.00
C941   C     0.25487   0.08017   0.37188   0.00000  Uiso   1.00
C942   C     0.26072   0.06631   0.32686   0.00000  Uiso   1.00
C943   C     0.32833   0.06656   0.30581   0.00000  Uiso   1.00
C944   C     0.39301   0.07602   0.32965   0.00000  Uiso   1.00
C945   C     0.38547   0.08906   0.37498   0.00000  Uiso   1.00
C946   C     0.31795   0.09218   0.39508   0.00000  Uiso   1.00
H947   H     0.41012   0.13001   0.25177   0.00000  Uiso   1.00
H948   H     0.52372   0.15432   0.21116   0.00000  Uiso   1.00
H949   H     0.65192   0.17146   0.21605   0.00000  Uiso   1.00
H950   H     0.76927   0.15525   0.25580   0.00000  Uiso   1.00
H951   H     0.83912   0.10373   0.31284   0.00000  Uiso   1.00
H952   H     0.84129   0.04432   0.38515   0.00000  Uiso   1.00
H953   H     0.16334   0.11594   0.41587   0.00000  Uiso   1.00
H954   H     0.72209   0.88818   0.40352   0.00000  Uiso   1.00
H955   H     0.72213   0.84542   0.48194   0.00000  Uiso   1.00
H956   H     0.75349   0.03377   0.53389   0.00000  Uiso   1.00
H957   H     0.75956   0.07570   0.45764   0.00000  Uiso   1.00
H958   H     0.70300   0.85972   0.56091   0.00000  Uiso   1.00
H959   H     0.57249   0.74709   0.36874   0.00000  Uiso   1.00
H960   H     0.59289   0.75402   0.45081   0.00000  Uiso   1.00
H961   H     0.58252   0.81217   0.51708   0.00000  Uiso   1.00
H962   H     0.57339   0.91696   0.55493   0.00000  Uiso   1.00
H963   H     0.58800   0.03068   0.55102   0.00000  Uiso   1.00
H964   H     0.62578   0.12354   0.50454   0.00000  Uiso   1.00
H965   H     0.33179   0.79638   0.21410   0.00000  Uiso   1.00
H966   H     0.67739   0.32759   0.32640   0.00000  Uiso   1.00
H967   H     0.38833   0.81187   0.72004   0.00000  Uiso   1.00
H968   H     0.46370   0.76967   0.78259   0.00000  Uiso   1.00
H969   H     0.65692   0.78858   0.70199   0.00000  Uiso   1.00
H970   H     0.58151   0.83167   0.63911   0.00000  Uiso   1.00
H971   H     0.87022   0.39820   0.90610   0.00000  Uiso   1.00
H972   H     0.90331   0.34118   0.97523   0.00000  Uiso   1.00
H973   H     0.92223   0.51745   0.04667   0.00000  Uiso   1.00
H974   H     0.88036   0.57643   0.97785   0.00000  Uiso   1.00
H975   H     0.84281   0.44990   0.09438   0.00000  Uiso   1.00
H976   H     0.82172   0.37473   0.15691   0.00000  Uiso   1.00
H977   H     0.97282   0.24432   0.09545   0.00000  Uiso   1.00
H978   H     0.97957   0.31201   0.02914   0.00000  Uiso   1.00
H979   H     0.37386   0.38587   0.73416   0.00000  Uiso   1.00
H980   H     0.46209   0.41485   0.79571   0.00000  Uiso   1.00
H981   H     0.62741   0.45396   0.69850   0.00000  Uiso   1.00
H982   H     0.54118   0.42397   0.63772   0.00000  Uiso   1.00
H983   H     0.51238   0.45115   0.83567   0.00000  Uiso   1.00
H984   H     0.59145   0.45577   0.89994   0.00000  Uiso   1.00
H985   H     0.77636   0.41347   0.81718   0.00000  Uiso   1.00
H986   H     0.69646   0.41596   0.74877   0.00000  Uiso   1.00
H987   H     0.52273   0.11982   0.37212   0.00000  Uiso   1.00
H988   H     0.53764   0.21745   0.33003   0.00000  Uiso   1.00
H989   H     0.72452   0.26672   0.41004   0.00000  Uiso   1.00
H990   H     0.71160   0.16478   0.45217   0.00000  Uiso   1.00
H991   H     0.21077   0.05469   0.30683   0.00000  Uiso   1.00
H992   H     0.33215   0.05901   0.26858   0.00000  Uiso   1.00
H993   H     0.43494   0.09737   0.39625   0.00000  Uiso   1.00
H994   H     0.31562   0.10503   0.43163   0.00000  Uiso   1.00
B995   B     0.78153   0.73070   0.45825   0.00000  Uiso   1.00
C996   C     0.96454   0.57780   0.30502   0.00000  Uiso   1.00
C997   C     0.96331   0.61323   0.26589   0.00000  Uiso   1.00
C998   C     0.02597   0.62826   0.24398   0.00000  Uiso   1.00
C999   C     0.09157   0.61157   0.26201   0.00000  Uiso   1.00
C1000  C     0.15414   0.63976   0.24628   0.00000  Uiso   1.00
C1001  C     0.21930   0.62941   0.26728   0.00000  Uiso   1.00
C1002  C     0.22401   0.58741   0.30249   0.00000  Uiso   1.00
C1003  C     0.28818   0.58084   0.32576   0.00000  Uiso   1.00
C1004  C     0.29005   0.54635   0.36473   0.00000  Uiso   1.00
C1005  C     0.22902   0.51390   0.37915   0.00000  Uiso   1.00
C1006  C     0.16254   0.55522   0.31724   0.00000  Uiso   1.00
C1007  C     0.09373   0.57022   0.29842   0.00000  Uiso   1.00
C1008  C     0.68698   0.57419   0.39768   0.00000  Uiso   1.00
C1009  C     0.23585   0.48617   0.42433   0.00000  Uiso   1.00
C1010  C     0.22847   0.42193   0.43237   0.00000  Uiso   1.00
C1011  C     0.22878   0.39763   0.47622   0.00000  Uiso   1.00
C1012  C     0.23710   0.43606   0.51357   0.00000  Uiso   1.00
C1013  C     0.24663   0.49982   0.50520   0.00000  Uiso   1.00
C1014  C     0.24804   0.52383   0.46182   0.00000  Uiso   1.00
C1015  C     0.22171   0.41027   0.55943   0.00000  Uiso   1.00
C1016  C     0.05232   0.34775   0.36252   0.00000  Uiso   1.00
C1017  C     0.06877   0.29394   0.38639   0.00000  Uiso   1.00
C1018  C     0.08033   0.29788   0.43098   0.00000  Uiso   1.00
C1019  C     0.07676   0.35386   0.45118   0.00000  Uiso   1.00
C1020  C     0.07873   0.35685   0.49680   0.00000  Uiso   1.00
C1021  C     0.07609   0.41408   0.51733   0.00000  Uiso   1.00
C1022  C     0.07661   0.46979   0.49312   0.00000  Uiso   1.00
C1023  C     0.08987   0.52677   0.51345   0.00000  Uiso   1.00
C1024  C     0.10546   0.57919   0.48799   0.00000  Uiso   1.00
C1025  C     0.09628   0.57758   0.44224   0.00000  Uiso   1.00
C1026  C     0.06732   0.46820   0.44723   0.00000  Uiso   1.00
C1027  C     0.06520   0.40846   0.42565   0.00000  Uiso   1.00
C1028  C     0.89180   0.28705   0.21239   0.00000  Uiso   1.00
C1029  C     0.12826   0.81119   0.34550   0.00000  Uiso   1.00
Cu103  Cu    0.07250   0.49519   0.36551   0.00000  Uiso   1.00
F1031  F     0.79913   0.76591   0.49632   0.00000  Uiso   1.00
F1032  F     0.74629   0.76860   0.42662   0.00000  Uiso   1.00
F1033  F     0.73640   0.68050   0.47059   0.00000  Uiso   1.00
F1034  F     0.84529   0.70777   0.43943   0.00000  Uiso   1.00
N1035  N     0.03030   0.55138   0.31811   0.00000  Uiso   1.00
N1036  N     0.16856   0.51611   0.35280   0.00000  Uiso   1.00
N1037  N     0.06352   0.40624   0.38150   0.00000  Uiso   1.00
N1038  N     0.06975   0.52318   0.42406   0.00000  Uiso   1.00
N1039  N     0.65476   0.52034   0.39922   0.00000  Uiso   1.00
N1040  N     0.22881   0.44258   0.59601   0.00000  Uiso   1.00
N1041  N     0.92313   0.28136   0.17427   0.00000  Uiso   1.00
N1042  N     0.07089   0.84609   0.34693   0.00000  Uiso   1.00
F1043  F     0.49159   0.11642  -0.03823   0.00000  Uiso   1.00
F1044  F     0.43891   0.19143   0.00654   0.00000  Uiso   1.00
F1045  F     0.05938   0.73020   0.48754   0.00000  Uiso   1.00
F1046  F    -0.01922   0.65606   0.46337   0.00000  Uiso   1.00
C1047  C     0.98025   0.32292   0.67589   0.00000  Uiso   1.00
C1048  C     0.94868   0.30698   0.71567   0.00000  Uiso   1.00
C1049  C     0.99025   0.28498   0.75044   0.00000  Uiso   1.00
C1050  C     0.06469   0.28123   0.74670   0.00000  Uiso   1.00
C1051  C     0.09681   0.29528   0.70640   0.00000  Uiso   1.00
C1052  C     0.05454   0.31768   0.67143   0.00000  Uiso   1.00
C1053  C     0.37149   0.99102   0.93692   0.00000  Uiso   1.00
C1054  C     0.37882   0.92634   0.93763   0.00000  Uiso   1.00
C1055  C     0.39661   0.89400   0.97613   0.00000  Uiso   1.00
C1056  C     0.40629   0.92388   0.01504   0.00000  Uiso   1.00
C1057  C     0.40605   0.99121   0.01545   0.00000  Uiso   1.00
C1058  C     0.38553   0.02349   0.97672   0.00000  Uiso   1.00
C1059  C     0.41053   0.88542   0.05629   0.00000  Uiso   1.00
C1060  C     0.37013   0.90240   0.09321   0.00000  Uiso   1.00
C1061  C     0.36161   0.86249   0.12974   0.00000  Uiso   1.00
C1062  C     0.40242   0.80769   0.13246   0.00000  Uiso   1.00
C1063  C     0.44242   0.79041   0.09555   0.00000  Uiso   1.00
C1064  C     0.44613   0.82858   0.05839   0.00000  Uiso   1.00
C1065  C     0.95361   0.90030   0.68303   0.00000  Uiso   1.00
C1066  C     0.93146   0.89902   0.72592   0.00000  Uiso   1.00
C1067  C     0.98045   0.91408   0.75977   0.00000  Uiso   1.00
C1068  C     0.05215   0.92852   0.75169   0.00000  Uiso   1.00
C1069  C     0.07191   0.93564   0.70726   0.00000  Uiso   1.00
C1070  C     0.02274   0.92002   0.67354   0.00000  Uiso   1.00
C1071  C     0.09686   0.93606   0.78659   0.00000  Uiso   1.00
C1072  C     0.07199   0.94413   0.82937   0.00000  Uiso   1.00
C1073  C     0.11508   0.94434   0.86615   0.00000  Uiso   1.00
C1074  C     0.18723   0.93108   0.86412   0.00000  Uiso   1.00
C1075  C     0.21654   0.92222   0.82130   0.00000  Uiso   1.00
C1076  C     0.17166   0.92412   0.78272   0.00000  Uiso   1.00
C1077  C     0.11491   0.63458   0.41524   0.00000  Uiso   1.00
C1078  C     0.06897   0.65172   0.38176   0.00000  Uiso   1.00
C1079  C     0.07571   0.70677   0.35850   0.00000  Uiso   1.00
C1080  C     0.12844   0.75018   0.36901   0.00000  Uiso   1.00
C1081  C     0.17832   0.73392   0.40196   0.00000  Uiso   1.00
C1082  C     0.17123   0.67668   0.42519   0.00000  Uiso   1.00
C1083  C     0.75487   0.58017   0.37188   0.00000  Uiso   1.00
C1084  C     0.76072   0.56631   0.32686   0.00000  Uiso   1.00
C1085  C     0.82833   0.56656   0.30581   0.00000  Uiso   1.00
C1086  C     0.89301   0.57602   0.32965   0.00000  Uiso   1.00
C1087  C     0.88547   0.58906   0.37498   0.00000  Uiso   1.00
C1088  C     0.81795   0.59218   0.39508   0.00000  Uiso   1.00
H1089  H     0.91012   0.63001   0.25177   0.00000  Uiso   1.00
H1090  H     0.02372   0.65432   0.21116   0.00000  Uiso   1.00
H1091  H     0.15192   0.67146   0.21605   0.00000  Uiso   1.00
H1092  H     0.26927   0.65525   0.25580   0.00000  Uiso   1.00
H1093  H     0.33912   0.60373   0.31284   0.00000  Uiso   1.00
H1094  H     0.34129   0.54432   0.38515   0.00000  Uiso   1.00
H1095  H     0.66334   0.61594   0.41587   0.00000  Uiso   1.00
H1096  H     0.22209   0.38818   0.40352   0.00000  Uiso   1.00
H1097  H     0.22213   0.34542   0.48194   0.00000  Uiso   1.00
H1098  H     0.25349   0.53377   0.53389   0.00000  Uiso   1.00
H1099  H     0.25956   0.57570   0.45764   0.00000  Uiso   1.00
H1100  H     0.20300   0.35972   0.56091   0.00000  Uiso   1.00
H1101  H     0.07249   0.24709   0.36874   0.00000  Uiso   1.00
H1102  H     0.09289   0.25402   0.45081   0.00000  Uiso   1.00
H1103  H     0.08252   0.31217   0.51708   0.00000  Uiso   1.00
H1104  H     0.07339   0.41696   0.55493   0.00000  Uiso   1.00
H1105  H     0.08800   0.53068   0.55102   0.00000  Uiso   1.00
H1106  H     0.12578   0.62354   0.50454   0.00000  Uiso   1.00
H1107  H     0.83179   0.29638   0.21410   0.00000  Uiso   1.00
H1108  H     0.17739   0.82759   0.32640   0.00000  Uiso   1.00
H1109  H     0.88833   0.31187   0.72004   0.00000  Uiso   1.00
H1110  H     0.96370   0.26967   0.78259   0.00000  Uiso   1.00
H1111  H     0.15692   0.28858   0.70199   0.00000  Uiso   1.00
H1112  H     0.08151   0.33167   0.63911   0.00000  Uiso   1.00
H1113  H     0.37022   0.89820   0.90610   0.00000  Uiso   1.00
H1114  H     0.40331   0.84118   0.97523   0.00000  Uiso   1.00
H1115  H     0.42223   0.01745   0.04667   0.00000  Uiso   1.00
H1116  H     0.38036   0.07643   0.97785   0.00000  Uiso   1.00
H1117  H     0.34281   0.94990   0.09438   0.00000  Uiso   1.00
H1118  H     0.32172   0.87473   0.15691   0.00000  Uiso   1.00
H1119  H     0.47282   0.74432   0.09545   0.00000  Uiso   1.00
H1120  H     0.47957   0.81201   0.02914   0.00000  Uiso   1.00
H1121  H     0.87386   0.88587   0.73416   0.00000  Uiso   1.00
H1122  H     0.96209   0.91485   0.79571   0.00000  Uiso   1.00
H1123  H     0.12741   0.95396   0.69850   0.00000  Uiso   1.00
H1124  H     0.04118   0.92397   0.63772   0.00000  Uiso   1.00
H1125  H     0.01238   0.95115   0.83567   0.00000  Uiso   1.00
H1126  H     0.09145   0.95577   0.89994   0.00000  Uiso   1.00
H1127  H     0.27636   0.91347   0.81718   0.00000  Uiso   1.00
H1128  H     0.19646   0.91596   0.74877   0.00000  Uiso   1.00
H1129  H     0.02273   0.61982   0.37212   0.00000  Uiso   1.00
H1130  H     0.03764   0.71745   0.33003   0.00000  Uiso   1.00
H1131  H     0.22452   0.76672   0.41004   0.00000  Uiso   1.00
H1132  H     0.21160   0.66478   0.45217   0.00000  Uiso   1.00
H1133  H     0.71077   0.55469   0.30683   0.00000  Uiso   1.00
H1134  H     0.83215   0.55901   0.26858   0.00000  Uiso   1.00
H1135  H     0.93494   0.59737   0.39625   0.00000  Uiso   1.00
H1136  H     0.81562   0.60503   0.43163   0.00000  Uiso   1.00
B1137  B     0.50000   0.65389   0.50000   0.00000  Uiso   1.00
B1138  B     0.00000   0.15389   0.50000   0.00000  Uiso   1.00
B1139  B     0.00000   0.65389   0.00000   0.00000  Uiso   1.00
B1140  B     0.50000   0.15389   0.00000   0.00000  Uiso   1.00
B1141  B     0.00000   0.19329   0.00000   0.00000  Uiso   1.00
B1142  B     0.50000   0.69329   0.00000   0.00000  Uiso   1.00
B1143  B     0.50000   0.19329   0.50000   0.00000  Uiso   1.00
B1144  B     0.00000   0.69329   0.50000   0.00000  Uiso   1.00
loop_
_geom_bond_atom_site_label_1
_geom_bond_atom_site_label_2
_geom_bond_distance
_geom_bond_site_symmetry_2
_ccdc_geom_bond_type
B1     F37     1.416   .     S
B1     F38     1.418   .     S
B1     F39     1.418   .     S
B1     F40     1.409   .     S
C2     C3      1.407   .     S
C2     N41     1.410   1_655 D
C2     C92     1.530   .     S
C3     C4      1.383   1_655 D
C3     H95     1.140   .     S
C4     C3      1.383   1_455 D
C4     C5      1.388   .     S
C4     H96     1.140   .     S
C5     C6      1.399   .     S
C5     C13     1.415   .     D
C6     C7      1.391   .     D
C6     H97     1.140   .     S
C7     C8      1.398   .     S
C7     H98     1.140   .     S
C8     C9      1.397   .     S
C8     C12     1.412   .     D
C9     C10     1.392   .     D
C9     H99     1.140   .     S
C10    C11     1.405   .     S
C10    H100    1.140   .     S
C11    C15     1.496   1_545 S
C11    N42     1.383   .     D
C12    C13     1.442   .     S
C12    N42     1.369   .     S
C13    N41     1.386   .     S
C14    N45     1.303   .     D
C14    C89     1.495   .     S
C14    H101    1.140   .     S
C15    C11     1.496   1_565 S
C15    C16     1.406   .     S
C15    C20     1.411   1_565 D
C16    C17     1.425   .     D
C16    H102    1.140   .     S
C17    C18     1.407   1_554 S
C17    H103    1.140   .     S
C18    C17     1.407   1_556 S
C18    C19     1.402   .     D
C18    C21     1.521   .     S
C19    C20     1.410   1_566 S
C19    H104    1.140   1_565 S
C20    C15     1.411   1_545 D
C20    C19     1.410   1_544 S
C20    H105    1.140   .     S
C21    N46     1.312   .     D
C21    H106    1.140   .     S
C22    C23     1.396   .     S
C22    N43     1.395   .     D
C22    C337    1.415   .     S
C23    C24     1.368   .     D
C23    H107    1.140   .     S
C24    C25     1.349   .     S
C24    H108    1.140   .     S
C25    C26     1.382   .     S
C25    C33     1.419   .     D
C26    C27     1.376   1_554 D
C26    H109    1.140   1_554 S
C27    C26     1.376   1_556 D
C27    C28     1.401   1_556 S
C27    H110    1.140   .     S
C28    C27     1.401   1_554 S
C28    C29     1.390   1_564 D
C28    C32     1.399   .     S
C29    C28     1.390   1_546 D
C29    C30     1.393   1_556 S
C29    H111    1.140   .     S
C30    C29     1.393   1_554 S
C30    C31     1.395   .     D
C30    H112    1.140   1_554 S
C31    N44     1.382   .     S
C31    C83     1.511   .     S
C32    C33     1.438   .     S
C32    N44     1.372   1_565 D
C33    N43     1.337   .     S
C34    N47     1.299   .     D
C34    H113    1.140   .     S
C34    C340    1.486   .     S
C35    N48     1.308   .     D
C35    C86     1.489   .     S
C35    H114    1.140   .     S
Cu36   N41     2.032   1_565 S
Cu36   N42     1.889   1_565 S
Cu36   N43     1.975   .     S
Cu36   N44     1.871   1_565 S
N41    Cu36    2.032   1_545 S
N41    C2      1.410   1_455 D
N42    Cu36    1.889   1_545 S
N44    C32     1.372   1_545 D
N44    Cu36    1.871   1_545 S
N45    C769    1.391   1_545 S
N46    C1074   1.456   .     S
N47    C210    1.438   .     S
N48    C355    1.544   .     S
F49    B1137   1.417   .     S
F50    B1137   1.411   .     S
F51    B1141   1.414   .     S
F52    B1141   1.412   .     S
C53    C54     1.383   .     D
C53    C58     1.399   1_655 S
C53    C306    1.415   .     S
C54    C55     1.390   .     S
C54    H115    1.140   .     S
C55    C56     1.398   1_655 D
C55    H116    1.140   .     S
C56    C55     1.398   1_455 D
C56    C57     1.392   .     S
C56    C318    1.486   .     S
C57    C58     1.405   .     D
C57    H117    1.140   .     S
C58    C53     1.399   1_455 S
C58    H118    1.140   .     S
C59    C60     1.394   .     D
C59    C64     1.415   .     S
C59    N755    1.391   .     S
C60    C61     1.396   .     S
C60    H119    1.140   .     S
C61    C62     1.352   .     D
C61    H120    1.140   .     S
C62    C63     1.444   .     S
C62    C65     1.498   .     S
C63    C64     1.414   .     D
C63    H121    1.140   .     S
C64    H122    1.140   .     S
C65    C66     1.396   .     D
C65    C70     1.390   .     S
C66    C67     1.407   .     S
C66    H123    1.140   .     S
C67    C68     1.403   .     D
C67    H124    1.140   .     S
C68    C69     1.394   .     S
C68    N189    1.438   .     S
C69    C70     1.392   .     D
C69    H125    1.140   .     S
C70    H126    1.140   .     S
C71    C72     1.362   .     D
C71    C76     1.389   1_655 S
C71    N332    1.544   .     S
C72    C73     1.411   .     S
C72    H127    1.140   .     S
C73    C74     1.396   1_655 D
C73    H128    1.140   .     S
C74    C73     1.396   1_455 D
C74    C75     1.402   .     S
C74    C77     1.356   .     S
C75    C76     1.413   .     D
C75    H129    1.140   .     S
C76    C71     1.389   1_455 S
C76    H130    1.140   .     S
C77    C78     1.386   .     D
C77    C82     1.426   .     S
C78    C79     1.373   .     S
C78    H131    1.140   .     S
C79    C80     1.379   .     D
C79    H132    1.140   .     S
C80    C81     1.419   .     S
C80    N1040   1.456   .     S
C81    C82     1.437   .     D
C81    H133    1.140   .     S
C82    H134    1.140   .     S
C83    C84     1.377   .     D
C83    C88     1.419   .     S
C84    C85     1.380   .     S
C84    H135    1.140   .     S
C85    C86     1.392   .     D
C85    H136    1.140   .     S
C86    C87     1.408   .     S
C87    C88     1.421   .     D
C87    H137    1.140   .     S
C88    H138    1.140   .     S
C89    C90     1.398   .     D
C89    C94     1.396   .     S
C90    C91     1.415   .     S
C90    H139    1.140   .     S
C91    C92     1.422   .     D
C91    H140    1.140   .     S
C92    C93     1.406   .     S
C93    C94     1.402   .     D
C93    H141    1.140   .     S
C94    H142    1.140   .     S
H104   C19     1.140   1_545 S
H109   C26     1.140   1_556 S
H112   C30     1.140   1_556 S
B143   F179    1.416   .     S
B143   F180    1.418   .     S
B143   F181    1.418   .     S
B143   F182    1.409   .     S
C144   C145    1.407   .     D
C144   N183    1.410   .     S
C144   C234    1.530   .     S
C145   C146    1.383   .     S
C145   H237    1.140   .     S
C146   C147    1.388   .     D
C146   H238    1.140   .     S
C147   C148    1.399   .     S
C147   C155    1.415   .     S
C148   C149    1.391   .     D
C148   H239    1.140   .     S
C149   C150    1.398   .     S
C149   H240    1.140   .     S
C150   C151    1.397   .     S
C150   C154    1.412   .     D
C151   C152    1.392   .     D
C151   H241    1.140   .     S
C152   C153    1.405   .     S
C152   H242    1.140   .     S
C153   C157    1.496   .     S
C153   N184    1.383   .     D
C154   C155    1.442   .     S
C154   N184    1.369   .     S
C155   N183    1.386   .     D
C156   N187    1.303   .     D
C156   C231    1.495   .     S
C156   H243    1.140   .     S
C157   C158    1.406   .     D
C157   C162    1.411   .     S
C158   C159    1.425   .     S
C158   H244    1.140   .     S
C159   C160    1.407   1_554 D
C159   H245    1.140   .     S
C160   C159    1.407   1_556 D
C160   C161    1.402   .     S
C160   C163    1.521   .     S
C161   C162    1.410   1_556 D
C161   H246    1.140   .     S
C162   C161    1.410   1_554 D
C162   H247    1.140   .     S
C163   N188    1.312   .     D
C163   H248    1.140   .     S
C164   C165    1.396   .     D
C164   N185    1.395   .     S
C164   C479    1.415   .     S
C165   C166    1.368   .     S
C165   H249    1.140   .     S
C166   C167    1.349   .     D
C166   H250    1.140   .     S
C167   C168    1.382   .     S
C167   C175    1.419   .     S
C168   C169    1.376   1_554 D
C168   H251    1.140   1_554 S
C169   C168    1.376   1_556 D
C169   C170    1.401   1_556 S
C169   H252    1.140   .     S
C170   C169    1.401   1_554 S
C170   C171    1.390   1_554 S
C170   C174    1.399   .     D
C171   C170    1.390   1_556 S
C171   C172    1.393   1_556 D
C171   H253    1.140   .     S
C172   C171    1.393   1_554 D
C172   C173    1.395   .     S
C172   H254    1.140   1_554 S
C173   N186    1.382   .     D
C173   C225    1.511   .     S
C174   C175    1.438   .     S
C174   N186    1.372   .     S
C175   N185    1.337   .     D
C176   N189    1.299   .     D
C176   H255    1.140   .     S
C176   C482    1.486   .     S
C177   N190    1.308   .     D
C177   C228    1.489   .     S
C177   H256    1.140   .     S
Cu178  N183    2.032   .     S
Cu178  N184    1.889   .     S
Cu178  N185    1.975   .     S
Cu178  N186    1.871   .     S
N187   C627    1.391   .     S
N188   C932    1.456   .     S
N190   C497    1.544   .     S
F191   B1138   1.417   .     S
F192   B1138   1.411   .     S
F193   B1142   1.414   .     S
F194   B1142   1.412   .     S
C195   C196    1.383   .     D
C195   C200    1.399   .     S
C195   C448    1.415   .     S
C196   C197    1.390   .     S
C196   H257    1.140   .     S
C197   C198    1.398   .     D
C197   H258    1.140   .     S
C198   C199    1.392   .     S
C198   C460    1.486   .     S
C199   C200    1.405   .     D
C199   H259    1.140   .     S
C200   H260    1.140   .     S
C201   C202    1.394   .     D
C201   C206    1.415   1_565 S
C201   N613    1.391   1_565 S
C202   C203    1.396   .     S
C202   H261    1.140   .     S
C203   C204    1.352   .     D
C203   H262    1.140   .     S
C204   C205    1.444   .     S
C204   C207    1.498   .     S
C205   C206    1.414   1_565 D
C205   H263    1.140   1_565 S
C206   C205    1.414   1_545 D
C206   C201    1.415   1_545 S
C206   H264    1.140   .     S
C207   C208    1.396   .     D
C207   C212    1.390   .     S
C208   C209    1.407   .     S
C208   H265    1.140   .     S
C209   C210    1.403   .     D
C209   H266    1.140   .     S
C210   C211    1.394   .     S
C211   C212    1.392   .     D
C211   H267    1.140   .     S
C212   H268    1.140   .     S
C213   C214    1.362   .     D
C213   C218    1.389   .     S
C213   N474    1.544   .     S
C214   C215    1.411   .     S
C214   H269    1.140   .     S
C215   C216    1.396   .     D
C215   H270    1.140   .     S
C216   C217    1.402   .     S
C216   C219    1.356   .     S
C217   C218    1.413   .     D
C217   H271    1.140   .     S
C218   H272    1.140   .     S
C219   C220    1.386   .     D
C219   C224    1.426   .     S
C220   C221    1.373   .     S
C220   H273    1.140   .     S
C221   C222    1.379   .     D
C221   H274    1.140   .     S
C222   C223    1.419   .     S
C222   N898    1.456   .     S
C223   C224    1.437   .     D
C223   H275    1.140   .     S
C224   H276    1.140   .     S
C225   C226    1.377   .     D
C225   C230    1.419   .     S
C226   C227    1.380   .     S
C226   H277    1.140   .     S
C227   C228    1.392   .     D
C227   H278    1.140   .     S
C228   C229    1.408   .     S
C229   C230    1.421   .     D
C229   H279    1.140   .     S
C230   H280    1.140   .     S
C231   C232    1.398   .     D
C231   C236    1.396   .     S
C232   C233    1.415   .     S
C232   H281    1.140   .     S
C233   C234    1.422   .     D
C233   H282    1.140   .     S
C234   C235    1.406   .     S
C235   C236    1.402   .     D
C235   H283    1.140   .     S
C236   H284    1.140   .     S
H251   C168    1.140   1_556 S
H254   C172    1.140   1_556 S
H263   C205    1.140   1_545 S
B285   F321    1.416   .     S
B285   F322    1.418   .     S
B285   F323    1.418   .     S
B285   F324    1.409   .     S
C286   C287    1.407   .     S
C286   N325    1.410   1_455 D
C286   C376    1.530   .     S
C287   C288    1.383   1_455 D
C287   H379    1.140   .     S
C288   C287    1.383   1_655 D
C288   C289    1.388   .     S
C288   H380    1.140   .     S
C289   C290    1.399   .     D
C289   C297    1.415   .     S
C290   C291    1.391   .     S
C290   H381    1.140   .     S
C291   C292    1.398   .     D
C291   H382    1.140   .     S
C292   C293    1.397   .     S
C292   C296    1.412   .     S
C293   C294    1.392   .     D
C293   H383    1.140   .     S
C294   C295    1.405   .     S
C294   H384    1.140   .     S
C295   C299    1.496   1_545 S
C295   N326    1.383   .     D
C296   C297    1.442   .     D
C296   N326    1.369   .     S
C297   N325    1.386   .     S
C298   N329    1.303   .     D
C298   C373    1.495   .     S
C298   H385    1.140   .     S
C299   C295    1.496   1_565 S
C299   C300    1.406   .     S
C299   C304    1.411   1_565 D
C300   C301    1.425   .     D
C300   H386    1.140   .     S
C301   C302    1.407   1_556 S
C301   H387    1.140   .     S
C302   C301    1.407   1_554 S
C302   C303    1.402   .     D
C302   C305    1.521   .     S
C303   C304    1.410   1_564 S
C303   H388    1.140   1_565 S
C304   C299    1.411   1_545 D
C304   C303    1.410   1_546 S
C304   H389    1.140   .     S
C305   N330    1.312   .     D
C305   H390    1.140   .     S
C306   C307    1.396   .     S
C306   N327    1.395   .     D
C307   C308    1.368   .     D
C307   H391    1.140   .     S
C308   C309    1.349   .     S
C308   H392    1.140   .     S
C309   C310    1.382   .     S
C309   C317    1.419   .     D
C310   C311    1.376   1_556 D
C310   H393    1.140   1_556 S
C311   C310    1.376   1_554 D
C311   C312    1.401   1_554 S
C311   H394    1.140   .     S
C312   C311    1.401   1_556 S
C312   C313    1.390   1_566 D
C312   C316    1.399   .     S
C313   C312    1.390   1_544 D
C313   C314    1.393   1_554 S
C313   H395    1.140   .     S
C314   C313    1.393   1_556 S
C314   C315    1.395   .     D
C314   H396    1.140   1_556 S
C315   N328    1.382   .     S
C315   C367    1.511   .     S
C316   C317    1.438   .     S
C316   N328    1.372   1_565 D
C317   N327    1.337   .     S
C318   N331    1.299   .     D
C318   H397    1.140   .     S
C319   N332    1.308   .     D
C319   C370    1.489   .     S
C319   H398    1.140   .     S
Cu320  N325    2.032   1_565 S
Cu320  N326    1.889   1_565 S
Cu320  N327    1.975   .     S
Cu320  N328    1.871   1_565 S
N325   C286    1.410   1_655 D
N325   Cu320   2.032   1_545 S
N326   Cu320   1.889   1_545 S
N328   C316    1.372   1_545 D
N328   Cu320   1.871   1_545 S
N329   C1053   1.391   1_545 S
N330   C790    1.456   .     S
N331   C494    1.438   .     S
F333   B1137   1.417   .     S
F334   B1137   1.411   .     S
F335   B1141   1.414   .     S
F336   B1141   1.412   .     S
C337   C338    1.383   .     D
C337   C342    1.399   1_455 S
C338   C339    1.390   .     S
C338   H399    1.140   .     S
C339   C340    1.398   1_455 D
C339   H400    1.140   .     S
C340   C339    1.398   1_655 D
C340   C341    1.392   .     S
C341   C342    1.405   .     D
C341   H401    1.140   .     S
C342   C337    1.399   1_655 S
C342   H402    1.140   .     S
C343   C344    1.394   .     D
C343   C348    1.415   .     S
C343   N1039   1.391   .     S
C344   C345    1.396   .     S
C344   H403    1.140   .     S
C345   C346    1.352   .     D
C345   H404    1.140   .     S
C346   C347    1.444   .     S
C346   C349    1.498   .     S
C347   C348    1.414   .     D
C347   H405    1.140   .     S
C348   H406    1.140   .     S
C349   C350    1.396   .     D
C349   C354    1.390   .     S
C350   C351    1.407   .     S
C350   H407    1.140   .     S
C351   C352    1.403   .     D
C351   H408    1.140   .     S
C352   C353    1.394   .     S
C352   N473    1.438   .     S
C353   C354    1.392   .     D
C353   H409    1.140   .     S
C354   H410    1.140   .     S
C355   C356    1.362   .     D
C355   C360    1.389   1_455 S
C356   C357    1.411   .     S
C356   H411    1.140   .     S
C357   C358    1.396   1_455 D
C357   H412    1.140   .     S
C358   C357    1.396   1_655 D
C358   C359    1.402   .     S
C358   C361    1.356   .     S
C359   C360    1.413   .     D
C359   H413    1.140   .     S
C360   C355    1.389   1_655 S
C360   H414    1.140   .     S
C361   C362    1.386   .     D
C361   C366    1.426   .     S
C362   C363    1.373   .     S
C362   H415    1.140   .     S
C363   C364    1.379   .     D
C363   H416    1.140   .     S
C364   C365    1.419   .     S
C364   N756    1.456   .     S
C365   C366    1.437   .     D
C365   H417    1.140   .     S
C366   H418    1.140   .     S
C367   C368    1.377   .     D
C367   C372    1.419   .     S
C368   C369    1.380   .     S
C368   H419    1.140   .     S
C369   C370    1.392   .     D
C369   H420    1.140   .     S
C370   C371    1.408   .     S
C371   C372    1.421   .     D
C371   H421    1.140   .     S
C372   H422    1.140   .     S
C373   C374    1.398   .     D
C373   C378    1.396   .     S
C374   C375    1.415   .     S
C374   H423    1.140   .     S
C375   C376    1.422   .     D
C375   H424    1.140   .     S
C376   C377    1.406   .     S
C377   C378    1.402   .     D
C377   H425    1.140   .     S
C378   H426    1.140   .     S
H388   C303    1.140   1_545 S
H393   C310    1.140   1_554 S
H396   C314    1.140   1_554 S
B427   F463    1.416   .     S
B427   F464    1.418   .     S
B427   F465    1.418   .     S
B427   F466    1.409   .     S
C428   C429    1.407   .     D
C428   N467    1.410   .     S
C428   C518    1.530   .     S
C429   C430    1.383   .     S
C429   H521    1.140   .     S
C430   C431    1.388   .     D
C430   H522    1.140   .     S
C431   C432    1.399   .     S
C431   C439    1.415   .     S
C432   C433    1.391   .     D
C432   H523    1.140   .     S
C433   C434    1.398   .     S
C433   H524    1.140   .     S
C434   C435    1.397   .     S
C434   C438    1.412   .     D
C435   C436    1.392   .     D
C435   H525    1.140   .     S
C436   C437    1.405   .     S
C436   H526    1.140   .     S
C437   C441    1.496   .     S
C437   N468    1.383   .     D
C438   C439    1.442   .     S
C438   N468    1.369   .     S
C439   N467    1.386   .     D
C440   N471    1.303   .     D
C440   C515    1.495   .     S
C440   H527    1.140   .     S
C441   C442    1.406   .     D
C441   C446    1.411   .     S
C442   C443    1.425   .     S
C442   H528    1.140   .     S
C443   C444    1.407   1_556 D
C443   H529    1.140   .     S
C444   C443    1.407   1_554 D
C444   C445    1.402   .     S
C444   C447    1.521   .     S
C445   C446    1.410   1_554 D
C445   H530    1.140   .     S
C446   C445    1.410   1_556 D
C446   H531    1.140   .     S
C447   N472    1.312   .     D
C447   H532    1.140   .     S
C448   C449    1.396   .     D
C448   N469    1.395   .     S
C449   C450    1.368   .     S
C449   H533    1.140   .     S
C450   C451    1.349   .     D
C450   H534    1.140   .     S
C451   C452    1.382   .     S
C451   C459    1.419   .     S
C452   C453    1.376   1_556 D
C452   H535    1.140   1_556 S
C453   C452    1.376   1_554 D
C453   C454    1.401   1_554 S
C453   H536    1.140   .     S
C454   C453    1.401   1_556 S
C454   C455    1.390   1_556 S
C454   C458    1.399   .     D
C455   C454    1.390   1_554 S
C455   C456    1.393   1_554 D
C455   H537    1.140   .     S
C456   C455    1.393   1_556 D
C456   C457    1.395   .     S
C456   H538    1.140   1_556 S
C457   N470    1.382   .     D
C457   C509    1.511   .     S
C458   C459    1.438   .     S
C458   N470    1.372   .     S
C459   N469    1.337   .     D
C460   N473    1.299   .     D
C460   H539    1.140   .     S
C461   N474    1.308   .     D
C461   C512    1.489   .     S
C461   H540    1.140   .     S
Cu462  N467    2.032   .     S
Cu462  N468    1.889   .     S
Cu462  N469    1.975   .     S
Cu462  N470    1.871   .     S
N471   C911    1.391   .     S
N472   C648    1.456   .     S
F475   B1138   1.417   .     S
F476   B1138   1.411   .     S
F477   B1142   1.414   .     S
F478   B1142   1.412   .     S
C479   C480    1.383   .     D
C479   C484    1.399   .     S
C480   C481    1.390   .     S
C480   H541    1.140   .     S
C481   C482    1.398   .     D
C481   H542    1.140   .     S
C482   C483    1.392   .     S
C483   C484    1.405   .     D
C483   H543    1.140   .     S
C484   H544    1.140   .     S
C485   C486    1.394   .     D
C485   C490    1.415   1_565 S
C485   N897    1.391   1_565 S
C486   C487    1.396   .     S
C486   H545    1.140   .     S
C487   C488    1.352   .     D
C487   H546    1.140   .     S
C488   C489    1.444   .     S
C488   C491    1.498   .     S
C489   C490    1.414   1_565 D
C489   H547    1.140   1_565 S
C490   C489    1.414   1_545 D
C490   C485    1.415   1_545 S
C490   H548    1.140   .     S
C491   C492    1.396   .     D
C491   C496    1.390   .     S
C492   C493    1.407   .     S
C492   H549    1.140   .     S
C493   C494    1.403   .     D
C493   H550    1.140   .     S
C494   C495    1.394   .     S
C495   C496    1.392   .     D
C495   H551    1.140   .     S
C496   H552    1.140   .     S
C497   C498    1.362   .     D
C497   C502    1.389   .     S
C498   C499    1.411   .     S
C498   H553    1.140   .     S
C499   C500    1.396   .     D
C499   H554    1.140   .     S
C500   C501    1.402   .     S
C500   C503    1.356   .     S
C501   C502    1.413   .     D
C501   H555    1.140   .     S
C502   H556    1.140   .     S
C503   C504    1.386   .     D
C503   C508    1.426   .     S
C504   C505    1.373   .     S
C504   H557    1.140   .     S
C505   C506    1.379   .     D
C505   H558    1.140   .     S
C506   C507    1.419   .     S
C506   N614    1.456   .     S
C507   C508    1.437   .     D
C507   H559    1.140   .     S
C508   H560    1.140   .     S
C509   C510    1.377   .     D
C509   C514    1.419   .     S
C510   C511    1.380   .     S
C510   H561    1.140   .     S
C511   C512    1.392   .     D
C511   H562    1.140   .     S
C512   C513    1.408   .     S
C513   C514    1.421   .     D
C513   H563    1.140   .     S
C514   H564    1.140   .     S
C515   C516    1.398   .     D
C515   C520    1.396   .     S
C516   C517    1.415   .     S
C516   H565    1.140   .     S
C517   C518    1.422   .     D
C517   H566    1.140   .     S
C518   C519    1.406   .     S
C519   C520    1.402   .     D
C519   H567    1.140   .     S
C520   H568    1.140   .     S
H535   C452    1.140   1_554 S
H538   C456    1.140   1_554 S
H547   C489    1.140   1_545 S
B569   F605    1.416   .     S
B569   F606    1.418   .     S
B569   F607    1.418   .     S
B569   F608    1.409   .     S
C570   C571    1.407   .     S
C570   N609    1.410   .     D
C570   C660    1.530   .     S
C571   C572    1.383   .     D
C571   H663    1.140   .     S
C572   C573    1.388   .     S
C572   H664    1.140   .     S
C573   C574    1.399   .     S
C573   C581    1.415   .     D
C574   C575    1.391   .     D
C574   H665    1.140   .     S
C575   C576    1.398   .     S
C575   H666    1.140   .     S
C576   C577    1.397   .     D
C576   C580    1.412   .     S
C577   C578    1.392   .     S
C577   H667    1.140   .     S
C578   C579    1.405   .     D
C578   H668    1.140   .     S
C579   C583    1.496   1_545 S
C579   N610    1.383   .     S
C580   C581    1.442   .     S
C580   N610    1.369   .     D
C581   N609    1.386   .     S
C582   N613    1.303   .     D
C582   C657    1.495   .     S
C582   H669    1.140   .     S
C583   C579    1.496   1_565 S
C583   C584    1.406   .     D
C583   C588    1.411   1_565 S
C584   C585    1.425   .     S
C584   H670    1.140   .     S
C585   C586    1.407   .     D
C585   H671    1.140   .     S
C586   C587    1.402   .     S
C586   C589    1.521   .     S
C587   C588    1.410   1_565 D
C587   H672    1.140   1_565 S
C588   C587    1.410   1_545 D
C588   C583    1.411   1_545 S
C588   H673    1.140   .     S
C589   N614    1.312   .     D
C589   H674    1.140   .     S
C590   C591    1.396   .     D
C590   N611    1.395   .     S
C590   C905    1.415   .     S
C591   C592    1.368   .     S
C591   H675    1.140   .     S
C592   C593    1.349   .     D
C592   H676    1.140   .     S
C593   C594    1.382   .     S
C593   C601    1.419   .     S
C594   C595    1.376   .     D
C594   H677    1.140   .     S
C595   C596    1.401   .     S
C595   H678    1.140   .     S
C596   C597    1.390   1_565 S
C596   C600    1.399   .     D
C597   C596    1.390   1_545 S
C597   C598    1.393   .     D
C597   H679    1.140   .     S
C598   C599    1.395   .     S
C598   H680    1.140   .     S
C599   N612    1.382   .     D
C599   C651    1.511   .     S
C600   C601    1.438   .     S
C600   N612    1.372   1_565 S
C601   N611    1.337   .     D
C602   N615    1.299   .     D
C602   H681    1.140   .     S
C602   C908    1.486   .     S
C603   N616    1.308   .     D
C603   C654    1.489   .     S
C603   H682    1.140   .     S
Cu604  N609    2.032   1_565 S
Cu604  N610    1.889   1_565 S
Cu604  N611    1.975   .     S
Cu604  N612    1.871   1_565 S
N609   Cu604   2.032   1_545 S
N610   Cu604   1.889   1_545 S
N612   C600    1.372   1_545 S
N612   Cu604   1.871   1_545 S
N613   C201    1.391   1_545 S
N615   C778    1.438   .     S
N616   C923    1.544   .     S
F617   B1139   1.417   .     S
F618   B1139   1.411   .     S
F619   B1143   1.414   .     S
F620   B1143   1.412   .     S
C621   C622    1.383   .     D
C621   C626    1.399   .     S
C621   C874    1.415   .     S
C622   C623    1.390   .     S
C622   H683    1.140   .     S
C623   C624    1.398   .     D
C623   H684    1.140   .     S
C624   C625    1.392   .     S
C624   C886    1.486   .     S
C625   C626    1.405   .     D
C625   H685    1.140   .     S
C626   H686    1.140   .     S
C627   C628    1.394   .     D
C627   C632    1.415   .     S
C628   C629    1.396   .     S
C628   H687    1.140   .     S
C629   C630    1.352   1_554 D
C629   H688    1.140   .     S
C630   C629    1.352   1_556 D
C630   C631    1.444   .     S
C630   C633    1.498   .     S
C631   C632    1.414   1_556 D
C631   H689    1.140   .     S
C632   C631    1.414   1_554 D
C632   H690    1.140   .     S
C633   C634    1.396   .     D
C633   C638    1.390   .     S
C634   C635    1.407   .     S
C634   H691    1.140   .     S
C635   C636    1.403   .     D
C635   H692    1.140   .     S
C636   C637    1.394   .     S
C636   N757    1.438   .     S
C637   C638    1.392   .     D
C637   H693    1.140   .     S
C638   H694    1.140   .     S
C639   C640    1.362   .     D
C639   C644    1.389   .     S
C639   N900    1.544   .     S
C640   C641    1.411   .     S
C640   H695    1.140   .     S
C641   C642    1.396   .     D
C641   H696    1.140   .     S
C642   C643    1.402   .     S
C642   C645    1.356   .     S
C643   C644    1.413   .     D
C643   H697    1.140   .     S
C644   H698    1.140   .     S
C645   C646    1.386   .     D
C645   C650    1.426   .     S
C646   C647    1.373   .     S
C646   H699    1.140   .     S
C647   C648    1.379   .     D
C647   H700    1.140   .     S
C648   C649    1.419   .     S
C649   C650    1.437   .     D
C649   H701    1.140   .     S
C650   H702    1.140   .     S
C651   C652    1.377   .     D
C651   C656    1.419   .     S
C652   C653    1.380   .     S
C652   H703    1.140   .     S
C653   C654    1.392   .     D
C653   H704    1.140   .     S
C654   C655    1.408   .     S
C655   C656    1.421   .     D
C655   H705    1.140   .     S
C656   H706    1.140   .     S
C657   C658    1.398   .     D
C657   C662    1.396   .     S
C658   C659    1.415   .     S
C658   H707    1.140   .     S
C659   C660    1.422   .     D
C659   H708    1.140   .     S
C660   C661    1.406   .     S
C661   C662    1.402   .     D
C661   H709    1.140   .     S
C662   H710    1.140   .     S
H672   C587    1.140   1_545 S
B711   F747    1.416   .     S
B711   F748    1.418   .     S
B711   F749    1.418   .     S
B711   F750    1.409   .     S
C712   C713    1.407   .     D
C712   N751    1.410   1_455 S
C712   C802    1.530   .     S
C713   C714    1.383   1_455 S
C713   H805    1.140   .     S
C714   C713    1.383   1_655 S
C714   C715    1.388   .     D
C714   H806    1.140   .     S
C715   C716    1.399   .     S
C715   C723    1.415   .     S
C716   C717    1.391   .     D
C716   H807    1.140   .     S
C717   C718    1.398   .     S
C717   H808    1.140   .     S
C718   C719    1.397   .     S
C718   C722    1.412   .     D
C719   C720    1.392   .     D
C719   H809    1.140   .     S
C720   C721    1.405   .     S
C720   H810    1.140   .     S
C721   C725    1.496   .     S
C721   N752    1.383   .     D
C722   C723    1.442   .     S
C722   N752    1.369   .     S
C723   N751    1.386   .     D
C724   N755    1.303   .     D
C724   C799    1.495   .     S
C724   H811    1.140   .     S
C725   C726    1.406   .     D
C725   C730    1.411   .     S
C726   C727    1.425   .     S
C726   H812    1.140   .     S
C727   C728    1.407   .     D
C727   H813    1.140   .     S
C728   C729    1.402   .     S
C728   C731    1.521   .     S
C729   C730    1.410   .     D
C729   H814    1.140   .     S
C730   H815    1.140   .     S
C731   N756    1.312   .     D
C731   H816    1.140   .     S
C732   C733    1.396   .     S
C732   N753    1.395   .     D
C732   C1047   1.415   .     S
C733   C734    1.368   .     D
C733   H817    1.140   .     S
C734   C735    1.349   .     S
C734   H818    1.140   .     S
C735   C736    1.382   .     D
C735   C743    1.419   .     S
C736   C737    1.376   .     S
C736   H819    1.140   .     S
C737   C738    1.401   .     D
C737   H820    1.140   .     S
C738   C739    1.390   .     S
C738   C742    1.399   .     S
C739   C740    1.393   .     D
C739   H821    1.140   .     S
C740   C741    1.395   .     S
C740   H822    1.140   .     S
C741   N754    1.382   .     D
C741   C793    1.511   .     S
C742   C743    1.438   .     D
C742   N754    1.372   .     S
C743   N753    1.337   .     S
C744   N757    1.299   .     D
C744   H823    1.140   .     S
C744   C1050   1.486   .     S
C745   N758    1.308   .     D
C745   C796    1.489   .     S
C745   H824    1.140   .     S
Cu746  N751    2.032   .     S
Cu746  N752    1.889   .     S
Cu746  N753    1.975   .     S
Cu746  N754    1.871   .     S
N751   C712    1.410   1_655 S
N758   C1065   1.544   .     S
F759   B1140   1.417   .     S
F760   B1140   1.411   .     S
F761   B1144   1.414   .     S
F762   B1144   1.412   .     S
C763   C764    1.383   .     D
C763   C768    1.399   1_455 S
C763   C1016   1.415   .     S
C764   C765    1.390   .     S
C764   H825    1.140   .     S
C765   C766    1.398   1_455 D
C765   H826    1.140   .     S
C766   C765    1.398   1_655 D
C766   C767    1.392   .     S
C766   C1028   1.486   .     S
C767   C768    1.405   .     D
C767   H827    1.140   .     S
C768   C763    1.399   1_655 S
C768   H828    1.140   .     S
C769   N45     1.391   1_565 S
C769   C770    1.394   .     D
C769   C774    1.415   1_565 S
C770   C771    1.396   .     S
C770   H829    1.140   .     S
C771   C772    1.352   1_554 D
C771   H830    1.140   .     S
C772   C771    1.352   1_556 D
C772   C773    1.444   .     S
C772   C775    1.498   .     S
C773   C774    1.414   1_566 D
C773   H831    1.140   1_565 S
C774   C769    1.415   1_545 S
C774   C773    1.414   1_544 D
C774   H832    1.140   .     S
C775   C776    1.396   .     D
C775   C780    1.390   .     S
C776   C777    1.407   .     S
C776   H833    1.140   .     S
C777   C778    1.403   .     D
C777   H834    1.140   .     S
C778   C779    1.394   .     S
C779   C780    1.392   .     D
C779   H835    1.140   .     S
C780   H836    1.140   .     S
C781   C782    1.362   .     S
C781   C786    1.389   1_455 D
C781   N1042   1.544   .     S
C782   C783    1.411   .     D
C782   H837    1.140   .     S
C783   C784    1.396   1_455 S
C783   H838    1.140   .     S
C784   C783    1.396   1_655 S
C784   C785    1.402   .     D
C784   C787    1.356   .     S
C785   C786    1.413   .     S
C785   H839    1.140   .     S
C786   C781    1.389   1_655 D
C786   H840    1.140   .     S
C787   C788    1.386   .     S
C787   C792    1.426   .     D
C788   C789    1.373   .     D
C788   H841    1.140   .     S
C789   C790    1.379   .     S
C789   H842    1.140   .     S
C790   C791    1.419   .     D
C791   C792    1.437   .     S
C791   H843    1.140   .     S
C792   H844    1.140   .     S
C793   C794    1.377   .     S
C793   C798    1.419   .     D
C794   C795    1.380   .     D
C794   H845    1.140   .     S
C795   C796    1.392   .     S
C795   H846    1.140   .     S
C796   C797    1.408   .     D
C797   C798    1.421   .     S
C797   H847    1.140   .     S
C798   H848    1.140   .     S
C799   C800    1.398   .     S
C799   C804    1.396   .     D
C800   C801    1.415   .     D
C800   H849    1.140   .     S
C801   C802    1.422   .     S
C801   H850    1.140   .     S
C802   C803    1.406   .     D
C803   C804    1.402   .     S
C803   H851    1.140   .     S
C804   H852    1.140   .     S
H831   C773    1.140   1_545 S
B853   F889    1.416   .     S
B853   F890    1.418   .     S
B853   F891    1.418   .     S
B853   F892    1.409   .     S
C854   C855    1.407   .     S
C854   N893    1.410   .     D
C854   C944    1.530   .     S
C855   C856    1.383   .     D
C855   H947    1.140   .     S
C856   C857    1.388   .     S
C856   H948    1.140   .     S
C857   C858    1.399   .     S
C857   C865    1.415   .     D
C858   C859    1.391   .     D
C858   H949    1.140   .     S
C859   C860    1.398   .     S
C859   H950    1.140   .     S
C860   C861    1.397   .     D
C860   C864    1.412   .     S
C861   C862    1.392   .     S
C861   H951    1.140   .     S
C862   C863    1.405   .     D
C862   H952    1.140   .     S
C863   C867    1.496   1_545 S
C863   N894    1.383   .     S
C864   C865    1.442   .     S
C864   N894    1.369   .     D
C865   N893    1.386   .     S
C866   N897    1.303   .     D
C866   C941    1.495   .     S
C866   H953    1.140   .     S
C867   C863    1.496   1_565 S
C867   C868    1.406   .     D
C867   C872    1.411   1_565 S
C868   C869    1.425   .     S
C868   H954    1.140   .     S
C869   C870    1.407   .     D
C869   H955    1.140   .     S
C870   C871    1.402   .     S
C870   C873    1.521   .     S
C871   C872    1.410   1_565 D
C871   H956    1.140   1_565 S
C872   C871    1.410   1_545 D
C872   C867    1.411   1_545 S
C872   H957    1.140   .     S
C873   N898    1.312   .     D
C873   H958    1.140   .     S
C874   C875    1.396   .     D
C874   N895    1.395   .     S
C875   C876    1.368   .     S
C875   H959    1.140   .     S
C876   C877    1.349   .     D
C876   H960    1.140   .     S
C877   C878    1.382   .     S
C877   C885    1.419   .     S
C878   C879    1.376   .     D
C878   H961    1.140   .     S
C879   C880    1.401   .     S
C879   H962    1.140   .     S
C880   C881    1.390   1_565 S
C880   C884    1.399   .     D
C881   C880    1.390   1_545 S
C881   C882    1.393   .     D
C881   H963    1.140   .     S
C882   C883    1.395   .     S
C882   H964    1.140   .     S
C883   N896    1.382   .     D
C883   C935    1.511   .     S
C884   C885    1.438   .     S
C884   N896    1.372   1_565 S
C885   N895    1.337   .     D
C886   N899    1.299   .     D
C886   H965    1.140   .     S
C887   N900    1.308   .     D
C887   C938    1.489   .     S
C887   H966    1.140   .     S
Cu888  N893    2.032   1_565 S
Cu888  N894    1.889   1_565 S
Cu888  N895    1.975   .     S
Cu888  N896    1.871   1_565 S
N893   Cu888   2.032   1_545 S
N894   Cu888   1.889   1_545 S
N896   C884    1.372   1_545 S
N896   Cu888   1.871   1_545 S
N897   C485    1.391   1_545 S
N899   C1062   1.438   .     S
F901   B1139   1.417   .     S
F902   B1139   1.411   .     S
F903   B1143   1.414   .     S
F904   B1143   1.412   .     S
C905   C906    1.383   .     D
C905   C910    1.399   .     S
C906   C907    1.390   .     S
C906   H967    1.140   .     S
C907   C908    1.398   .     D
C907   H968    1.140   .     S
C908   C909    1.392   .     S
C909   C910    1.405   .     D
C909   H969    1.140   .     S
C910   H970    1.140   .     S
C911   C912    1.394   .     D
C911   C916    1.415   .     S
C912   C913    1.396   .     S
C912   H971    1.140   .     S
C913   C914    1.352   1_556 D
C913   H972    1.140   .     S
C914   C913    1.352   1_554 D
C914   C915    1.444   .     S
C914   C917    1.498   .     S
C915   C916    1.414   1_554 D
C915   H973    1.140   .     S
C916   C915    1.414   1_556 D
C916   H974    1.140   .     S
C917   C918    1.396   .     D
C917   C922    1.390   .     S
C918   C919    1.407   .     S
C918   H975    1.140   .     S
C919   C920    1.403   .     D
C919   H976    1.140   .     S
C920   C921    1.394   .     S
C920   N1041   1.438   .     S
C921   C922    1.392   .     D
C921   H977    1.140   .     S
C922   H978    1.140   .     S
C923   C924    1.362   .     D
C923   C928    1.389   .     S
C924   C925    1.411   .     S
C924   H979    1.140   .     S
C925   C926    1.396   .     D
C925   H980    1.140   .     S
C926   C927    1.402   .     S
C926   C929    1.356   .     S
C927   C928    1.413   .     D
C927   H981    1.140   .     S
C928   H982    1.140   .     S
C929   C930    1.386   .     D
C929   C934    1.426   .     S
C930   C931    1.373   .     S
C930   H983    1.140   .     S
C931   C932    1.379   .     D
C931   H984    1.140   .     S
C932   C933    1.419   .     S
C933   C934    1.437   .     D
C933   H985    1.140   .     S
C934   H986    1.140   .     S
C935   C936    1.377   .     D
C935   C940    1.419   .     S
C936   C937    1.380   .     S
C936   H987    1.140   .     S
C937   C938    1.392   .     D
C937   H988    1.140   .     S
C938   C939    1.408   .     S
C939   C940    1.421   .     D
C939   H989    1.140   .     S
C940   H990    1.140   .     S
C941   C942    1.398   .     D
C941   C946    1.396   .     S
C942   C943    1.415   .     S
C942   H991    1.140   .     S
C943   C944    1.422   .     D
C943   H992    1.140   .     S
C944   C945    1.406   .     S
C945   C946    1.402   .     D
C945   H993    1.140   .     S
C946   H994    1.140   .     S
H956   C871    1.140   1_545 S
B995   F1031   1.416   .     S
B995   F1032   1.418   .     S
B995   F1033   1.418   .     S
B995   F1034   1.409   .     S
C996   C997    1.407   .     D
C996   N1035   1.410   1_655 S
C996   C1086   1.530   .     S
C997   C998    1.383   1_655 S
C997   H1089   1.140   .     S
C998   C997    1.383   1_455 S
C998   C999    1.388   .     D
C998   H1090   1.140   .     S
C999   C1000   1.399   .     S
C999   C1007   1.415   .     S
C1000  C1001   1.391   .     D
C1000  H1091   1.140   .     S
C1001  C1002   1.398   .     S
C1001  H1092   1.140   .     S
C1002  C1003   1.397   .     S
C1002  C1006   1.412   .     D
C1003  C1004   1.392   .     D
C1003  H1093   1.140   .     S
C1004  C1005   1.405   .     S
C1004  H1094   1.140   .     S
C1005  C1009   1.496   .     S
C1005  N1036   1.383   .     D
C1006  C1007   1.442   .     S
C1006  N1036   1.369   .     S
C1007  N1035   1.386   .     D
C1008  N1039   1.303   .     D
C1008  C1083   1.495   .     S
C1008  H1095   1.140   .     S
C1009  C1010   1.406   .     D
C1009  C1014   1.411   .     S
C1010  C1011   1.425   .     S
C1010  H1096   1.140   .     S
C1011  C1012   1.407   .     D
C1011  H1097   1.140   .     S
C1012  C1013   1.402   .     S
C1012  C1015   1.521   .     S
C1013  C1014   1.410   .     D
C1013  H1098   1.140   .     S
C1014  H1099   1.140   .     S
C1015  N1040   1.312   .     D
C1015  H1100   1.140   .     S
C1016  C1017   1.396   .     S
C1016  N1037   1.395   .     D
C1017  C1018   1.368   .     D
C1017  H1101   1.140   .     S
C1018  C1019   1.349   .     S
C1018  H1102   1.140   .     S
C1019  C1020   1.382   .     S
C1019  C1027   1.419   .     D
C1020  C1021   1.376   .     D
C1020  H1103   1.140   .     S
C1021  C1022   1.401   .     S
C1021  H1104   1.140   .     S
C1022  C1023   1.390   .     S
C1022  C1026   1.399   .     D
C1023  C1024   1.393   .     D
C1023  H1105   1.140   .     S
C1024  C1025   1.395   .     S
C1024  H1106   1.140   .     S
C1025  N1038   1.382   .     D
C1025  C1077   1.511   .     S
C1026  C1027   1.438   .     S
C1026  N1038   1.372   .     S
C1027  N1037   1.337   .     S
C1028  N1041   1.299   .     D
C1028  H1107   1.140   .     S
C1029  N1042   1.308   .     D
C1029  C1080   1.489   .     S
C1029  H1108   1.140   .     S
Cu103  N1035   2.032   .     S
Cu103  N1036   1.889   .     S
Cu103  N1037   1.975   .     S
Cu103  N1038   1.871   .     S
N1035  C996    1.410   1_455 S
F1043  B1140   1.417   .     S
F1044  B1140   1.411   .     S
F1045  B1144   1.414   .     S
F1046  B1144   1.412   .     S
C1047  C1048   1.383   .     D
C1047  C1052   1.399   1_655 S
C1048  C1049   1.390   .     S
C1048  H1109   1.140   .     S
C1049  C1050   1.398   1_655 D
C1049  H1110   1.140   .     S
C1050  C1049   1.398   1_455 D
C1050  C1051   1.392   .     S
C1051  C1052   1.405   .     D
C1051  H1111   1.140   .     S
C1052  C1047   1.399   1_455 S
C1052  H1112   1.140   .     S
C1053  N329    1.391   1_565 S
C1053  C1054   1.394   .     D
C1053  C1058   1.415   1_565 S
C1054  C1055   1.396   .     S
C1054  H1113   1.140   .     S
C1055  C1056   1.352   1_556 D
C1055  H1114   1.140   .     S
C1056  C1055   1.352   1_554 D
C1056  C1057   1.444   .     S
C1056  C1059   1.498   .     S
C1057  C1058   1.414   1_564 D
C1057  H1115   1.140   1_565 S
C1058  C1053   1.415   1_545 S
C1058  C1057   1.414   1_546 D
C1058  H1116   1.140   .     S
C1059  C1060   1.396   .     D
C1059  C1064   1.390   .     S
C1060  C1061   1.407   .     S
C1060  H1117   1.140   .     S
C1061  C1062   1.403   .     D
C1061  H1118   1.140   .     S
C1062  C1063   1.394   .     S
C1063  C1064   1.392   .     D
C1063  H1119   1.140   .     S
C1064  H1120   1.140   .     S
C1065  C1066   1.362   .     S
C1065  C1070   1.389   1_655 D
C1066  C1067   1.411   .     D
C1066  H1121   1.140   .     S
C1067  C1068   1.396   1_655 S
C1067  H1122   1.140   .     S
C1068  C1067   1.396   1_455 S
C1068  C1069   1.402   .     D
C1068  C1071   1.356   .     S
C1069  C1070   1.413   .     S
C1069  H1123   1.140   .     S
C1070  C1065   1.389   1_455 D
C1070  H1124   1.140   .     S
C1071  C1072   1.386   .     S
C1071  C1076   1.426   .     D
C1072  C1073   1.373   .     D
C1072  H1125   1.140   .     S
C1073  C1074   1.379   .     S
C1073  H1126   1.140   .     S
C1074  C1075   1.419   .     D
C1075  C1076   1.437   .     S
C1075  H1127   1.140   .     S
C1076  H1128   1.140   .     S
C1077  C1078   1.377   .     S
C1077  C1082   1.419   .     D
C1078  C1079   1.380   .     D
C1078  H1129   1.140   .     S
C1079  C1080   1.392   .     S
C1079  H1130   1.140   .     S
C1080  C1081   1.408   .     D
C1081  C1082   1.421   .     S
C1081  H1131   1.140   .     S
C1082  H1132   1.140   .     S
C1083  C1084   1.398   .     S
C1083  C1088   1.396   .     D
C1084  C1085   1.415   .     D
C1084  H1133   1.140   .     S
C1085  C1086   1.422   .     S
C1085  H1134   1.140   .     S
C1086  C1087   1.406   .     D
C1087  C1088   1.402   .     S
C1087  H1135   1.140   .     S
C1088  H1136   1.140   .     S
H1115  C1057   1.140   1_545 S
