data_125
_audit_creation_date              2023-09-08
_audit_creation_method            'Materials Studio'
_symmetry_space_group_name_H-M    'P1'
_symmetry_Int_Tables_number       1
_symmetry_cell_setting            triclinic
loop_
_symmetry_equiv_pos_as_xyz
  x,y,z
_cell_length_a                    27.8545
_cell_length_b                    22.8654
_cell_length_c                    34.4901
_cell_angle_alpha                 90.0000
_cell_angle_beta                  105.6260
_cell_angle_gamma                 90.0000
loop_
_atom_site_label
_atom_site_type_symbol
_atom_site_fract_x
_atom_site_fract_y
_atom_site_fract_z
_atom_site_U_iso_or_equiv
_atom_site_adp_type
_atom_site_occupancy
xx1    C     0.85139   0.42843   0.82877   0.00000  Uiso   1.00
xx2    C     0.83722   0.38976   0.79583   0.00000  Uiso   1.00
xx3    C     0.82053   0.41166   0.75659   0.00000  Uiso   1.00
xx4    C     0.81754   0.47209   0.74996   0.00000  Uiso   1.00
xx5    C     0.80010   0.49595   0.71112   0.00000  Uiso   1.00
xx6    C     0.79621   0.55684   0.70562   0.00000  Uiso   1.00
xx7    C     0.80929   0.59456   0.73894   0.00000  Uiso   1.00
xx8    C     0.80525   0.65571   0.73501   0.00000  Uiso   1.00
xx9    C     0.81841   0.69149   0.76939   0.00000  Uiso   1.00
xx10   C     0.83521   0.66561   0.80751   0.00000  Uiso   1.00
xx11   C     0.82681   0.57073   0.77769   0.00000  Uiso   1.00
xx12   C     0.83176   0.50954   0.78337   0.00000  Uiso   1.00
xx13   C     0.93400   0.33142   0.98679   0.00000  Uiso   1.00
xx14   C     0.84994   0.70040   0.84441   0.00000  Uiso   1.00
xx15   C     0.81603   0.70910   0.86733   0.00000  Uiso   1.00
xx16   C     0.83229   0.73230   0.90611   0.00000  Uiso   1.00
xx17   C     0.88277   0.74630   0.92258   0.00000  Uiso   1.00
xx18   C     0.91617   0.74021   0.89868   0.00000  Uiso   1.00
xx19   C     0.89978   0.71733   0.85980   0.00000  Uiso   1.00
xx20   C     0.90062   0.75906   0.96597   0.00000  Uiso   1.00
xx21   C     0.77877   0.54852   0.89662   0.00000  Uiso   1.00
xx22   C     0.76444   0.55844   0.93215   0.00000  Uiso   1.00
xx23   C     0.79897   0.58160   0.96608   0.00000  Uiso   1.00
xx24   C     0.84816   0.59242   0.96497   0.00000  Uiso   1.00
xx25   C     0.88544   0.60958   0.99933   0.00000  Uiso   1.00
xx26   C     0.93505   0.61536   0.99770   0.00000  Uiso   1.00
xx27   C     0.94783   0.60542   0.96151   0.00000  Uiso   1.00
xx28   C     0.99720   0.60873   0.95903   0.00000  Uiso   1.00
xx29   C     0.00859   0.59416   0.92300   0.00000  Uiso   1.00
xx30   C     0.97024   0.57752   0.88915   0.00000  Uiso   1.00
xx31   C     0.91048   0.58964   0.92686   0.00000  Uiso   1.00
xx32   C     0.86067   0.58294   0.92866   0.00000  Uiso   1.00
xx33   C     0.67050   0.39793   0.76962   0.00000  Uiso   1.00
xx34   C     0.99748   0.46623   0.74803   0.00000  Uiso   1.00
xx35   Cu    0.86006   0.55600   0.85517   0.00000  Uiso   1.00
xx36   N     0.84903   0.48715   0.82139   0.00000  Uiso   1.00
xx37   N     0.83853   0.60657   0.81022   0.00000  Uiso   1.00
xx38   N     0.82547   0.56369   0.89559   0.00000  Uiso   1.00
xx39   N     0.92250   0.57727   0.89196   0.00000  Uiso   1.00
xx40   N     0.93199   0.27279   0.99208   0.00000  Uiso   1.00
xx41   N     0.94806   0.75888   0.98403   0.00000  Uiso   1.00
xx42   N     0.65185   0.41512   0.73271   0.00000  Uiso   1.00
xx43   N     0.01387   0.41281   0.74959   0.00000  Uiso   1.00
xx44   C     0.95553   0.75842   0.52535   0.00000  Uiso   1.00
xx45   C     0.98297   0.73238   0.56158   0.00000  Uiso   1.00
xx46   C     0.00891   0.76637   0.59413   0.00000  Uiso   1.00
xx47   C     0.00910   0.82764   0.59203   0.00000  Uiso   1.00
xx48   C     0.98000   0.85662   0.55478   0.00000  Uiso   1.00
xx49   C     0.95332   0.82283   0.52266   0.00000  Uiso   1.00
xx50   C     0.03886   0.86253   0.62631   0.00000  Uiso   1.00
xx51   C     0.06728   0.91048   0.61975   0.00000  Uiso   1.00
xx52   C     0.09803   0.94079   0.65235   0.00000  Uiso   1.00
xx53   C     0.10102   0.92361   0.69190   0.00000  Uiso   1.00
xx54   C     0.07054   0.87753   0.69843   0.00000  Uiso   1.00
xx55   C     0.04014   0.84708   0.66596   0.00000  Uiso   1.00
xx56   C     0.98161   0.55261   0.85333   0.00000  Uiso   1.00
xx57   C     0.01321   0.50389   0.85745   0.00000  Uiso   1.00
xx58   C     0.01915   0.47562   0.82321   0.00000  Uiso   1.00
xx59   C     0.99393   0.49662   0.78485   0.00000  Uiso   1.00
xx60   C     0.96379   0.54673   0.78168   0.00000  Uiso   1.00
xx61   C     0.95770   0.57354   0.81471   0.00000  Uiso   1.00
xx62   C     0.90977   0.35773   0.94748   0.00000  Uiso   1.00
xx63   C     0.86892   0.33077   0.92046   0.00000  Uiso   1.00
xx64   C     0.84854   0.35484   0.88228   0.00000  Uiso   1.00
xx65   C     0.86936   0.40553   0.87028   0.00000  Uiso   1.00
xx66   C     0.90978   0.43231   0.89755   0.00000  Uiso   1.00
xx67   C     0.92935   0.40934   0.93602   0.00000  Uiso   1.00
xx68   H     0.83957   0.34288   0.80027   0.00000  Uiso   1.00
xx69   H     0.80972   0.38143   0.73156   0.00000  Uiso   1.00
xx70   H     0.78920   0.46757   0.68507   0.00000  Uiso   1.00
xx71   H     0.78261   0.57432   0.67545   0.00000  Uiso   1.00
xx72   H     0.79198   0.67568   0.70559   0.00000  Uiso   1.00
xx73   H     0.81546   0.73858   0.76632   0.00000  Uiso   1.00
xx74   H     0.95810   0.35896   0.00924   0.00000  Uiso   1.00
xx75   H     0.77761   0.69521   0.85597   0.00000  Uiso   1.00
xx76   H     0.80599   0.73598   0.92410   0.00000  Uiso   1.00
xx77   H     0.95538   0.75016   0.91073   0.00000  Uiso   1.00
xx78   H     0.92647   0.70997   0.84256   0.00000  Uiso   1.00
xx79   H     0.87337   0.75857   0.98316   0.00000  Uiso   1.00
xx80   H     0.72750   0.54651   0.93400   0.00000  Uiso   1.00
xx81   H     0.78795   0.58818   0.99358   0.00000  Uiso   1.00
xx82   H     0.87656   0.61672   0.02767   0.00000  Uiso   1.00
xx83   H     0.96348   0.62634   0.02491   0.00000  Uiso   1.00
xx84   H     0.02703   0.62057   0.98517   0.00000  Uiso   1.00
xx85   H     0.04704   0.59447   0.92181   0.00000  Uiso   1.00
xx86   H     0.66719   0.35297   0.77817   0.00000  Uiso   1.00
xx87   H     0.98272   0.48772   0.71928   0.00000  Uiso   1.00
xx88   H     0.98496   0.68554   0.56548   0.00000  Uiso   1.00
xx89   H     0.03016   0.74421   0.62106   0.00000  Uiso   1.00
xx90   H     0.97882   0.90383   0.55242   0.00000  Uiso   1.00
xx91   H     0.93198   0.84394   0.49535   0.00000  Uiso   1.00
xx92   H     0.06686   0.92346   0.58947   0.00000  Uiso   1.00
xx93   H     0.12051   0.97683   0.64679   0.00000  Uiso   1.00
xx94   H     0.06974   0.86507   0.72850   0.00000  Uiso   1.00
xx95   H     0.01865   0.81341   0.67152   0.00000  Uiso   1.00
xx96   H     0.03159   0.48658   0.88695   0.00000  Uiso   1.00
xx97   H     0.04273   0.43726   0.82671   0.00000  Uiso   1.00
xx98   H     0.94422   0.56358   0.75231   0.00000  Uiso   1.00
xx99   H     0.93388   0.61157   0.81127   0.00000  Uiso   1.00
xx100  H     0.85297   0.29104   0.92875   0.00000  Uiso   1.00
xx101  H     0.81695   0.33337   0.86200   0.00000  Uiso   1.00
xx102  H     0.92783   0.46917   0.88831   0.00000  Uiso   1.00
xx103  H     0.96127   0.43043   0.95619   0.00000  Uiso   1.00
xx104  C     0.74779   0.51293   0.86391   0.00000  Uiso   1.00
xx105  C     0.73405   0.53320   0.82408   0.00000  Uiso   1.00
xx106  C     0.70839   0.49637   0.79290   0.00000  Uiso   1.00
xx107  C     0.69675   0.43868   0.80138   0.00000  Uiso   1.00
xx108  C     0.71052   0.41889   0.84132   0.00000  Uiso   1.00
xx109  C     0.73560   0.45574   0.87232   0.00000  Uiso   1.00
xx110  C     0.01655   0.37925   0.71507   0.00000  Uiso   1.00
xx111  C     0.02483   0.40572   0.68064   0.00000  Uiso   1.00
xx112  C     0.02328   0.37232   0.64644   0.00000  Uiso   1.00
xx113  C     0.01320   0.31208   0.64596   0.00000  Uiso   1.00
xx114  C     0.00723   0.28528   0.68100   0.00000  Uiso   1.00
xx115  C     0.00954   0.31862   0.71545   0.00000  Uiso   1.00
xx116  C     0.00265   0.27972   0.60747   0.00000  Uiso   1.00
xx117  C     0.03302   0.28701   0.58126   0.00000  Uiso   1.00
xx118  C     0.01663   0.26795   0.54138   0.00000  Uiso   1.00
xx119  C     0.96921   0.24315   0.52687   0.00000  Uiso   1.00
xx120  C     0.94132   0.22991   0.55425   0.00000  Uiso   1.00
xx121  C     0.95799   0.24815   0.59425   0.00000  Uiso   1.00
xx122  H     0.74337   0.57726   0.81719   0.00000  Uiso   1.00
xx123  H     0.69835   0.51268   0.76230   0.00000  Uiso   1.00
xx124  H     0.70206   0.37463   0.84856   0.00000  Uiso   1.00
xx125  H     0.74679   0.43905   0.90284   0.00000  Uiso   1.00
xx126  H     0.03171   0.45222   0.67989   0.00000  Uiso   1.00
xx127  H     0.02748   0.39414   0.61967   0.00000  Uiso   1.00
xx128  H     0.99944   0.23890   0.68131   0.00000  Uiso   1.00
xx129  H     0.00359   0.29760   0.74191   0.00000  Uiso   1.00
xx130  H     0.06801   0.31044   0.59100   0.00000  Uiso   1.00
xx131  H     0.03890   0.27755   0.52081   0.00000  Uiso   1.00
xx132  H     0.90559   0.20826   0.54459   0.00000  Uiso   1.00
xx133  H     0.93408   0.24156   0.61397   0.00000  Uiso   1.00
xx134  C     0.34219   0.93809   0.82794   0.00000  Uiso   1.00
xx135  C     0.32546   0.90137   0.79421   0.00000  Uiso   1.00
xx136  C     0.31164   0.92529   0.75539   0.00000  Uiso   1.00
xx137  C     0.31388   0.98585   0.75010   0.00000  Uiso   1.00
xx138  C     0.29931   0.01199   0.71178   0.00000  Uiso   1.00
xx139  C     0.30086   0.07309   0.70772   0.00000  Uiso   1.00
xx140  C     0.31648   0.10879   0.74196   0.00000  Uiso   1.00
xx141  C     0.31808   0.17010   0.73949   0.00000  Uiso   1.00
xx142  C     0.33340   0.20380   0.77476   0.00000  Uiso   1.00
xx143  C     0.34643   0.17572   0.81232   0.00000  Uiso   1.00
xx144  C     0.33081   0.08267   0.78018   0.00000  Uiso   1.00
xx145  C     0.33045   0.02121   0.78438   0.00000  Uiso   1.00
xx146  C     0.41496   0.81811   0.97880   0.00000  Uiso   1.00
xx147  C     0.36305   0.20822   0.85007   0.00000  Uiso   1.00
xx148  C     0.32989   0.21770   0.87354   0.00000  Uiso   1.00
xx149  C     0.34746   0.23871   0.91281   0.00000  Uiso   1.00
xx150  C     0.39853   0.24942   0.92927   0.00000  Uiso   1.00
xx151  C     0.43133   0.24247   0.90493   0.00000  Uiso   1.00
xx152  C     0.41359   0.22205   0.86549   0.00000  Uiso   1.00
xx153  C     0.41728   0.25975   0.97290   0.00000  Uiso   1.00
xx154  C     0.27384   0.06261   0.89406   0.00000  Uiso   1.00
xx155  C     0.25746   0.07327   0.92855   0.00000  Uiso   1.00
xx156  C     0.29146   0.09270   0.96403   0.00000  Uiso   1.00
xx157  C     0.34206   0.09865   0.96556   0.00000  Uiso   1.00
xx158  C     0.37825   0.11292   0.00131   0.00000  Uiso   1.00
xx159  C     0.42896   0.11410   0.00228   0.00000  Uiso   1.00
xx160  C     0.44404   0.10180   0.96739   0.00000  Uiso   1.00
xx161  C     0.49439   0.10030   0.96755   0.00000  Uiso   1.00
xx162  C     0.50776   0.08490   0.93252   0.00000  Uiso   1.00
xx163  C     0.47053   0.07221   0.89698   0.00000  Uiso   1.00
xx164  C     0.40788   0.08922   0.93126   0.00000  Uiso   1.00
xx165  C     0.35685   0.08776   0.93039   0.00000  Uiso   1.00
xx166  C     0.15320   0.93160   0.76012   0.00000  Uiso   1.00
xx167  C     0.50756   0.96891   0.75591   0.00000  Uiso   1.00
xx168  Cu    0.35976   0.06300   0.85744   0.00000  Uiso   1.00
xx169  N     0.34488   0.99668   0.82189   0.00000  Uiso   1.00
xx170  N     0.34448   0.11657   0.81363   0.00000  Uiso   1.00
xx171  N     0.32233   0.07279   0.89571   0.00000  Uiso   1.00
xx172  N     0.42190   0.07585   0.89734   0.00000  Uiso   1.00
xx173  N     0.45957   0.82773   0.00171   0.00000  Uiso   1.00
xx174  N     0.46450   0.25427   0.99080   0.00000  Uiso   1.00
xx175  N     0.13443   0.95420   0.72470   0.00000  Uiso   1.00
xx176  N     0.52556   0.91628   0.75727   0.00000  Uiso   1.00
xx177  C     0.48508   0.20805   0.53514   0.00000  Uiso   1.00
xx178  C     0.52308   0.18281   0.56557   0.00000  Uiso   1.00
xx179  C     0.55011   0.21648   0.59792   0.00000  Uiso   1.00
xx180  C     0.54024   0.27652   0.59993   0.00000  Uiso   1.00
xx181  C     0.50272   0.30215   0.56900   0.00000  Uiso   1.00
xx182  C     0.47529   0.26827   0.53688   0.00000  Uiso   1.00
xx183  C     0.56894   0.31209   0.63431   0.00000  Uiso   1.00
xx184  C     0.58762   0.36737   0.62808   0.00000  Uiso   1.00
xx185  C     0.61496   0.40042   0.66074   0.00000  Uiso   1.00
xx186  C     0.62406   0.37908   0.70012   0.00000  Uiso   1.00
xx187  C     0.60450   0.32406   0.70638   0.00000  Uiso   1.00
xx188  C     0.57763   0.29087   0.67377   0.00000  Uiso   1.00
xx189  C     0.48360   0.04910   0.86136   0.00000  Uiso   1.00
xx190  C     0.51455   0.99983   0.86506   0.00000  Uiso   1.00
xx191  C     0.52310   0.97388   0.83091   0.00000  Uiso   1.00
xx192  C     0.50123   0.99730   0.79254   0.00000  Uiso   1.00
xx193  C     0.47162   0.04772   0.78906   0.00000  Uiso   1.00
xx194  C     0.46282   0.07335   0.82327   0.00000  Uiso   1.00
xx195  C     0.39413   0.85424   0.94271   0.00000  Uiso   1.00
xx196  C     0.34712   0.84029   0.91724   0.00000  Uiso   1.00
xx197  C     0.32908   0.86936   0.88056   0.00000  Uiso   1.00
xx198  C     0.35773   0.91302   0.86883   0.00000  Uiso   1.00
xx199  C     0.40359   0.92885   0.89509   0.00000  Uiso   1.00
xx200  C     0.42175   0.89987   0.93179   0.00000  Uiso   1.00
xx201  H     0.32367   0.85445   0.79783   0.00000  Uiso   1.00
xx202  H     0.29901   0.89659   0.72966   0.00000  Uiso   1.00
xx203  H     0.28649   0.98528   0.68504   0.00000  Uiso   1.00
xx204  H     0.28944   0.09236   0.67796   0.00000  Uiso   1.00
xx205  H     0.30756   0.19181   0.71052   0.00000  Uiso   1.00
xx206  H     0.33486   0.25100   0.77282   0.00000  Uiso   1.00
xx207  H     0.39283   0.78230   0.98521   0.00000  Uiso   1.00
xx208  H     0.29091   0.20612   0.86213   0.00000  Uiso   1.00
xx209  H     0.32162   0.24304   0.93116   0.00000  Uiso   1.00
xx210  H     0.47095   0.25001   0.91695   0.00000  Uiso   1.00
xx211  H     0.43967   0.21411   0.84777   0.00000  Uiso   1.00
xx212  H     0.39016   0.26184   0.99017   0.00000  Uiso   1.00
xx213  H     0.21906   0.06512   0.92828   0.00000  Uiso   1.00
xx214  H     0.27867   0.10039   0.99059   0.00000  Uiso   1.00
xx215  H     0.36748   0.12173   0.02867   0.00000  Uiso   1.00
xx216  H     0.45634   0.12368   0.03041   0.00000  Uiso   1.00
xx217  H     0.52332   0.10943   0.99489   0.00000  Uiso   1.00
xx218  H     0.54681   0.08213   0.93327   0.00000  Uiso   1.00
xx219  H     0.14550   0.88656   0.76606   0.00000  Uiso   1.00
xx220  H     0.49327   0.99094   0.72730   0.00000  Uiso   1.00
xx221  H     0.53166   0.13678   0.56422   0.00000  Uiso   1.00
xx222  H     0.57931   0.19580   0.62107   0.00000  Uiso   1.00
xx223  H     0.49438   0.34833   0.56984   0.00000  Uiso   1.00
xx224  H     0.44739   0.28960   0.51314   0.00000  Uiso   1.00
xx225  H     0.58167   0.38464   0.59792   0.00000  Uiso   1.00
xx226  H     0.62937   0.44276   0.65536   0.00000  Uiso   1.00
xx227  H     0.60883   0.30646   0.73616   0.00000  Uiso   1.00
xx228  H     0.56279   0.24891   0.67945   0.00000  Uiso   1.00
xx229  H     0.53063   0.98019   0.89427   0.00000  Uiso   1.00
xx230  H     0.54621   0.93511   0.83448   0.00000  Uiso   1.00
xx231  H     0.45448   0.06662   0.75980   0.00000  Uiso   1.00
xx232  H     0.43992   0.11208   0.82002   0.00000  Uiso   1.00
xx233  H     0.32504   0.80554   0.92511   0.00000  Uiso   1.00
xx234  H     0.29329   0.85676   0.86087   0.00000  Uiso   1.00
xx235  H     0.42661   0.96123   0.88616   0.00000  Uiso   1.00
xx236  H     0.45816   0.91169   0.95078   0.00000  Uiso   1.00
xx237  C     0.24173   0.03175   0.85940   0.00000  Uiso   1.00
xx238  C     0.23088   0.05458   0.82040   0.00000  Uiso   1.00
xx239  C     0.20219   0.02218   0.78785   0.00000  Uiso   1.00
xx240  C     0.18446   0.96600   0.79365   0.00000  Uiso   1.00
xx241  C     0.19565   0.94168   0.83238   0.00000  Uiso   1.00
xx242  C     0.22322   0.97298   0.86541   0.00000  Uiso   1.00
xx243  C     0.53028   0.88424   0.72273   0.00000  Uiso   1.00
xx244  C     0.53795   0.91243   0.68867   0.00000  Uiso   1.00
xx245  C     0.53703   0.88040   0.65404   0.00000  Uiso   1.00
xx246  C     0.52836   0.81979   0.65281   0.00000  Uiso   1.00
xx247  C     0.52369   0.79128   0.68770   0.00000  Uiso   1.00
xx248  C     0.52524   0.82333   0.72253   0.00000  Uiso   1.00
xx249  C     0.51825   0.78844   0.61391   0.00000  Uiso   1.00
xx250  C     0.54714   0.79933   0.58702   0.00000  Uiso   1.00
xx251  C     0.53115   0.77974   0.54725   0.00000  Uiso   1.00
xx252  C     0.48560   0.75044   0.53352   0.00000  Uiso   1.00
xx253  C     0.45921   0.73442   0.56142   0.00000  Uiso   1.00
xx254  C     0.47547   0.75337   0.60129   0.00000  Uiso   1.00
xx255  H     0.24431   0.09751   0.81517   0.00000  Uiso   1.00
xx256  H     0.19409   0.04099   0.75797   0.00000  Uiso   1.00
xx257  H     0.18249   0.89838   0.83714   0.00000  Uiso   1.00
xx258  H     0.23172   0.95363   0.89514   0.00000  Uiso   1.00
xx259  H     0.54364   0.95923   0.68848   0.00000  Uiso   1.00
xx260  H     0.54051   0.90354   0.62752   0.00000  Uiso   1.00
xx261  H     0.51738   0.74454   0.68760   0.00000  Uiso   1.00
xx262  H     0.52001   0.80103   0.74879   0.00000  Uiso   1.00
xx263  H     0.58071   0.82549   0.59620   0.00000  Uiso   1.00
xx264  H     0.55226   0.79157   0.52626   0.00000  Uiso   1.00
xx265  H     0.42496   0.70965   0.55234   0.00000  Uiso   1.00
xx266  H     0.45261   0.74410   0.62146   0.00000  Uiso   1.00
xx267  C     0.85139   0.57157   0.32877   0.00000  Uiso   1.00
xx268  C     0.83722   0.61024   0.29583   0.00000  Uiso   1.00
xx269  C     0.82053   0.58834   0.25659   0.00000  Uiso   1.00
xx270  C     0.81754   0.52791   0.24996   0.00000  Uiso   1.00
xx271  C     0.80010   0.50405   0.21112   0.00000  Uiso   1.00
xx272  C     0.79621   0.44316   0.20562   0.00000  Uiso   1.00
xx273  C     0.80929   0.40544   0.23894   0.00000  Uiso   1.00
xx274  C     0.80525   0.34429   0.23501   0.00000  Uiso   1.00
xx275  C     0.81841   0.30851   0.26939   0.00000  Uiso   1.00
xx276  C     0.83521   0.33439   0.30751   0.00000  Uiso   1.00
xx277  C     0.82681   0.42927   0.27769   0.00000  Uiso   1.00
xx278  C     0.83176   0.49046   0.28337   0.00000  Uiso   1.00
xx279  C     0.93400   0.66858   0.48679   0.00000  Uiso   1.00
xx280  C     0.84994   0.29960   0.34441   0.00000  Uiso   1.00
xx281  C     0.81603   0.29090   0.36733   0.00000  Uiso   1.00
xx282  C     0.83229   0.26770   0.40611   0.00000  Uiso   1.00
xx283  C     0.88277   0.25370   0.42258   0.00000  Uiso   1.00
xx284  C     0.91617   0.25979   0.39868   0.00000  Uiso   1.00
xx285  C     0.89978   0.28267   0.35980   0.00000  Uiso   1.00
xx286  C     0.90062   0.24094   0.46597   0.00000  Uiso   1.00
xx287  C     0.77877   0.45148   0.39662   0.00000  Uiso   1.00
xx288  C     0.76444   0.44156   0.43215   0.00000  Uiso   1.00
xx289  C     0.79897   0.41840   0.46608   0.00000  Uiso   1.00
xx290  C     0.84816   0.40758   0.46497   0.00000  Uiso   1.00
xx291  C     0.88544   0.39042   0.49933   0.00000  Uiso   1.00
xx292  C     0.93505   0.38464   0.49770   0.00000  Uiso   1.00
xx293  C     0.94783   0.39458   0.46151   0.00000  Uiso   1.00
xx294  C     0.99720   0.39127   0.45903   0.00000  Uiso   1.00
xx295  C     0.00859   0.40584   0.42300   0.00000  Uiso   1.00
xx296  C     0.97024   0.42248   0.38915   0.00000  Uiso   1.00
xx297  C     0.91048   0.41036   0.42686   0.00000  Uiso   1.00
xx298  C     0.86067   0.41706   0.42866   0.00000  Uiso   1.00
xx299  C     0.67050   0.60207   0.26962   0.00000  Uiso   1.00
xx300  C     0.99748   0.53377   0.24803   0.00000  Uiso   1.00
xx301  Cu    0.86006   0.44400   0.35517   0.00000  Uiso   1.00
xx302  N     0.84903   0.51285   0.32139   0.00000  Uiso   1.00
xx303  N     0.83853   0.39343   0.31022   0.00000  Uiso   1.00
xx304  N     0.82547   0.43631   0.39559   0.00000  Uiso   1.00
xx305  N     0.92250   0.42273   0.39196   0.00000  Uiso   1.00
xx306  N     0.93199   0.72721   0.49208   0.00000  Uiso   1.00
xx307  N     0.94806   0.24112   0.48403   0.00000  Uiso   1.00
xx308  N     0.65185   0.58488   0.23271   0.00000  Uiso   1.00
xx309  N     0.01387   0.58719   0.24959   0.00000  Uiso   1.00
xx310  C     0.95553   0.24158   0.02535   0.00000  Uiso   1.00
xx311  C     0.98297   0.26762   0.06158   0.00000  Uiso   1.00
xx312  C     0.00891   0.23363   0.09413   0.00000  Uiso   1.00
xx313  C     0.00910   0.17236   0.09203   0.00000  Uiso   1.00
xx314  C     0.98000   0.14338   0.05478   0.00000  Uiso   1.00
xx315  C     0.95332   0.17717   0.02266   0.00000  Uiso   1.00
xx316  C     0.03886   0.13747   0.12631   0.00000  Uiso   1.00
xx317  C     0.06728   0.08952   0.11975   0.00000  Uiso   1.00
xx318  C     0.09803   0.05921   0.15235   0.00000  Uiso   1.00
xx319  C     0.10102   0.07639   0.19190   0.00000  Uiso   1.00
xx320  C     0.07054   0.12247   0.19843   0.00000  Uiso   1.00
xx321  C     0.04014   0.15292   0.16596   0.00000  Uiso   1.00
xx322  C     0.98161   0.44739   0.35333   0.00000  Uiso   1.00
xx323  C     0.01321   0.49611   0.35745   0.00000  Uiso   1.00
xx324  C     0.01915   0.52438   0.32321   0.00000  Uiso   1.00
xx325  C     0.99393   0.50338   0.28485   0.00000  Uiso   1.00
xx326  C     0.96379   0.45327   0.28168   0.00000  Uiso   1.00
xx327  C     0.95770   0.42646   0.31471   0.00000  Uiso   1.00
xx328  C     0.90977   0.64227   0.44748   0.00000  Uiso   1.00
xx329  C     0.86892   0.66923   0.42046   0.00000  Uiso   1.00
xx330  C     0.84854   0.64516   0.38228   0.00000  Uiso   1.00
xx331  C     0.86936   0.59447   0.37028   0.00000  Uiso   1.00
xx332  C     0.90978   0.56769   0.39755   0.00000  Uiso   1.00
xx333  C     0.92935   0.59066   0.43602   0.00000  Uiso   1.00
xx334  H     0.83957   0.65712   0.30027   0.00000  Uiso   1.00
xx335  H     0.80972   0.61857   0.23156   0.00000  Uiso   1.00
xx336  H     0.78920   0.53243   0.18507   0.00000  Uiso   1.00
xx337  H     0.78261   0.42568   0.17545   0.00000  Uiso   1.00
xx338  H     0.79198   0.32432   0.20559   0.00000  Uiso   1.00
xx339  H     0.81546   0.26142   0.26632   0.00000  Uiso   1.00
xx340  H     0.95810   0.64104   0.50924   0.00000  Uiso   1.00
xx341  H     0.77761   0.30479   0.35597   0.00000  Uiso   1.00
xx342  H     0.80599   0.26402   0.42410   0.00000  Uiso   1.00
xx343  H     0.95538   0.24984   0.41073   0.00000  Uiso   1.00
xx344  H     0.92647   0.29003   0.34256   0.00000  Uiso   1.00
xx345  H     0.87337   0.24143   0.48316   0.00000  Uiso   1.00
xx346  H     0.72750   0.45349   0.43400   0.00000  Uiso   1.00
xx347  H     0.78795   0.41182   0.49358   0.00000  Uiso   1.00
xx348  H     0.87656   0.38328   0.52767   0.00000  Uiso   1.00
xx349  H     0.96348   0.37366   0.52491   0.00000  Uiso   1.00
xx350  H     0.02703   0.37943   0.48517   0.00000  Uiso   1.00
xx351  H     0.04704   0.40553   0.42181   0.00000  Uiso   1.00
xx352  H     0.66719   0.64703   0.27817   0.00000  Uiso   1.00
xx353  H     0.98272   0.51228   0.21928   0.00000  Uiso   1.00
xx354  H     0.98496   0.31446   0.06548   0.00000  Uiso   1.00
xx355  H     0.03016   0.25579   0.12106   0.00000  Uiso   1.00
xx356  H     0.97882   0.09617   0.05242   0.00000  Uiso   1.00
xx357  H     0.93198   0.15606   0.99535   0.00000  Uiso   1.00
xx358  H     0.06686   0.07654   0.08947   0.00000  Uiso   1.00
xx359  H     0.12051   0.02317   0.14679   0.00000  Uiso   1.00
xx360  H     0.06974   0.13493   0.22850   0.00000  Uiso   1.00
xx361  H     0.01865   0.18659   0.17152   0.00000  Uiso   1.00
xx362  H     0.03159   0.51342   0.38695   0.00000  Uiso   1.00
xx363  H     0.04273   0.56274   0.32671   0.00000  Uiso   1.00
xx364  H     0.94422   0.43642   0.25231   0.00000  Uiso   1.00
xx365  H     0.93388   0.38843   0.31127   0.00000  Uiso   1.00
xx366  H     0.85297   0.70896   0.42875   0.00000  Uiso   1.00
xx367  H     0.81695   0.66663   0.36200   0.00000  Uiso   1.00
xx368  H     0.92783   0.53083   0.38831   0.00000  Uiso   1.00
xx369  H     0.96127   0.56957   0.45619   0.00000  Uiso   1.00
xx370  C     0.74779   0.48707   0.36391   0.00000  Uiso   1.00
xx371  C     0.73405   0.46680   0.32408   0.00000  Uiso   1.00
xx372  C     0.70839   0.50363   0.29290   0.00000  Uiso   1.00
xx373  C     0.69675   0.56132   0.30138   0.00000  Uiso   1.00
xx374  C     0.71052   0.58111   0.34132   0.00000  Uiso   1.00
xx375  C     0.73560   0.54426   0.37232   0.00000  Uiso   1.00
xx376  C     0.01655   0.62075   0.21507   0.00000  Uiso   1.00
xx377  C     0.02483   0.59428   0.18064   0.00000  Uiso   1.00
xx378  C     0.02328   0.62768   0.14644   0.00000  Uiso   1.00
xx379  C     0.01320   0.68792   0.14596   0.00000  Uiso   1.00
xx380  C     0.00723   0.71472   0.18100   0.00000  Uiso   1.00
xx381  C     0.00954   0.68138   0.21545   0.00000  Uiso   1.00
xx382  C     0.00265   0.72028   0.10747   0.00000  Uiso   1.00
xx383  C     0.03302   0.71299   0.08126   0.00000  Uiso   1.00
xx384  C     0.01663   0.73205   0.04138   0.00000  Uiso   1.00
xx385  C     0.96921   0.75685   0.02687   0.00000  Uiso   1.00
xx386  C     0.94132   0.77009   0.05425   0.00000  Uiso   1.00
xx387  C     0.95799   0.75185   0.09425   0.00000  Uiso   1.00
xx388  H     0.74337   0.42274   0.31719   0.00000  Uiso   1.00
xx389  H     0.69835   0.48732   0.26230   0.00000  Uiso   1.00
xx390  H     0.70206   0.62537   0.34856   0.00000  Uiso   1.00
xx391  H     0.74679   0.56095   0.40284   0.00000  Uiso   1.00
xx392  H     0.03171   0.54778   0.17989   0.00000  Uiso   1.00
xx393  H     0.02748   0.60586   0.11967   0.00000  Uiso   1.00
xx394  H     0.99944   0.76110   0.18131   0.00000  Uiso   1.00
xx395  H     0.00359   0.70240   0.24191   0.00000  Uiso   1.00
xx396  H     0.06801   0.68956   0.09100   0.00000  Uiso   1.00
xx397  H     0.03890   0.72245   0.02081   0.00000  Uiso   1.00
xx398  H     0.90559   0.79174   0.04459   0.00000  Uiso   1.00
xx399  H     0.93408   0.75844   0.11397   0.00000  Uiso   1.00
xx400  C     0.34219   0.06191   0.32794   0.00000  Uiso   1.00
xx401  C     0.32546   0.09863   0.29421   0.00000  Uiso   1.00
xx402  C     0.31164   0.07471   0.25539   0.00000  Uiso   1.00
xx403  C     0.31388   0.01415   0.25010   0.00000  Uiso   1.00
xx404  C     0.29931   0.98801   0.21178   0.00000  Uiso   1.00
xx405  C     0.30086   0.92691   0.20772   0.00000  Uiso   1.00
xx406  C     0.31648   0.89121   0.24196   0.00000  Uiso   1.00
xx407  C     0.31808   0.82990   0.23949   0.00000  Uiso   1.00
xx408  C     0.33340   0.79620   0.27476   0.00000  Uiso   1.00
xx409  C     0.34643   0.82428   0.31232   0.00000  Uiso   1.00
xx410  C     0.33081   0.91733   0.28018   0.00000  Uiso   1.00
xx411  C     0.33045   0.97879   0.28438   0.00000  Uiso   1.00
xx412  C     0.41496   0.18189   0.47880   0.00000  Uiso   1.00
xx413  C     0.36305   0.79178   0.35007   0.00000  Uiso   1.00
xx414  C     0.32989   0.78230   0.37354   0.00000  Uiso   1.00
xx415  C     0.34746   0.76129   0.41281   0.00000  Uiso   1.00
xx416  C     0.39853   0.75058   0.42927   0.00000  Uiso   1.00
xx417  C     0.43133   0.75753   0.40493   0.00000  Uiso   1.00
xx418  C     0.41359   0.77795   0.36549   0.00000  Uiso   1.00
xx419  C     0.41728   0.74025   0.47290   0.00000  Uiso   1.00
xx420  C     0.27384   0.93739   0.39406   0.00000  Uiso   1.00
xx421  C     0.25746   0.92673   0.42855   0.00000  Uiso   1.00
xx422  C     0.29146   0.90730   0.46403   0.00000  Uiso   1.00
xx423  C     0.34206   0.90135   0.46556   0.00000  Uiso   1.00
xx424  C     0.37825   0.88708   0.50131   0.00000  Uiso   1.00
xx425  C     0.42896   0.88590   0.50228   0.00000  Uiso   1.00
xx426  C     0.44404   0.89820   0.46739   0.00000  Uiso   1.00
xx427  C     0.49439   0.89970   0.46755   0.00000  Uiso   1.00
xx428  C     0.50776   0.91510   0.43252   0.00000  Uiso   1.00
xx429  C     0.47053   0.92779   0.39698   0.00000  Uiso   1.00
xx430  C     0.40788   0.91078   0.43126   0.00000  Uiso   1.00
xx431  C     0.35685   0.91224   0.43039   0.00000  Uiso   1.00
xx432  C     0.15320   0.06840   0.26012   0.00000  Uiso   1.00
xx433  C     0.50756   0.03109   0.25591   0.00000  Uiso   1.00
xx434  Cu    0.35976   0.93700   0.35744   0.00000  Uiso   1.00
xx435  N     0.34488   0.00332   0.32189   0.00000  Uiso   1.00
xx436  N     0.34448   0.88343   0.31363   0.00000  Uiso   1.00
xx437  N     0.32233   0.92721   0.39571   0.00000  Uiso   1.00
xx438  N     0.42190   0.92415   0.39734   0.00000  Uiso   1.00
xx439  N     0.45957   0.17227   0.50171   0.00000  Uiso   1.00
xx440  N     0.46450   0.74573   0.49080   0.00000  Uiso   1.00
xx441  N     0.13443   0.04580   0.22470   0.00000  Uiso   1.00
xx442  N     0.52556   0.08372   0.25727   0.00000  Uiso   1.00
xx443  C     0.48508   0.79195   0.03514   0.00000  Uiso   1.00
xx444  C     0.52308   0.81719   0.06557   0.00000  Uiso   1.00
xx445  C     0.55011   0.78352   0.09792   0.00000  Uiso   1.00
xx446  C     0.54024   0.72348   0.09993   0.00000  Uiso   1.00
xx447  C     0.50272   0.69785   0.06900   0.00000  Uiso   1.00
xx448  C     0.47529   0.73173   0.03688   0.00000  Uiso   1.00
xx449  C     0.56894   0.68791   0.13431   0.00000  Uiso   1.00
xx450  C     0.58762   0.63263   0.12808   0.00000  Uiso   1.00
xx451  C     0.61496   0.59958   0.16074   0.00000  Uiso   1.00
xx452  C     0.62406   0.62092   0.20012   0.00000  Uiso   1.00
xx453  C     0.60450   0.67594   0.20638   0.00000  Uiso   1.00
xx454  C     0.57763   0.70913   0.17377   0.00000  Uiso   1.00
xx455  C     0.48360   0.95090   0.36136   0.00000  Uiso   1.00
xx456  C     0.51455   0.00017   0.36506   0.00000  Uiso   1.00
xx457  C     0.52310   0.02612   0.33091   0.00000  Uiso   1.00
xx458  C     0.50123   0.00270   0.29254   0.00000  Uiso   1.00
xx459  C     0.47162   0.95228   0.28906   0.00000  Uiso   1.00
xx460  C     0.46282   0.92665   0.32327   0.00000  Uiso   1.00
xx461  C     0.39413   0.14576   0.44271   0.00000  Uiso   1.00
xx462  C     0.34712   0.15971   0.41724   0.00000  Uiso   1.00
xx463  C     0.32908   0.13064   0.38056   0.00000  Uiso   1.00
xx464  C     0.35773   0.08698   0.36883   0.00000  Uiso   1.00
xx465  C     0.40359   0.07115   0.39509   0.00000  Uiso   1.00
xx466  C     0.42175   0.10013   0.43179   0.00000  Uiso   1.00
xx467  H     0.32367   0.14555   0.29783   0.00000  Uiso   1.00
xx468  H     0.29901   0.10341   0.22966   0.00000  Uiso   1.00
xx469  H     0.28649   0.01472   0.18504   0.00000  Uiso   1.00
xx470  H     0.28944   0.90764   0.17796   0.00000  Uiso   1.00
xx471  H     0.30756   0.80819   0.21052   0.00000  Uiso   1.00
xx472  H     0.33486   0.74900   0.27282   0.00000  Uiso   1.00
xx473  H     0.39283   0.21770   0.48521   0.00000  Uiso   1.00
xx474  H     0.29091   0.79388   0.36213   0.00000  Uiso   1.00
xx475  H     0.32162   0.75696   0.43116   0.00000  Uiso   1.00
xx476  H     0.47095   0.74999   0.41695   0.00000  Uiso   1.00
xx477  H     0.43967   0.78589   0.34777   0.00000  Uiso   1.00
xx478  H     0.39016   0.73816   0.49017   0.00000  Uiso   1.00
xx479  H     0.21906   0.93488   0.42828   0.00000  Uiso   1.00
xx480  H     0.27867   0.89961   0.49059   0.00000  Uiso   1.00
xx481  H     0.36748   0.87827   0.52867   0.00000  Uiso   1.00
xx482  H     0.45634   0.87632   0.53041   0.00000  Uiso   1.00
xx483  H     0.52332   0.89057   0.49489   0.00000  Uiso   1.00
xx484  H     0.54681   0.91787   0.43327   0.00000  Uiso   1.00
xx485  H     0.14550   0.11344   0.26606   0.00000  Uiso   1.00
xx486  H     0.49327   0.00906   0.22730   0.00000  Uiso   1.00
xx487  H     0.53166   0.86322   0.06422   0.00000  Uiso   1.00
xx488  H     0.57931   0.80420   0.12107   0.00000  Uiso   1.00
xx489  H     0.49438   0.65167   0.06984   0.00000  Uiso   1.00
xx490  H     0.44739   0.71040   0.01314   0.00000  Uiso   1.00
xx491  H     0.58167   0.61536   0.09792   0.00000  Uiso   1.00
xx492  H     0.62937   0.55724   0.15536   0.00000  Uiso   1.00
xx493  H     0.60883   0.69354   0.23616   0.00000  Uiso   1.00
xx494  H     0.56279   0.75109   0.17945   0.00000  Uiso   1.00
xx495  H     0.53063   0.01981   0.39427   0.00000  Uiso   1.00
xx496  H     0.54621   0.06489   0.33448   0.00000  Uiso   1.00
xx497  H     0.45448   0.93338   0.25980   0.00000  Uiso   1.00
xx498  H     0.43992   0.88792   0.32002   0.00000  Uiso   1.00
xx499  H     0.32504   0.19446   0.42511   0.00000  Uiso   1.00
xx500  H     0.29329   0.14324   0.36087   0.00000  Uiso   1.00
xx501  H     0.42661   0.03877   0.38616   0.00000  Uiso   1.00
xx502  H     0.45816   0.08831   0.45078   0.00000  Uiso   1.00
xx503  C     0.24173   0.96825   0.35940   0.00000  Uiso   1.00
xx504  C     0.23088   0.94542   0.32040   0.00000  Uiso   1.00
xx505  C     0.20219   0.97782   0.28785   0.00000  Uiso   1.00
xx506  C     0.18446   0.03400   0.29365   0.00000  Uiso   1.00
xx507  C     0.19565   0.05832   0.33238   0.00000  Uiso   1.00
xx508  C     0.22322   0.02702   0.36541   0.00000  Uiso   1.00
xx509  C     0.53028   0.11576   0.22273   0.00000  Uiso   1.00
xx510  C     0.53795   0.08757   0.18867   0.00000  Uiso   1.00
xx511  C     0.53703   0.11960   0.15404   0.00000  Uiso   1.00
xx512  C     0.52836   0.18021   0.15281   0.00000  Uiso   1.00
xx513  C     0.52369   0.20872   0.18770   0.00000  Uiso   1.00
xx514  C     0.52524   0.17667   0.22253   0.00000  Uiso   1.00
xx515  C     0.51825   0.21156   0.11391   0.00000  Uiso   1.00
xx516  C     0.54714   0.20067   0.08702   0.00000  Uiso   1.00
xx517  C     0.53115   0.22026   0.04725   0.00000  Uiso   1.00
xx518  C     0.48560   0.24956   0.03352   0.00000  Uiso   1.00
xx519  C     0.45921   0.26558   0.06142   0.00000  Uiso   1.00
xx520  C     0.47547   0.24663   0.10129   0.00000  Uiso   1.00
xx521  H     0.24431   0.90249   0.31517   0.00000  Uiso   1.00
xx522  H     0.19409   0.95901   0.25797   0.00000  Uiso   1.00
xx523  H     0.18249   0.10162   0.33714   0.00000  Uiso   1.00
xx524  H     0.23172   0.04637   0.39514   0.00000  Uiso   1.00
xx525  H     0.54364   0.04077   0.18848   0.00000  Uiso   1.00
xx526  H     0.54051   0.09646   0.12752   0.00000  Uiso   1.00
xx527  H     0.51738   0.25546   0.18760   0.00000  Uiso   1.00
xx528  H     0.52001   0.19897   0.24879   0.00000  Uiso   1.00
xx529  H     0.58071   0.17451   0.09620   0.00000  Uiso   1.00
xx530  H     0.55226   0.20843   0.02626   0.00000  Uiso   1.00
xx531  H     0.42496   0.29035   0.05234   0.00000  Uiso   1.00
xx532  H     0.45261   0.25590   0.12146   0.00000  Uiso   1.00
loop_
_geom_bond_atom_site_label_1
_geom_bond_atom_site_label_2
_geom_bond_distance
_geom_bond_site_symmetry_2
_ccdc_geom_bond_type
xx1    xx2     1.410   .     D
xx1    xx36    1.365   .     S
xx1    xx65    1.479   .     S
xx2    xx3     1.400   .     S
xx2    xx68    1.082   .     S
xx3    xx4     1.399   .     D
xx3    xx69    1.083   .     S
xx4    xx5     1.406   .     S
xx4    xx12    1.404   .     S
xx5    xx6     1.405   .     D
xx5    xx70    1.083   .     S
xx6    xx7     1.404   .     S
xx6    xx71    1.083   .     S
xx7    xx8     1.406   .     S
xx7    xx11    1.404   .     D
xx8    xx9     1.406   .     D
xx8    xx72    1.083   .     S
xx9    xx10    1.402   .     S
xx9    xx73    1.083   .     S
xx10   xx14    1.463   .     S
xx10   xx37    1.355   .     D
xx11   xx12    1.414   .     S
xx11   xx37    1.356   .     S
xx12   xx36    1.369   .     D
xx13   xx40    1.356   .     D
xx13   xx62    1.471   .     S
xx13   xx74    1.080   1_556 S
xx14   xx15    1.400   .     D
xx14   xx19    1.401   .     S
xx15   xx16    1.396   .     S
xx15   xx75    1.083   .     S
xx16   xx17    1.404   .     D
xx16   xx76    1.083   .     S
xx17   xx18    1.406   .     S
xx17   xx20    1.473   .     S
xx18   xx19    1.397   .     D
xx18   xx77    1.083   .     S
xx19   xx78    1.083   .     S
xx20   xx41    1.300   .     D
xx20   xx79    1.082   .     S
xx21   xx22    1.406   .     D
xx21   xx38    1.356   .     S
xx21   xx104   1.468   .     S
xx22   xx23    1.403   .     S
xx22   xx80    1.083   .     S
xx23   xx24    1.403   .     D
xx23   xx81    1.083   .     S
xx24   xx25    1.405   .     S
xx24   xx32    1.404   .     S
xx25   xx26    1.404   .     D
xx25   xx82    1.083   1_556 S
xx26   xx27    1.406   .     S
xx26   xx83    1.082   1_556 S
xx27   xx28    1.403   .     S
xx27   xx31    1.404   .     D
xx28   xx29    1.403   1_655 D
xx28   xx84    1.083   1_655 S
xx29   xx28    1.403   1_455 D
xx29   xx30    1.406   1_455 S
xx29   xx85    1.083   .     S
xx30   xx29    1.406   1_655 S
xx30   xx39    1.359   .     D
xx30   xx56    1.470   .     S
xx31   xx32    1.414   .     S
xx31   xx39    1.363   .     S
xx32   xx38    1.361   .     D
xx33   xx42    1.300   .     D
xx33   xx86    1.080   .     S
xx33   xx107   1.474   .     S
xx34   xx43    1.300   1_655 D
xx34   xx59    1.474   .     S
xx34   xx87    1.084   .     S
xx35   xx36    1.933   .     S
xx35   xx37    1.897   .     S
xx35   xx38    1.904   .     S
xx35   xx39    1.919   .     S
xx40   xx310   1.360   1_556 S
xx41   xx385   1.436   1_556 S
xx42   xx186   1.440   .     S
xx43   xx34    1.300   1_455 D
xx43   xx110   1.435   .     S
xx44   xx45    1.409   .     D
xx44   xx49    1.476   .     S
xx44   xx306   1.360   .     S
xx45   xx46    1.396   1_655 S
xx45   xx88    1.079   .     S
xx46   xx45    1.396   1_455 S
xx46   xx47    1.403   .     D
xx46   xx89    1.083   .     S
xx47   xx48    1.478   1_455 S
xx47   xx50    1.481   .     S
xx48   xx47    1.478   1_655 S
xx48   xx49    1.390   .     D
xx48   xx90    1.082   .     S
xx49   xx91    1.083   .     S
xx50   xx51    1.406   .     D
xx50   xx55    1.404   .     S
xx51   xx52    1.400   .     S
xx51   xx92    1.083   .     S
xx52   xx53    1.400   .     D
xx52   xx93    1.083   .     S
xx53   xx54    1.409   .     S
xx53   xx175   1.438   .     S
xx54   xx55    1.395   .     D
xx54   xx94    1.082   .     S
xx55   xx95    1.025   .     S
xx56   xx57    1.403   1_655 D
xx56   xx61    1.403   .     S
xx57   xx56    1.403   1_455 D
xx57   xx58    1.395   .     S
xx57   xx96    1.083   .     S
xx58   xx59    1.405   1_455 D
xx58   xx97    1.083   .     S
xx59   xx58    1.405   1_655 D
xx59   xx60    1.407   .     S
xx60   xx61    1.344   .     D
xx60   xx98    1.084   .     S
xx61   xx99    1.081   .     S
xx62   xx63    1.404   .     D
xx62   xx67    1.401   .     S
xx63   xx64    1.399   .     S
xx63   xx100   1.083   .     S
xx64   xx65    1.407   .     D
xx64   xx101   1.083   .     S
xx65   xx66    1.399   .     S
xx66   xx67    1.394   .     D
xx66   xx102   1.073   .     S
xx67   xx103   1.083   .     S
xx74   xx13    1.080   1_554 S
xx82   xx25    1.083   1_554 S
xx83   xx26    1.082   1_554 S
xx84   xx28    1.083   1_455 S
xx104  xx105   1.402   .     D
xx104  xx109   1.401   .     S
xx105  xx106   1.401   .     S
xx105  xx122   1.083   .     S
xx106  xx107   1.408   .     D
xx106  xx123   1.083   .     S
xx107  xx108   1.402   .     S
xx108  xx109   1.392   .     D
xx108  xx124   1.083   .     S
xx109  xx125   1.084   .     S
xx110  xx111   1.406   .     D
xx110  xx115   1.401   .     S
xx111  xx112   1.396   .     S
xx111  xx126   1.082   .     S
xx112  xx113   1.405   .     D
xx112  xx127   1.083   .     S
xx113  xx114   1.404   .     S
xx113  xx116   1.479   .     S
xx114  xx115   1.399   .     D
xx114  xx128   1.083   1_455 S
xx115  xx129   1.083   .     S
xx116  xx117   1.404   .     D
xx116  xx121   1.404   1_455 S
xx117  xx118   1.397   .     S
xx117  xx130   1.083   .     S
xx118  xx119   1.400   1_455 D
xx118  xx131   1.083   .     S
xx119  xx118   1.400   1_655 D
xx119  xx120   1.408   .     S
xx119  xx307   1.436   .     S
xx120  xx121   1.396   .     D
xx120  xx132   1.081   .     S
xx121  xx116   1.404   1_655 S
xx121  xx133   1.083   .     S
xx128  xx114   1.083   1_655 S
xx134  xx135   1.408   .     S
xx134  xx169   1.361   .     D
xx134  xx198   1.475   .     S
xx135  xx136   1.401   .     D
xx135  xx201   1.083   .     S
xx136  xx137   1.400   .     S
xx136  xx202   1.083   .     S
xx137  xx138   1.407   1_565 S
xx137  xx145   1.404   1_565 D
xx138  xx137   1.407   1_545 S
xx138  xx139   1.406   .     D
xx138  xx203   1.083   1_545 S
xx139  xx140   1.405   .     S
xx139  xx204   1.083   .     S
xx140  xx141   1.406   .     D
xx140  xx144   1.404   .     S
xx141  xx142   1.406   .     S
xx141  xx205   1.083   .     S
xx142  xx143   1.403   .     D
xx142  xx206   1.083   .     S
xx143  xx147   1.462   .     S
xx143  xx170   1.355   .     S
xx144  xx145   1.413   .     S
xx144  xx170   1.357   .     D
xx145  xx137   1.404   1_545 D
xx145  xx169   1.367   1_545 S
xx146  xx173   1.299   1_556 D
xx146  xx195   1.476   .     S
xx146  xx207   1.083   .     S
xx147  xx148   1.399   .     D
xx147  xx152   1.400   .     S
xx148  xx149   1.396   .     S
xx148  xx208   1.083   .     S
xx149  xx150   1.404   .     D
xx149  xx209   1.083   .     S
xx150  xx151   1.406   .     S
xx150  xx153   1.473   .     S
xx151  xx152   1.397   .     D
xx151  xx210   1.083   .     S
xx152  xx211   1.083   .     S
xx153  xx174   1.300   .     D
xx153  xx212   1.082   .     S
xx154  xx155   1.405   .     S
xx154  xx171   1.357   .     D
xx154  xx237   1.467   .     S
xx155  xx156   1.403   .     D
xx155  xx213   1.083   .     S
xx156  xx157   1.403   .     S
xx156  xx214   1.083   .     S
xx157  xx158   1.405   1_556 S
xx157  xx165   1.404   .     D
xx158  xx157   1.405   1_554 S
xx158  xx159   1.404   .     D
xx158  xx215   1.083   .     S
xx159  xx160   1.406   1_554 S
xx159  xx216   1.083   .     S
xx160  xx159   1.406   1_556 S
xx160  xx161   1.401   .     D
xx160  xx164   1.405   .     S
xx161  xx162   1.402   .     S
xx161  xx217   1.083   .     S
xx162  xx163   1.406   .     D
xx162  xx218   1.083   .     S
xx163  xx172   1.361   .     S
xx163  xx189   1.470   .     S
xx164  xx165   1.414   .     S
xx164  xx172   1.364   .     D
xx165  xx171   1.361   .     S
xx166  xx175   1.300   .     D
xx166  xx219   1.083   .     S
xx166  xx240   1.474   .     S
xx167  xx176   1.300   .     D
xx167  xx192   1.473   .     S
xx167  xx220   1.084   .     S
xx168  xx169   1.924   1_545 S
xx168  xx170   1.902   .     S
xx168  xx171   1.903   .     S
xx168  xx172   1.922   .     S
xx169  xx168   1.924   1_565 S
xx169  xx145   1.367   1_565 S
xx173  xx146   1.299   1_554 D
xx173  xx443   1.436   .     S
xx174  xx518   1.436   1_556 S
xx176  xx243   1.434   .     S
xx177  xx178   1.399   .     D
xx177  xx182   1.408   .     S
xx177  xx439   1.436   .     S
xx178  xx179   1.397   .     S
xx178  xx221   1.083   .     S
xx179  xx180   1.405   .     D
xx179  xx222   1.083   .     S
xx180  xx181   1.405   .     S
xx180  xx183   1.482   .     S
xx181  xx182   1.398   .     D
xx181  xx223   1.083   .     S
xx182  xx224   1.081   .     S
xx183  xx184   1.405   .     D
xx183  xx188   1.403   .     S
xx184  xx185   1.399   .     S
xx184  xx225   1.083   .     S
xx185  xx186   1.401   .     D
xx185  xx226   1.083   .     S
xx186  xx187   1.411   .     S
xx187  xx188   1.396   .     D
xx187  xx227   1.079   .     S
xx188  xx228   1.083   .     S
xx189  xx190   1.403   1_545 D
xx189  xx194   1.400   .     S
xx190  xx189   1.403   1_565 D
xx190  xx191   1.395   .     S
xx190  xx229   1.084   .     S
xx191  xx192   1.405   .     D
xx191  xx230   1.083   .     S
xx192  xx193   1.404   1_565 S
xx193  xx192   1.404   1_545 S
xx193  xx194   1.397   .     D
xx193  xx231   1.083   .     S
xx194  xx232   1.079   .     S
xx195  xx196   1.403   .     D
xx195  xx200   1.407   .     S
xx196  xx197   1.397   .     S
xx196  xx233   1.083   .     S
xx197  xx198   1.404   .     D
xx197  xx234   1.083   .     S
xx198  xx199   1.400   .     S
xx199  xx200   1.397   .     D
xx199  xx235   1.077   .     S
xx200  xx236   1.083   .     S
xx203  xx138   1.083   1_565 S
xx237  xx238   1.398   .     D
xx237  xx242   1.474   1_545 S
xx238  xx239   1.402   .     S
xx238  xx255   1.083   .     S
xx239  xx240   1.410   1_545 D
xx239  xx256   1.083   .     S
xx240  xx239   1.410   1_565 D
xx240  xx241   1.402   .     S
xx241  xx242   1.389   .     D
xx241  xx257   1.084   .     S
xx242  xx237   1.474   1_565 S
xx242  xx258   1.083   .     S
xx243  xx244   1.406   .     D
xx243  xx248   1.400   .     S
xx244  xx245   1.395   .     S
xx244  xx259   1.082   .     S
xx245  xx246   1.405   .     D
xx245  xx260   1.083   .     S
xx246  xx247   1.405   .     S
xx246  xx249   1.480   .     S
xx247  xx248   1.398   .     D
xx247  xx261   1.083   .     S
xx248  xx262   1.083   .     S
xx249  xx250   1.404   .     D
xx249  xx254   1.405   .     S
xx250  xx251   1.397   .     S
xx250  xx263   1.083   .     S
xx251  xx252   1.400   .     D
xx251  xx264   1.083   .     S
xx252  xx253   1.408   .     S
xx252  xx440   1.436   .     S
xx253  xx254   1.396   .     D
xx253  xx265   1.081   .     S
xx254  xx266   1.083   .     S
xx267  xx268   1.410   .     S
xx267  xx302   1.365   .     D
xx267  xx331   1.479   .     S
xx268  xx269   1.400   .     D
xx268  xx334   1.082   .     S
xx269  xx270   1.399   .     S
xx269  xx335   1.083   .     S
xx270  xx271   1.406   .     S
xx270  xx278   1.404   .     D
xx271  xx272   1.405   .     D
xx271  xx336   1.083   .     S
xx272  xx273   1.404   .     S
xx272  xx337   1.083   .     S
xx273  xx274   1.406   .     D
xx273  xx277   1.404   .     S
xx274  xx275   1.406   .     S
xx274  xx338   1.083   .     S
xx275  xx276   1.402   .     D
xx275  xx339   1.083   .     S
xx276  xx280   1.463   .     S
xx276  xx303   1.355   .     S
xx277  xx278   1.414   .     S
xx277  xx303   1.356   .     D
xx278  xx302   1.369   .     S
xx279  xx306   1.356   .     D
xx279  xx328   1.471   .     S
xx279  xx340   1.080   .     S
xx280  xx281   1.400   .     D
xx280  xx285   1.401   .     S
xx281  xx282   1.396   .     S
xx281  xx341   1.083   .     S
xx282  xx283   1.404   .     D
xx282  xx342   1.083   .     S
xx283  xx284   1.406   .     S
xx283  xx286   1.473   .     S
xx284  xx285   1.397   .     D
xx284  xx343   1.083   .     S
xx285  xx344   1.083   .     S
xx286  xx307   1.300   .     D
xx286  xx345   1.082   .     S
xx287  xx288   1.406   .     D
xx287  xx304   1.356   .     S
xx287  xx370   1.468   .     S
xx288  xx289   1.403   .     S
xx288  xx346   1.083   .     S
xx289  xx290   1.403   .     D
xx289  xx347   1.083   .     S
xx290  xx291   1.405   .     S
xx290  xx298   1.404   .     S
xx291  xx292   1.404   .     D
xx291  xx348   1.083   .     S
xx292  xx293   1.406   .     S
xx292  xx349   1.082   .     S
xx293  xx294   1.403   .     S
xx293  xx297   1.404   .     D
xx294  xx295   1.403   1_655 D
xx294  xx350   1.083   1_655 S
xx295  xx294   1.403   1_455 D
xx295  xx296   1.406   1_455 S
xx295  xx351   1.083   .     S
xx296  xx295   1.406   1_655 S
xx296  xx305   1.359   .     D
xx296  xx322   1.470   .     S
xx297  xx298   1.414   .     S
xx297  xx305   1.363   .     S
xx298  xx304   1.361   .     D
xx299  xx308   1.300   .     D
xx299  xx352   1.080   .     S
xx299  xx373   1.474   .     S
xx300  xx309   1.300   1_655 D
xx300  xx325   1.474   .     S
xx300  xx353   1.084   .     S
xx301  xx302   1.933   .     S
xx301  xx303   1.897   .     S
xx301  xx304   1.904   .     S
xx301  xx305   1.919   .     S
xx308  xx452   1.440   .     S
xx309  xx300   1.300   1_455 D
xx309  xx376   1.435   .     S
xx310  xx40    1.360   1_554 S
xx310  xx311   1.409   .     D
xx310  xx315   1.476   .     S
xx311  xx312   1.396   1_655 S
xx311  xx354   1.079   .     S
xx312  xx311   1.396   1_455 S
xx312  xx313   1.403   .     D
xx312  xx355   1.083   .     S
xx313  xx314   1.478   1_455 S
xx313  xx316   1.481   .     S
xx314  xx313   1.478   1_655 S
xx314  xx315   1.390   .     D
xx314  xx356   1.082   .     S
xx315  xx357   1.083   1_554 S
xx316  xx317   1.406   .     D
xx316  xx321   1.404   .     S
xx317  xx318   1.400   .     S
xx317  xx358   1.083   .     S
xx318  xx319   1.400   .     D
xx318  xx359   1.083   .     S
xx319  xx320   1.409   .     S
xx319  xx441   1.438   .     S
xx320  xx321   1.395   .     D
xx320  xx360   1.082   .     S
xx321  xx361   1.025   .     S
xx322  xx323   1.403   1_655 D
xx322  xx327   1.403   .     S
xx323  xx322   1.403   1_455 D
xx323  xx324   1.395   .     S
xx323  xx362   1.083   .     S
xx324  xx325   1.405   1_455 D
xx324  xx363   1.083   .     S
xx325  xx324   1.405   1_655 D
xx325  xx326   1.407   .     S
xx326  xx327   1.344   .     D
xx326  xx364   1.084   .     S
xx327  xx365   1.081   .     S
xx328  xx329   1.404   .     D
xx328  xx333   1.401   .     S
xx329  xx330   1.399   .     S
xx329  xx366   1.083   .     S
xx330  xx331   1.407   .     D
xx330  xx367   1.083   .     S
xx331  xx332   1.399   .     S
xx332  xx333   1.394   .     D
xx332  xx368   1.073   .     S
xx333  xx369   1.083   .     S
xx350  xx294   1.083   1_455 S
xx357  xx315   1.083   1_556 S
xx370  xx371   1.402   .     D
xx370  xx375   1.401   .     S
xx371  xx372   1.401   .     S
xx371  xx388   1.083   .     S
xx372  xx373   1.408   .     D
xx372  xx389   1.083   .     S
xx373  xx374   1.402   .     S
xx374  xx375   1.392   .     D
xx374  xx390   1.083   .     S
xx375  xx391   1.084   .     S
xx376  xx377   1.406   .     D
xx376  xx381   1.401   .     S
xx377  xx378   1.396   .     S
xx377  xx392   1.082   .     S
xx378  xx379   1.405   .     D
xx378  xx393   1.083   .     S
xx379  xx380   1.404   .     S
xx379  xx382   1.479   .     S
xx380  xx381   1.399   .     D
xx380  xx394   1.083   1_455 S
xx381  xx395   1.083   .     S
xx382  xx383   1.404   .     D
xx382  xx387   1.404   1_455 S
xx383  xx384   1.397   .     S
xx383  xx396   1.083   .     S
xx384  xx385   1.400   1_455 D
xx384  xx397   1.083   .     S
xx385  xx41    1.436   1_554 S
xx385  xx384   1.400   1_655 D
xx385  xx386   1.408   .     S
xx386  xx387   1.396   .     D
xx386  xx398   1.081   .     S
xx387  xx382   1.404   1_655 S
xx387  xx399   1.083   .     S
xx394  xx380   1.083   1_655 S
xx400  xx401   1.408   .     D
xx400  xx435   1.361   .     S
xx400  xx464   1.475   .     S
xx401  xx402   1.401   .     S
xx401  xx467   1.083   .     S
xx402  xx403   1.400   .     D
xx402  xx468   1.083   .     S
xx403  xx404   1.407   1_545 S
xx403  xx411   1.404   1_545 S
xx404  xx403   1.407   1_565 S
xx404  xx405   1.406   .     D
xx404  xx469   1.083   1_565 S
xx405  xx406   1.405   .     S
xx405  xx470   1.083   .     S
xx406  xx407   1.406   .     S
xx406  xx410   1.404   .     D
xx407  xx408   1.406   .     D
xx407  xx471   1.083   .     S
xx408  xx409   1.403   .     S
xx408  xx472   1.083   .     S
xx409  xx413   1.462   .     S
xx409  xx436   1.355   .     D
xx410  xx411   1.413   .     S
xx410  xx436   1.357   .     S
xx411  xx403   1.404   1_565 S
xx411  xx435   1.367   1_565 D
xx412  xx439   1.299   .     D
xx412  xx461   1.476   .     S
xx412  xx473   1.083   .     S
xx413  xx414   1.399   .     D
xx413  xx418   1.400   .     S
xx414  xx415   1.396   .     S
xx414  xx474   1.083   .     S
xx415  xx416   1.404   .     D
xx415  xx475   1.083   .     S
xx416  xx417   1.406   .     S
xx416  xx419   1.473   .     S
xx417  xx418   1.397   .     D
xx417  xx476   1.083   .     S
xx418  xx477   1.083   .     S
xx419  xx440   1.300   .     D
xx419  xx478   1.082   .     S
xx420  xx421   1.405   .     S
xx420  xx437   1.357   .     D
xx420  xx503   1.467   .     S
xx421  xx422   1.403   .     D
xx421  xx479   1.083   .     S
xx422  xx423   1.403   .     S
xx422  xx480   1.083   .     S
xx423  xx424   1.405   .     D
xx423  xx431   1.404   .     S
xx424  xx425   1.404   .     S
xx424  xx481   1.083   .     S
xx425  xx426   1.406   .     D
xx425  xx482   1.083   .     S
xx426  xx427   1.401   .     S
xx426  xx430   1.405   .     S
xx427  xx428   1.402   .     D
xx427  xx483   1.083   .     S
xx428  xx429   1.406   .     S
xx428  xx484   1.083   .     S
xx429  xx438   1.361   .     D
xx429  xx455   1.470   .     S
xx430  xx431   1.414   .     D
xx430  xx438   1.364   .     S
xx431  xx437   1.361   .     S
xx432  xx441   1.300   .     D
xx432  xx485   1.083   .     S
xx432  xx506   1.474   .     S
xx433  xx442   1.300   .     D
xx433  xx458   1.473   .     S
xx433  xx486   1.084   .     S
xx434  xx435   1.924   1_565 S
xx434  xx436   1.902   .     S
xx434  xx437   1.903   .     S
xx434  xx438   1.922   .     S
xx435  xx434   1.924   1_545 S
xx435  xx411   1.367   1_545 D
xx442  xx509   1.434   .     S
xx443  xx444   1.399   .     D
xx443  xx448   1.408   .     S
xx444  xx445   1.397   .     S
xx444  xx487   1.083   .     S
xx445  xx446   1.405   .     D
xx445  xx488   1.083   .     S
xx446  xx447   1.405   .     S
xx446  xx449   1.482   .     S
xx447  xx448   1.398   .     D
xx447  xx489   1.083   .     S
xx448  xx490   1.081   .     S
xx449  xx450   1.405   .     D
xx449  xx454   1.403   .     S
xx450  xx451   1.399   .     S
xx450  xx491   1.083   .     S
xx451  xx452   1.401   .     D
xx451  xx492   1.083   .     S
xx452  xx453   1.411   .     S
xx453  xx454   1.396   .     D
xx453  xx493   1.079   .     S
xx454  xx494   1.083   .     S
xx455  xx456   1.403   1_565 S
xx455  xx460   1.400   .     D
xx456  xx455   1.403   1_545 S
xx456  xx457   1.395   .     D
xx456  xx495   1.084   .     S
xx457  xx458   1.405   .     S
xx457  xx496   1.083   .     S
xx458  xx459   1.404   1_545 D
xx459  xx458   1.404   1_565 D
xx459  xx460   1.397   .     S
xx459  xx497   1.083   .     S
xx460  xx498   1.079   .     S
xx461  xx462   1.403   .     S
xx461  xx466   1.407   .     D
xx462  xx463   1.397   .     D
xx462  xx499   1.083   .     S
xx463  xx464   1.404   .     S
xx463  xx500   1.083   .     S
xx464  xx465   1.400   .     D
xx465  xx466   1.397   .     S
xx465  xx501   1.077   .     S
xx466  xx502   1.083   .     S
xx469  xx404   1.083   1_545 S
xx503  xx504   1.398   .     D
xx503  xx508   1.474   1_565 S
xx504  xx505   1.402   .     S
xx504  xx521   1.083   .     S
xx505  xx506   1.410   1_565 D
xx505  xx522   1.083   .     S
xx506  xx505   1.410   1_545 D
xx506  xx507   1.402   .     S
xx507  xx508   1.389   .     D
xx507  xx523   1.084   .     S
xx508  xx503   1.474   1_545 S
xx508  xx524   1.083   .     S
xx509  xx510   1.406   .     S
xx509  xx514   1.400   .     D
xx510  xx511   1.395   .     D
xx510  xx525   1.082   .     S
xx511  xx512   1.405   .     S
xx511  xx526   1.083   .     S
xx512  xx513   1.405   .     D
xx512  xx515   1.480   .     S
xx513  xx514   1.398   .     S
xx513  xx527   1.083   .     S
xx514  xx528   1.083   .     S
xx515  xx516   1.404   .     S
xx515  xx520   1.405   .     D
xx516  xx517   1.397   .     D
xx516  xx529   1.083   .     S
xx517  xx518   1.400   .     S
xx517  xx530   1.083   .     S
xx518  xx174   1.436   1_554 S
xx518  xx519   1.408   .     D
xx519  xx520   1.396   .     S
xx519  xx531   1.081   .     S
xx520  xx532   1.083   .     S
