data_133
_audit_creation_date              2023-09-08
_audit_creation_method            'Materials Studio'
_symmetry_space_group_name_H-M    'P1'
_symmetry_Int_Tables_number       1
_symmetry_cell_setting            triclinic
loop_
_symmetry_equiv_pos_as_xyz
  x,y,z
_cell_length_a                    47.7000
_cell_length_b                    47.7000
_cell_length_c                    8.0000
_cell_angle_alpha                 90.0000
_cell_angle_beta                  90.0000
_cell_angle_gamma                 120.0000
loop_
_atom_site_label
_atom_site_type_symbol
_atom_site_fract_x
_atom_site_fract_y
_atom_site_fract_z
_atom_site_U_iso_or_equiv
_atom_site_adp_type
_atom_site_occupancy
C1     C     1.21152   0.07542   0.00000   0.00000  Uiso   1.00
C2     C     1.17968   0.04722   0.00000   0.00000  Uiso   1.00
C3     C     1.17596   0.01547   0.00000   0.00000  Uiso   1.00
C4     C     1.20419   0.01179   0.00000   0.00000  Uiso   1.00
C5     C     1.23604   0.03999   0.00000   0.00000  Uiso   1.00
C6     C     1.23965   0.07188   0.00000   0.00000  Uiso   1.00
N7     N     1.14412  -0.01273   0.00000   0.00000  Uiso   1.00
C8     C     1.14050  -0.04461   0.00000   0.00000  Uiso   1.00
C9     C     1.11598  -0.00918   0.00000   0.00000  Uiso   1.00
C10    C     1.11960   0.02270   0.00000   0.00000  Uiso   1.00
C11    C     1.09137   0.02639   0.00000   0.00000  Uiso   1.00
C12    C     1.05952  -0.00181   0.00000   0.00000  Uiso   1.00
C13    C     1.05591  -0.03370   0.00000   0.00000  Uiso   1.00
C14    C     1.08414  -0.03739   0.00000   0.00000  Uiso   1.00
C15    C     1.10866  -0.07282   0.00000   0.00000  Uiso   1.00
C16    C     1.10504  -0.10470   0.00000   0.00000  Uiso   1.00
C17    C     1.13317  -0.10825   0.00000   0.00000  Uiso   1.00
C18    C     1.16502  -0.08004   0.00000   0.00000  Uiso   1.00
C19    C     1.16873  -0.04830   0.00000   0.00000  Uiso   1.00
C20    C     1.27150   0.10008   0.00000   0.00000  Uiso   1.00
C21    C     1.29973   0.09639   0.00000   0.00000  Uiso   1.00
C22    C     1.33157   0.12459   0.00000   0.00000  Uiso   1.00
C23    C     1.33519   0.15648   0.00000   0.00000  Uiso   1.00
C24    C     1.30706   0.16002   0.00000   0.00000  Uiso   1.00
C25    C     1.27521   0.13182   0.00000   0.00000  Uiso   1.00
C26    C     1.31067   0.19191   0.00000   0.00000  Uiso   1.00
C27    C     1.35980   0.12091   0.00000   0.00000  Uiso   1.00
N28    N     1.28244   0.19560   0.00000   0.00000  Uiso   1.00
C29    C     1.28606   0.22748   0.00000   0.00000  Uiso   1.00
C30    C     1.31790   0.25568   0.00000   0.00000  Uiso   1.00
C31    C     1.32161   0.28743   0.00000   0.00000  Uiso   1.00
C32    C     1.29338   0.29111   0.00000   0.00000  Uiso   1.00
C33    C     1.26154   0.26291   0.00000   0.00000  Uiso   1.00
C34    C     1.25792   0.23103   0.00000   0.00000  Uiso   1.00
N35    N     1.39165   0.14911   0.00000   0.00000  Uiso   1.00
C36    C     0.91518  -0.01536   0.00000   0.00000  Uiso   1.00
C37    C     0.91156  -0.04725   0.00000   0.00000  Uiso   1.00
C38    C     0.93979  -0.05093   0.00000   0.00000  Uiso   1.00
C39    C     0.97164  -0.02273   0.00000   0.00000  Uiso   1.00
C40    C     0.97525   0.00915   0.00000   0.00000  Uiso   1.00
C41    C     0.94702   0.01284   0.00000   0.00000  Uiso   1.00
N42    N     0.99987  -0.02642   0.00000   0.00000  Uiso   1.00
C43    C     1.03171   0.00178   0.00000   0.00000  Uiso   1.00
N44    N     1.15759  -0.14353   0.00000   0.00000  Uiso   1.00
C45    C     1.12936  -0.13985   0.00000   0.00000  Uiso   1.00
C46    C     1.41978   0.14557   0.00000   0.00000  Uiso   1.00
C47    C     1.15398  -0.17542   0.00000   0.00000  Uiso   1.00
C48    C     1.41616   0.11368   0.00000   0.00000  Uiso   1.00
C49    C     1.44440   0.11000   0.00000   0.00000  Uiso   1.00
C50    C     1.47624   0.13820   0.00000   0.00000  Uiso   1.00
C51    C     1.47986   0.17008   0.00000   0.00000  Uiso   1.00
C52    C     1.45163   0.17377   0.00000   0.00000  Uiso   1.00
C53    C     1.12213  -0.20362   0.00000   0.00000  Uiso   1.00
C54    C     1.11842  -0.23537   0.00000   0.00000  Uiso   1.00
C55    C     1.14665  -0.23905   0.00000   0.00000  Uiso   1.00
C56    C     1.17849  -0.21085   0.00000   0.00000  Uiso   1.00
C57    C     1.18211  -0.17896   0.00000   0.00000  Uiso   1.00
C58    C     1.14303  -0.27094   0.00000   0.00000  Uiso   1.00
C59    C     1.50437   0.13465   0.00000   0.00000  Uiso   1.00
C60    C     1.11119  -0.29914   0.00000   0.00000  Uiso   1.00
C61    C     1.10747  -0.33088   0.00000   0.00000  Uiso   1.00
C62    C     1.13570  -0.33457   0.00000   0.00000  Uiso   1.00
C63    C     1.16755  -0.30637   0.00000   0.00000  Uiso   1.00
C64    C     1.17117  -0.27448   0.00000   0.00000  Uiso   1.00
C65    C     1.50076   0.10277   0.00000   0.00000  Uiso   1.00
C66    C     1.52899   0.09908   0.00000   0.00000  Uiso   1.00
C67    C     1.56083   0.12728   0.00000   0.00000  Uiso   1.00
C68    C     1.56445   0.15917   0.00000   0.00000  Uiso   1.00
C69    C     1.53622   0.16286   0.00000   0.00000  Uiso   1.00
N70    N     1.13209  -0.36646   0.00000   0.00000  Uiso   1.00
N71    N     1.58906   0.12360   0.00000   0.00000  Uiso   1.00
C72    C     1.16022  -0.37000   0.00000   0.00000  Uiso   1.00
C73    C     1.62091   0.15180   0.00000   0.00000  Uiso   1.00
C74    C     1.15661  -0.40189   0.00000   0.00000  Uiso   1.00
C75    C     1.64904   0.14826   0.00000   0.00000  Uiso   1.00
C76    C     1.12476  -0.43009   0.00000   0.00000  Uiso   1.00
C77    C     1.12115  -0.46197   0.00000   0.00000  Uiso   1.00
C78    C     1.14938  -0.46566   0.00000   0.00000  Uiso   1.00
C79    C     1.18122  -0.43746   0.00000   0.00000  Uiso   1.00
C80    C     1.18484  -0.40557   0.00000   0.00000  Uiso   1.00
C81    C     1.20935  -0.44100   0.00000   0.00000  Uiso   1.00
C82    C     1.20574  -0.47289   0.00000   0.00000  Uiso   1.00
C83    C     1.23397  -0.47657   0.00000   0.00000  Uiso   1.00
C84    C     1.26581  -0.44837   0.00000   0.00000  Uiso   1.00
C85    C     1.26943  -0.41648   0.00000   0.00000  Uiso   1.00
C86    C     1.24120  -0.41280   0.00000   0.00000  Uiso   1.00
N87    N     1.29395  -0.45191   0.00000   0.00000  Uiso   1.00
C88    C     1.29033  -0.48380   0.00000   0.00000  Uiso   1.00
C89    C     1.32579  -0.42371   0.00000   0.00000  Uiso   1.00
C90    C     1.25849  -0.51200   0.00000   0.00000  Uiso   1.00
C91    C     1.25487  -0.54389   0.00000   0.00000  Uiso   1.00
C92    C     1.28310  -0.54757   0.00000   0.00000  Uiso   1.00
C93    C     1.31495  -0.51937   0.00000   0.00000  Uiso   1.00
C94    C     1.31856  -0.48749   0.00000   0.00000  Uiso   1.00
C95    C     1.35402  -0.42740   0.00000   0.00000  Uiso   1.00
C96    C     1.38587  -0.39920   0.00000   0.00000  Uiso   1.00
C97    C     1.38948  -0.36731   0.00000   0.00000  Uiso   1.00
C98    C     1.36135  -0.36377   0.00000   0.00000  Uiso   1.00
C99    C     1.32950  -0.39197   0.00000   0.00000  Uiso   1.00
C100   C     1.42133  -0.33911   0.00000   0.00000  Uiso   1.00
N101   N     1.42504  -0.30736   0.00000   0.00000  Uiso   1.00
C102   C     1.45689  -0.27916   0.00000   0.00000  Uiso   1.00
C103   C     1.48502  -0.28271   0.00000   0.00000  Uiso   1.00
C104   C     1.51686  -0.25450   0.00000   0.00000  Uiso   1.00
C105   C     1.52058  -0.22276   0.00000   0.00000  Uiso   1.00
C106   C     1.49235  -0.21907   0.00000   0.00000  Uiso   1.00
C107   C     1.46050  -0.24728   0.00000   0.00000  Uiso   1.00
C108   C     1.55242  -0.19456   0.00000   0.00000  Uiso   1.00
C109   C     1.58055  -0.19810   0.00000   0.00000  Uiso   1.00
C110   C     1.61240  -0.16990   0.00000   0.00000  Uiso   1.00
C111   C     1.61611  -0.13816   0.00000   0.00000  Uiso   1.00
C112   C     1.58788  -0.13447   0.00000   0.00000  Uiso   1.00
C113   C     1.55604  -0.16267   0.00000   0.00000  Uiso   1.00
N114   N     1.64796  -0.10995   0.00000   0.00000  Uiso   1.00
C115   C     1.65157  -0.07807   0.00000   0.00000  Uiso   1.00
C116   C     1.68342  -0.04987   0.00000   0.00000  Uiso   1.00
C117   C     1.71165  -0.05355   0.00000   0.00000  Uiso   1.00
C118   C     1.74349  -0.02535   0.00000   0.00000  Uiso   1.00
C119   C     1.74711   0.00654   0.00000   0.00000  Uiso   1.00
C120   C     1.71888   0.01022   0.00000   0.00000  Uiso   1.00
C121   C     1.68703  -0.01798   0.00000   0.00000  Uiso   1.00
C122   C     1.72259   0.04197   0.00000   0.00000  Uiso   1.00
C123   C     1.64542   0.11637   0.00000   0.00000  Uiso   1.00
C124   C     1.67365   0.11268   0.00000   0.00000  Uiso   1.00
C125   C     1.70550   0.14089   0.00000   0.00000  Uiso   1.00
C126   C     1.70912   0.17277   0.00000   0.00000  Uiso   1.00
C127   C     1.68088   0.17646   0.00000   0.00000  Uiso   1.00
C128   C     1.75444   0.07017   0.00000   0.00000  Uiso   1.00
C129   C     1.75805   0.10205   0.00000   0.00000  Uiso   1.00
C130   C     1.72982   0.10574   0.00000   0.00000  Uiso   1.00
C131   C     1.69797   0.07754   0.00000   0.00000  Uiso   1.00
C132   C     1.69436   0.04565   0.00000   0.00000  Uiso   1.00
N133   N     1.73363   0.13734   0.00000   0.00000  Uiso   1.00
C134   C     1.76558   0.16540   0.00000   0.00000  Uiso   1.00
C135   C     1.79358   0.16152   0.00000   0.00000  Uiso   1.00
C136   C     1.82543   0.18972   0.00000   0.00000  Uiso   1.00
C137   C     1.82927   0.22180   0.00000   0.00000  Uiso   1.00
C138   C     1.80081   0.22529   0.00000   0.00000  Uiso   1.00
C139   C     1.76897   0.19709   0.00000   0.00000  Uiso   1.00
C140   C     1.08930  -0.49018   0.00000   0.00000  Uiso   1.00
N141   N     1.08569  -0.52206   0.00000   0.00000  Uiso   1.00
C142   C     1.05384  -0.55026   0.00000   0.00000  Uiso   1.00
C143   C     1.02561  -0.54658   0.00000   0.00000  Uiso   1.00
C144   C     0.99377  -0.57478   0.00000   0.00000  Uiso   1.00
C145   C     0.99015  -0.60667   0.00000   0.00000  Uiso   1.00
C146   C     1.01828  -0.61021   0.00000   0.00000  Uiso   1.00
C147   C     1.05013  -0.58201   0.00000   0.00000  Uiso   1.00
C148   C     1.29700   0.32300   0.00000   0.00000  Uiso   1.00
C149   C     0.88704  -0.01182   0.00000   0.00000  Uiso   1.00
C150   C     0.95831  -0.63487   0.00000   0.00000  Uiso   1.00
C151   C     0.93008  -0.63118   0.00000   0.00000  Uiso   1.00
C152   C     0.89823  -0.65938   0.00000   0.00000  Uiso   1.00
C153   C     0.89462  -0.69127   0.00000   0.00000  Uiso   1.00
C154   C     0.92275  -0.69481   0.00000   0.00000  Uiso   1.00
C155   C     0.95459  -0.66661   0.00000   0.00000  Uiso   1.00
C156   C     0.89066   0.02007   0.00000   0.00000  Uiso   1.00
C157   C     0.86243   0.02375   0.00000   0.00000  Uiso   1.00
C158   C     0.83058  -0.00445   0.00000   0.00000  Uiso   1.00
C159   C     0.82697  -0.03634   0.00000   0.00000  Uiso   1.00
C160   C     0.85520  -0.04002   0.00000   0.00000  Uiso   1.00
C161   C     1.32884   0.35120   0.00000   0.00000  Uiso   1.00
C162   C     1.33256   0.38295   0.00000   0.00000  Uiso   1.00
C163   C     1.30433   0.38663   0.00000   0.00000  Uiso   1.00
C164   C     1.27248   0.35843   0.00000   0.00000  Uiso   1.00
C165   C     1.26887   0.32654   0.00000   0.00000  Uiso   1.00
C166   C     0.80245  -0.00091   0.00000   0.00000  Uiso   1.00
C167   C     1.30794   0.41852   0.00000   0.00000  Uiso   1.00
C168   C     0.86277  -0.71947   0.00000   0.00000  Uiso   1.00
N169   N     1.27971   0.42220   0.00000   0.00000  Uiso   1.00
N170   N     0.77061  -0.02911   0.00000   0.00000  Uiso   1.00
N171   N     0.85906  -0.75122   0.00000   0.00000  Uiso   1.00
C172   C     1.27090   1.62188   0.69856   0.00000  Uiso   1.00
C173   C     1.23905   1.59367   0.69856   0.00000  Uiso   1.00
C174   C     1.23534   1.56193   0.69856   0.00000  Uiso   1.00
C175   C     1.26357   1.55824   0.69856   0.00000  Uiso   1.00
C176   C     1.29542   1.58645   0.69856   0.00000  Uiso   1.00
C177   C     1.29903   1.61833   0.69856   0.00000  Uiso   1.00
N178   N     1.20349   1.53373   0.69856   0.00000  Uiso   1.00
C179   C     1.19988   1.50184   0.69856   0.00000  Uiso   1.00
C180   C     1.17536   1.53727   0.69856   0.00000  Uiso   1.00
C181   C     1.17898   1.56916   0.69856   0.00000  Uiso   1.00
C182   C     1.15075   1.57284   0.69856   0.00000  Uiso   1.00
C183   C     1.11890   1.54464   0.69856   0.00000  Uiso   1.00
C184   C     1.11529   1.51276   0.69856   0.00000  Uiso   1.00
C185   C     1.14352   1.50907   0.69856   0.00000  Uiso   1.00
C186   C     1.16803   1.47364   0.69856   0.00000  Uiso   1.00
C187   C     1.16442   1.44175   0.69856   0.00000  Uiso   1.00
C188   C     1.19255   1.43821   0.69856   0.00000  Uiso   1.00
C189   C     1.22440   1.46641   0.69856   0.00000  Uiso   1.00
C190   C     1.22811   1.49816   0.69856   0.00000  Uiso   1.00
C191   C     1.33088   1.64653   0.69856   0.00000  Uiso   1.00
C192   C     1.35911   1.64285   0.69856   0.00000  Uiso   1.00
C193   C     1.39095   1.67105   0.69856   0.00000  Uiso   1.00
C194   C     1.39457   1.70294   0.69856   0.00000  Uiso   1.00
C195   C     1.36643   1.70648   0.69856   0.00000  Uiso   1.00
C196   C     1.33459   1.67828   0.69856   0.00000  Uiso   1.00
C197   C     1.37005   1.73837   0.69856   0.00000  Uiso   1.00
C198   C     1.41918   1.66737   0.69856   0.00000  Uiso   1.00
N199   N     1.34182   1.74205   0.69856   0.00000  Uiso   1.00
C200   C     1.34543   1.77394   0.69856   0.00000  Uiso   1.00
C201   C     1.37728   1.80214   0.69856   0.00000  Uiso   1.00
C202   C     1.38099   1.83389   0.69856   0.00000  Uiso   1.00
C203   C     1.35276   1.83757   0.69856   0.00000  Uiso   1.00
C204   C     1.32092   1.80937   0.69856   0.00000  Uiso   1.00
C205   C     1.31730   1.77748   0.69856   0.00000  Uiso   1.00
N206   N     1.45103   1.69557   0.69856   0.00000  Uiso   1.00
C207   C     0.97455   1.53109   0.69856   0.00000  Uiso   1.00
C208   C     0.97094   1.49921   0.69856   0.00000  Uiso   1.00
C209   C     0.99917   1.49552   0.69856   0.00000  Uiso   1.00
C210   C     1.03102   1.52372   0.69856   0.00000  Uiso   1.00
C211   C     1.03463   1.55561   0.69856   0.00000  Uiso   1.00
C212   C     1.00640   1.55930   0.69856   0.00000  Uiso   1.00
N213   N     1.05925   1.52004   0.69856   0.00000  Uiso   1.00
C214   C     1.09109   1.54824   0.69856   0.00000  Uiso   1.00
N215   N     1.21697   1.40292   0.69856   0.00000  Uiso   1.00
C216   C     1.18874   1.40661   0.69856   0.00000  Uiso   1.00
C217   C     1.47916   1.69202   0.69856   0.00000  Uiso   1.00
C218   C     1.21335   1.37104   0.69856   0.00000  Uiso   1.00
C219   C     1.47554   1.66014   0.69856   0.00000  Uiso   1.00
C220   C     1.50377   1.65645   0.69856   0.00000  Uiso   1.00
C221   C     1.53562   1.68465   0.69856   0.00000  Uiso   1.00
C222   C     1.53923   1.71654   0.69856   0.00000  Uiso   1.00
C223   C     1.51100   1.72022   0.69856   0.00000  Uiso   1.00
C224   C     1.18151   1.34283   0.69856   0.00000  Uiso   1.00
C225   C     1.17780   1.31109   0.69856   0.00000  Uiso   1.00
C226   C     1.20603   1.30741   0.69856   0.00000  Uiso   1.00
C227   C     1.23787   1.33561   0.69856   0.00000  Uiso   1.00
C228   C     1.24149   1.36749   0.69856   0.00000  Uiso   1.00
C229   C     1.20241   1.27552   0.69856   0.00000  Uiso   1.00
C230   C     1.56375   1.68111   0.69856   0.00000  Uiso   1.00
C231   C     1.17057   1.24732   0.69856   0.00000  Uiso   1.00
C232   C     1.16685   1.21557   0.69856   0.00000  Uiso   1.00
C233   C     1.19508   1.21189   0.69856   0.00000  Uiso   1.00
C234   C     1.22693   1.24009   0.69856   0.00000  Uiso   1.00
C235   C     1.23054   1.27198   0.69856   0.00000  Uiso   1.00
C236   C     1.56014   1.64922   0.69856   0.00000  Uiso   1.00
C237   C     1.58837   1.64554   0.69856   0.00000  Uiso   1.00
C238   C     1.62021   1.67374   0.69856   0.00000  Uiso   1.00
C239   C     1.62383   1.70563   0.69856   0.00000  Uiso   1.00
C240   C     1.59560   1.70931   0.69856   0.00000  Uiso   1.00
N241   N     1.19147   1.18000   0.69856   0.00000  Uiso   1.00
N242   N     1.64844   1.67005   0.69856   0.00000  Uiso   1.00
C243   C     1.21960   1.17646   0.69856   0.00000  Uiso   1.00
C244   C     1.68029   1.69826   0.69856   0.00000  Uiso   1.00
C245   C     1.21598   1.14457   0.69856   0.00000  Uiso   1.00
C246   C     1.70842   1.69471   0.69856   0.00000  Uiso   1.00
C247   C     1.18414   1.11637   0.69856   0.00000  Uiso   1.00
C248   C     1.18052   1.08448   0.69856   0.00000  Uiso   1.00
C249   C     1.20875   1.08080   0.69856   0.00000  Uiso   1.00
C250   C     1.24060   1.10900   0.69856   0.00000  Uiso   1.00
C251   C     1.24422   1.14089   0.69856   0.00000  Uiso   1.00
C252   C     1.26873   1.10546   0.69856   0.00000  Uiso   1.00
C253   C     1.26512   1.07357   0.69856   0.00000  Uiso   1.00
C254   C     1.29335   1.06988   0.69856   0.00000  Uiso   1.00
C255   C     1.32519   1.09808   0.69856   0.00000  Uiso   1.00
C256   C     1.32881   1.12997   0.69856   0.00000  Uiso   1.00
C257   C     1.30058   1.13366   0.69856   0.00000  Uiso   1.00
N258   N     1.35332   1.09454   0.69856   0.00000  Uiso   1.00
C259   C     1.34971   1.06265   0.69856   0.00000  Uiso   1.00
C260   C     1.38517   1.12274   0.69856   0.00000  Uiso   1.00
C261   C     1.31786   1.03445   0.69856   0.00000  Uiso   1.00
C262   C     1.31425   1.00257   0.69856   0.00000  Uiso   1.00
C263   C     1.34248   0.99888   0.69856   0.00000  Uiso   1.00
C264   C     1.37432   1.02708   0.69856   0.00000  Uiso   1.00
C265   C     1.37794   1.05897   0.69856   0.00000  Uiso   1.00
C266   C     1.41340   1.11906   0.69856   0.00000  Uiso   1.00
C267   C     1.44524   1.14726   0.69856   0.00000  Uiso   1.00
C268   C     1.44886   1.17915   0.69856   0.00000  Uiso   1.00
C269   C     1.42073   1.18269   0.69856   0.00000  Uiso   1.00
C270   C     1.38888   1.15449   0.69856   0.00000  Uiso   1.00
C271   C     1.48070   1.20735   0.69856   0.00000  Uiso   1.00
N272   N     1.48442   1.23909   0.69856   0.00000  Uiso   1.00
C273   C     1.51626   1.26729   0.69856   0.00000  Uiso   1.00
C274   C     1.54440   1.26375   0.69856   0.00000  Uiso   1.00
C275   C     1.57624   1.29195   0.69856   0.00000  Uiso   1.00
C276   C     1.57995   1.32370   0.69856   0.00000  Uiso   1.00
C277   C     1.55172   1.32738   0.69856   0.00000  Uiso   1.00
C278   C     1.51988   1.29918   0.69856   0.00000  Uiso   1.00
C279   C     1.61180   1.35190   0.69856   0.00000  Uiso   1.00
C280   C     1.63993   1.34835   0.69856   0.00000  Uiso   1.00
C281   C     1.67178   1.37656   0.69856   0.00000  Uiso   1.00
C282   C     1.67549   1.40830   0.69856   0.00000  Uiso   1.00
C283   C     1.64726   1.41199   0.69856   0.00000  Uiso   1.00
C284   C     1.61541   1.38378   0.69856   0.00000  Uiso   1.00
N285   N     1.70733   1.43650   0.69856   0.00000  Uiso   1.00
C286   C     1.71095   1.46839   0.69856   0.00000  Uiso   1.00
C287   C     1.74279   1.49659   0.69856   0.00000  Uiso   1.00
C288   C     1.77102   1.49290   0.69856   0.00000  Uiso   1.00
C289   C     1.80287   1.52111   0.69856   0.00000  Uiso   1.00
C290   C     1.80648   1.55299   0.69856   0.00000  Uiso   1.00
C291   C     1.77825   1.55668   0.69856   0.00000  Uiso   1.00
C292   C     1.74641   1.52848   0.69856   0.00000  Uiso   1.00
C293   C     1.78197   1.58842   0.69856   0.00000  Uiso   1.00
C294   C     1.70480   1.66283   0.69856   0.00000  Uiso   1.00
C295   C     1.73303   1.65914   0.69856   0.00000  Uiso   1.00
C296   C     1.76488   1.68734   0.69856   0.00000  Uiso   1.00
C297   C     1.76849   1.71923   0.69856   0.00000  Uiso   1.00
C298   C     1.74026   1.72291   0.69856   0.00000  Uiso   1.00
C299   C     1.81381   1.61662   0.69856   0.00000  Uiso   1.00
C300   C     1.81743   1.64851   0.69856   0.00000  Uiso   1.00
C301   C     1.78920   1.65220   0.69856   0.00000  Uiso   1.00
C302   C     1.75735   1.62399   0.69856   0.00000  Uiso   1.00
C303   C     1.75374   1.59211   0.69856   0.00000  Uiso   1.00
N304   N     1.79301   1.68380   0.69856   0.00000  Uiso   1.00
C305   C     1.82495   1.71186   0.69856   0.00000  Uiso   1.00
C306   C     1.85296   1.70798   0.69856   0.00000  Uiso   1.00
C307   C     1.88481   1.73618   0.69856   0.00000  Uiso   1.00
C308   C     1.88864   1.76826   0.69856   0.00000  Uiso   1.00
C309   C     1.86019   1.77175   0.69856   0.00000  Uiso   1.00
C310   C     1.82835   1.74355   0.69856   0.00000  Uiso   1.00
C311   C     1.14868   1.05628   0.69856   0.00000  Uiso   1.00
N312   N     1.14506   1.02439   0.69856   0.00000  Uiso   1.00
C313   C     1.11322   0.99619   0.69856   0.00000  Uiso   1.00
C314   C     1.08499   0.99988   0.69856   0.00000  Uiso   1.00
C315   C     1.05314   0.97168   0.69856   0.00000  Uiso   1.00
C316   C     1.04953   0.93979   0.69856   0.00000  Uiso   1.00
C317   C     1.07766   0.93625   0.69856   0.00000  Uiso   1.00
C318   C     1.10951   0.96445   0.69856   0.00000  Uiso   1.00
C319   C     1.35638   1.86946   0.69856   0.00000  Uiso   1.00
C320   C     0.94642   1.53464   0.69856   0.00000  Uiso   1.00
C321   C     1.01768   0.91159   0.69856   0.00000  Uiso   1.00
C322   C     0.98945   0.91527   0.69856   0.00000  Uiso   1.00
C323   C     0.95761   0.88707   0.69856   0.00000  Uiso   1.00
C324   C     0.95399   0.85519   0.69856   0.00000  Uiso   1.00
C325   C     0.98213   0.85164   0.69856   0.00000  Uiso   1.00
C326   C     1.01397   0.87984   0.69856   0.00000  Uiso   1.00
C327   C     0.95004   1.56652   0.69856   0.00000  Uiso   1.00
C328   C     0.92181   1.57021   0.69856   0.00000  Uiso   1.00
C329   C     0.88996   1.54201   0.69856   0.00000  Uiso   1.00
C330   C     0.88635   1.51012   0.69856   0.00000  Uiso   1.00
C331   C     0.91458   1.50644   0.69856   0.00000  Uiso   1.00
C332   C     1.38822   1.89766   0.69856   0.00000  Uiso   1.00
C333   C     1.39194   1.92940   0.69856   0.00000  Uiso   1.00
C334   C     1.36371   1.93309   0.69856   0.00000  Uiso   1.00
C335   C     1.33186   1.90489   0.69856   0.00000  Uiso   1.00
C336   C     1.32825   1.87300   0.69856   0.00000  Uiso   1.00
C337   C     0.86183   1.54555   0.69856   0.00000  Uiso   1.00
C338   C     1.36732   1.96498   0.69856   0.00000  Uiso   1.00
C339   C     0.92215   0.82698   0.69856   0.00000  Uiso   1.00
N340   N     1.33909   1.96866   0.69856   0.00000  Uiso   1.00
N341   N     0.82999   1.51735   0.69856   0.00000  Uiso   1.00
N342   N     0.91843   0.79524   0.69856   0.00000  Uiso   1.00
H343   H     1.21441   0.10063   0.00000   0.00000  Uiso   1.00
H344   H     1.15735   0.05010   0.00000   0.00000  Uiso   1.00
H345   H     1.20128  -0.01343   0.00000   0.00000  Uiso   1.00
H346   H     1.25836   0.03711   0.00000   0.00000  Uiso   1.00
H347   H     1.14480   0.04505   0.00000   0.00000  Uiso   1.00
H348   H     1.09428   0.05161   0.00000   0.00000  Uiso   1.00
H349   H     1.03071  -0.05604   0.00000   0.00000  Uiso   1.00
H350   H     1.08123  -0.06261   0.00000   0.00000  Uiso   1.00
H351   H     1.08633  -0.06993   0.00000   0.00000  Uiso   1.00
H352   H     1.07984  -0.12704   0.00000   0.00000  Uiso   1.00
H353   H     1.18734  -0.08293   0.00000   0.00000  Uiso   1.00
H354   H     1.19397  -0.02601   0.00000   0.00000  Uiso   1.00
H355   H     1.29682   0.07117   0.00000   0.00000  Uiso   1.00
H356   H     1.36039   0.17882   0.00000   0.00000  Uiso   1.00
H357   H     1.25288   0.13471   0.00000   0.00000  Uiso   1.00
H358   H     1.33587   0.21425   0.00000   0.00000  Uiso   1.00
H359   H     1.35689   0.09569   0.00000   0.00000  Uiso   1.00
H360   H     1.34023   0.25280   0.00000   0.00000  Uiso   1.00
H361   H     1.34685   0.30972   0.00000   0.00000  Uiso   1.00
H362   H     1.23921   0.26580   0.00000   0.00000  Uiso   1.00
H363   H     1.23272   0.20868   0.00000   0.00000  Uiso   1.00
H364   H     0.88636  -0.06959   0.00000   0.00000  Uiso   1.00
H365   H     0.93688  -0.07616   0.00000   0.00000  Uiso   1.00
H366   H     1.00045   0.03150   0.00000   0.00000  Uiso   1.00
H367   H     0.94993   0.03806   0.00000   0.00000  Uiso   1.00
H368   H     1.03460   0.02699   0.00000   0.00000  Uiso   1.00
H369   H     1.10414  -0.16216   0.00000   0.00000  Uiso   1.00
H370   H     1.39097   0.09134   0.00000   0.00000  Uiso   1.00
H371   H     1.44148   0.08477   0.00000   0.00000  Uiso   1.00
H372   H     1.50505   0.19243   0.00000   0.00000  Uiso   1.00
H373   H     1.45454   0.19899   0.00000   0.00000  Uiso   1.00
H374   H     1.09981  -0.20074   0.00000   0.00000  Uiso   1.00
H375   H     1.09318  -0.25765   0.00000   0.00000  Uiso   1.00
H376   H     1.20082  -0.21373   0.00000   0.00000  Uiso   1.00
H377   H     1.20731  -0.15662   0.00000   0.00000  Uiso   1.00
H378   H     1.08886  -0.29625   0.00000   0.00000  Uiso   1.00
H379   H     1.08224  -0.35317   0.00000   0.00000  Uiso   1.00
H380   H     1.18988  -0.30925   0.00000   0.00000  Uiso   1.00
H381   H     1.19636  -0.25214   0.00000   0.00000  Uiso   1.00
H382   H     1.47556   0.08042   0.00000   0.00000  Uiso   1.00
H383   H     1.52607   0.07386   0.00000   0.00000  Uiso   1.00
H384   H     1.58965   0.18151   0.00000   0.00000  Uiso   1.00
H385   H     1.53913   0.18808   0.00000   0.00000  Uiso   1.00
H386   H     1.18540  -0.34763   0.00000   0.00000  Uiso   1.00
H387   H     1.62379   0.17701   0.00000   0.00000  Uiso   1.00
H388   H     1.10244  -0.42720   0.00000   0.00000  Uiso   1.00
H389   H     1.14646  -0.49088   0.00000   0.00000  Uiso   1.00
H390   H     1.21004  -0.38323   0.00000   0.00000  Uiso   1.00
H391   H     1.18054  -0.49523   0.00000   0.00000  Uiso   1.00
H392   H     1.23106  -0.50179   0.00000   0.00000  Uiso   1.00
H393   H     1.29463  -0.39414   0.00000   0.00000  Uiso   1.00
H394   H     1.24411  -0.38758   0.00000   0.00000  Uiso   1.00
H395   H     1.23616  -0.50912   0.00000   0.00000  Uiso   1.00
H396   H     1.22967  -0.56623   0.00000   0.00000  Uiso   1.00
H397   H     1.33727  -0.52226   0.00000   0.00000  Uiso   1.00
H398   H     1.34376  -0.46514   0.00000   0.00000  Uiso   1.00
H399   H     1.35111  -0.45262   0.00000   0.00000  Uiso   1.00
H400   H     1.40819  -0.40208   0.00000   0.00000  Uiso   1.00
H401   H     1.36417  -0.33858   0.00000   0.00000  Uiso   1.00
H402   H     1.30718  -0.38908   0.00000   0.00000  Uiso   1.00
H403   H     1.44365  -0.34199   0.00000   0.00000  Uiso   1.00
H404   H     1.48220  -0.30789   0.00000   0.00000  Uiso   1.00
H405   H     1.53919  -0.25739   0.00000   0.00000  Uiso   1.00
H406   H     1.49526  -0.19385   0.00000   0.00000  Uiso   1.00
H407   H     1.43817  -0.24439   0.00000   0.00000  Uiso   1.00
H408   H     1.57774  -0.22328   0.00000   0.00000  Uiso   1.00
H409   H     1.63472  -0.17278   0.00000   0.00000  Uiso   1.00
H410   H     1.59079  -0.10925   0.00000   0.00000  Uiso   1.00
H411   H     1.53371  -0.15979   0.00000   0.00000  Uiso   1.00
H412   H     1.62923  -0.07521   0.00000   0.00000  Uiso   1.00
H413   H     1.70873  -0.07877   0.00000   0.00000  Uiso   1.00
H414   H     1.77231   0.02888   0.00000   0.00000  Uiso   1.00
H415   H     1.66471  -0.01509   0.00000   0.00000  Uiso   1.00
H416   H     1.62023   0.09403   0.00000   0.00000  Uiso   1.00
H417   H     1.67074   0.08746   0.00000   0.00000  Uiso   1.00
H418   H     1.73431   0.19511   0.00000   0.00000  Uiso   1.00
H419   H     1.68380   0.20168   0.00000   0.00000  Uiso   1.00
H420   H     1.77676   0.06728   0.00000   0.00000  Uiso   1.00
H421   H     1.78325   0.12440   0.00000   0.00000  Uiso   1.00
H422   H     1.67565   0.08042   0.00000   0.00000  Uiso   1.00
H423   H     1.66916   0.02331   0.00000   0.00000  Uiso   1.00
H424   H     1.79051   0.13623   0.00000   0.00000  Uiso   1.00
H425   H     1.84776   0.18684   0.00000   0.00000  Uiso   1.00
H426   H     1.80356   0.25045   0.00000   0.00000  Uiso   1.00
H427   H     1.74664   0.19998   0.00000   0.00000  Uiso   1.00
H428   H     1.06698  -0.48729   0.00000   0.00000  Uiso   1.00
H429   H     1.02852  -0.52136   0.00000   0.00000  Uiso   1.00
H430   H     0.97144  -0.57189   0.00000   0.00000  Uiso   1.00
H431   H     1.01547  -0.63539   0.00000   0.00000  Uiso   1.00
H432   H     1.07245  -0.58489   0.00000   0.00000  Uiso   1.00
H433   H     0.93299  -0.60596   0.00000   0.00000  Uiso   1.00
H434   H     0.87590  -0.65650   0.00000   0.00000  Uiso   1.00
H435   H     0.91993  -0.72000   0.00000   0.00000  Uiso   1.00
H436   H     0.97692  -0.66950   0.00000   0.00000  Uiso   1.00
H437   H     0.91586   0.04241   0.00000   0.00000  Uiso   1.00
H438   H     0.86534   0.04898   0.00000   0.00000  Uiso   1.00
H439   H     0.80177  -0.05868   0.00000   0.00000  Uiso   1.00
H440   H     0.85229  -0.06524   0.00000   0.00000  Uiso   1.00
H441   H     1.35117   0.34832   0.00000   0.00000  Uiso   1.00
H442   H     1.35780   0.40523   0.00000   0.00000  Uiso   1.00
H443   H     1.25016   0.36132   0.00000   0.00000  Uiso   1.00
H444   H     1.24367   0.30420   0.00000   0.00000  Uiso   1.00
H445   H     0.80527   0.02428   0.00000   0.00000  Uiso   1.00
H446   H     1.33314   0.44086   0.00000   0.00000  Uiso   1.00
H447   H     0.84044  -0.71659   0.00000   0.00000  Uiso   1.00
H448   H     1.27378   1.64709   0.69856   0.00000  Uiso   1.00
H449   H     1.21673   1.59656   0.69856   0.00000  Uiso   1.00
H450   H     1.26066   1.53302   0.69856   0.00000  Uiso   1.00
H451   H     1.31774   1.58356   0.69856   0.00000  Uiso   1.00
H452   H     1.20418   1.59150   0.69856   0.00000  Uiso   1.00
H453   H     1.15366   1.59807   0.69856   0.00000  Uiso   1.00
H454   H     1.09009   1.49041   0.69856   0.00000  Uiso   1.00
H455   H     1.14061   1.48385   0.69856   0.00000  Uiso   1.00
H456   H     1.14571   1.47653   0.69856   0.00000  Uiso   1.00
H457   H     1.13922   1.41941   0.69856   0.00000  Uiso   1.00
H458   H     1.24672   1.46353   0.69856   0.00000  Uiso   1.00
H459   H     1.25335   1.52044   0.69856   0.00000  Uiso   1.00
H460   H     1.35619   1.61763   0.69856   0.00000  Uiso   1.00
H461   H     1.41977   1.72528   0.69856   0.00000  Uiso   1.00
H462   H     1.31226   1.68116   0.69856   0.00000  Uiso   1.00
H463   H     1.39525   1.76071   0.69856   0.00000  Uiso   1.00
H464   H     1.41627   1.64214   0.69856   0.00000  Uiso   1.00
H465   H     1.39961   1.79926   0.69856   0.00000  Uiso   1.00
H466   H     1.40623   1.85617   0.69856   0.00000  Uiso   1.00
H467   H     1.29859   1.81225   0.69856   0.00000  Uiso   1.00
H468   H     1.29210   1.75514   0.69856   0.00000  Uiso   1.00
H469   H     0.94574   1.47686   0.69856   0.00000  Uiso   1.00
H470   H     0.99626   1.47030   0.69856   0.00000  Uiso   1.00
H471   H     1.05983   1.57795   0.69856   0.00000  Uiso   1.00
H472   H     1.00931   1.58452   0.69856   0.00000  Uiso   1.00
H473   H     1.09398   1.57345   0.69856   0.00000  Uiso   1.00
H474   H     1.16352   1.38430   0.69856   0.00000  Uiso   1.00
H475   H     1.45034   1.63779   0.69856   0.00000  Uiso   1.00
H476   H     1.50086   1.63123   0.69856   0.00000  Uiso   1.00
H477   H     1.56443   1.73888   0.69856   0.00000  Uiso   1.00
H478   H     1.51392   1.74545   0.69856   0.00000  Uiso   1.00
H479   H     1.15918   1.34572   0.69856   0.00000  Uiso   1.00
H480   H     1.15256   1.28880   0.69856   0.00000  Uiso   1.00
H481   H     1.26020   1.33272   0.69856   0.00000  Uiso   1.00
H482   H     1.26669   1.38984   0.69856   0.00000  Uiso   1.00
H483   H     1.14824   1.25020   0.69856   0.00000  Uiso   1.00
H484   H     1.14161   1.19329   0.69856   0.00000  Uiso   1.00
H485   H     1.24925   1.23720   0.69856   0.00000  Uiso   1.00
H486   H     1.25574   1.29432   0.69856   0.00000  Uiso   1.00
H487   H     1.53494   1.62688   0.69856   0.00000  Uiso   1.00
H488   H     1.58545   1.62032   0.69856   0.00000  Uiso   1.00
H489   H     1.64902   1.72797   0.69856   0.00000  Uiso   1.00
H490   H     1.59851   1.73453   0.69856   0.00000  Uiso   1.00
H491   H     1.24478   1.19882   0.69856   0.00000  Uiso   1.00
H492   H     1.68317   1.72347   0.69856   0.00000  Uiso   1.00
H493   H     1.16181   1.11925   0.69856   0.00000  Uiso   1.00
H494   H     1.20584   1.05557   0.69856   0.00000  Uiso   1.00
H495   H     1.26941   1.16323   0.69856   0.00000  Uiso   1.00
H496   H     1.23992   1.05123   0.69856   0.00000  Uiso   1.00
H497   H     1.29043   1.04466   0.69856   0.00000  Uiso   1.00
H498   H     1.35401   1.15231   0.69856   0.00000  Uiso   1.00
H499   H     1.30349   1.15888   0.69856   0.00000  Uiso   1.00
H500   H     1.29554   1.03734   0.69856   0.00000  Uiso   1.00
H501   H     1.28905   0.98022   0.69856   0.00000  Uiso   1.00
H502   H     1.39665   1.02420   0.69856   0.00000  Uiso   1.00
H503   H     1.40314   1.08131   0.69856   0.00000  Uiso   1.00
H504   H     1.41049   1.09384   0.69856   0.00000  Uiso   1.00
H505   H     1.46757   1.14437   0.69856   0.00000  Uiso   1.00
H506   H     1.42354   1.20787   0.69856   0.00000  Uiso   1.00
H507   H     1.36656   1.15737   0.69856   0.00000  Uiso   1.00
H508   H     1.50303   1.20446   0.69856   0.00000  Uiso   1.00
H509   H     1.54158   1.23857   0.69856   0.00000  Uiso   1.00
H510   H     1.59857   1.28907   0.69856   0.00000  Uiso   1.00
H511   H     1.55464   1.35260   0.69856   0.00000  Uiso   1.00
H512   H     1.49755   1.30206   0.69856   0.00000  Uiso   1.00
H513   H     1.63711   1.32317   0.69856   0.00000  Uiso   1.00
H514   H     1.69410   1.37367   0.69856   0.00000  Uiso   1.00
H515   H     1.65017   1.43721   0.69856   0.00000  Uiso   1.00
H516   H     1.59309   1.38667   0.69856   0.00000  Uiso   1.00
H517   H     1.68861   1.47125   0.69856   0.00000  Uiso   1.00
H518   H     1.76811   1.46768   0.69856   0.00000  Uiso   1.00
H519   H     1.83168   1.57534   0.69856   0.00000  Uiso   1.00
H520   H     1.72408   1.53136   0.69856   0.00000  Uiso   1.00
H521   H     1.67960   1.64048   0.69856   0.00000  Uiso   1.00
H522   H     1.73012   1.63392   0.69856   0.00000  Uiso   1.00
H523   H     1.79369   1.74157   0.69856   0.00000  Uiso   1.00
H524   H     1.74318   1.74814   0.69856   0.00000  Uiso   1.00
H525   H     1.83614   1.61374   0.69856   0.00000  Uiso   1.00
H526   H     1.84263   1.67085   0.69856   0.00000  Uiso   1.00
H527   H     1.73503   1.62688   0.69856   0.00000  Uiso   1.00
H528   H     1.72854   1.56977   0.69856   0.00000  Uiso   1.00
H529   H     1.84988   1.68269   0.69856   0.00000  Uiso   1.00
H530   H     1.90713   1.73329   0.69856   0.00000  Uiso   1.00
H531   H     1.86294   1.79690   0.69856   0.00000  Uiso   1.00
H532   H     1.80602   1.74643   0.69856   0.00000  Uiso   1.00
H533   H     1.12635   1.05917   0.69856   0.00000  Uiso   1.00
H534   H     1.08790   1.02510   0.69856   0.00000  Uiso   1.00
H535   H     1.03082   0.97456   0.69856   0.00000  Uiso   1.00
H536   H     1.07484   0.91106   0.69856   0.00000  Uiso   1.00
H537   H     1.13183   0.96156   0.69856   0.00000  Uiso   1.00
H538   H     0.99237   0.94050   0.69856   0.00000  Uiso   1.00
H539   H     0.93528   0.88996   0.69856   0.00000  Uiso   1.00
H540   H     0.97931   0.82646   0.69856   0.00000  Uiso   1.00
H541   H     1.03630   0.87696   0.69856   0.00000  Uiso   1.00
H542   H     0.97524   1.58887   0.69856   0.00000  Uiso   1.00
H543   H     0.92472   1.59543   0.69856   0.00000  Uiso   1.00
H544   H     0.86115   1.48778   0.69856   0.00000  Uiso   1.00
H545   H     0.91167   1.48121   0.69856   0.00000  Uiso   1.00
H546   H     1.41055   1.89477   0.69856   0.00000  Uiso   1.00
H547   H     1.41717   1.95169   0.69856   0.00000  Uiso   1.00
H548   H     1.30953   1.90777   0.69856   0.00000  Uiso   1.00
H549   H     1.30305   1.85066   0.69856   0.00000  Uiso   1.00
H550   H     0.86465   1.57073   0.69856   0.00000  Uiso   1.00
H551   H     1.39252   1.98732   0.69856   0.00000  Uiso   1.00
H552   H     0.89982   0.82987   0.69856   0.00000  Uiso   1.00
loop_
_geom_bond_atom_site_label_1
_geom_bond_atom_site_label_2
_geom_bond_distance
_geom_bond_site_symmetry_2
_ccdc_geom_bond_type
C1     C2      1.440   .     S
C1     C6      1.434   .     D
C1     H343    1.140   .     S
C2     C3      1.434   .     D
C2     H344    1.140   .     S
C3     C4      1.442   .     S
C3     N7      1.440   .     S
C4     C5      1.440   .     D
C4     H345    1.140   .     S
C5     C6      1.443   .     S
C5     H346    1.140   .     S
C6     C20     1.440   .     S
N7     C8      1.442   .     S
N7     C9      1.434   .     S
C8     C15     1.440   .     D
C8     C19     1.443   .     S
C9     C10     1.442   .     D
C9     C14     1.440   .     S
C10    C11     1.443   .     S
C10    H347    1.140   .     S
C11    C12     1.440   .     D
C11    H348    1.140   .     S
C12    C13     1.443   .     S
C12    C43     1.420   .     S
C13    C14     1.443   .     D
C13    H349    1.140   .     S
C14    H350    1.140   .     S
C15    C16     1.442   .     S
C15    H351    1.140   .     S
C16    C17     1.434   .     D
C16    H352    1.140   .     S
C17    C18     1.440   .     S
C17    C45     1.425   .     S
C18    C19     1.434   .     D
C18    H353    1.140   .     S
C19    H354    1.140   .     S
C20    C21     1.443   .     D
C20    C25     1.434   .     S
C21    C22     1.440   .     S
C21    H355    1.140   .     S
C22    C23     1.443   .     D
C22    C27     1.442   .     S
C23    C24     1.434   .     S
C23    H356    1.140   .     S
C24    C25     1.440   .     D
C24    C26     1.443   .     S
C25    H357    1.140   .     S
C26    N28     1.443   .     D
C26    H358    1.140   .     S
C27    N35     1.440   .     D
C27    H359    1.140   .     S
N28    C29     1.442   .     S
C29    C30     1.440   .     D
C29    C34     1.434   .     S
C30    C31     1.434   .     S
C30    H360    1.140   .     S
C31    C32     1.442   .     D
C31    H361    1.140   .     S
C32    C33     1.440   .     S
C32    C148    1.443   .     S
C33    C34     1.442   .     D
C33    H362    1.140   .     S
C34    H363    1.140   .     S
N35    C46     1.434   .     S
C36    C37     1.443   .     D
C36    C41     1.440   .     S
C36    C149    1.434   .     S
C37    C38     1.442   .     S
C37    H364    1.140   .     S
C38    C39     1.440   .     D
C38    H365    1.140   .     S
C39    C40     1.442   .     S
C39    N42     1.443   .     S
C40    C41     1.443   .     D
C40    H366    1.140   .     S
C41    H367    1.140   .     S
N42    C43     1.440   .     D
C43    H368    1.140   .     S
N44    C45     1.442   .     D
N44    C47     1.443   .     S
C45    H369    1.140   .     S
C46    C48     1.443   .     D
C46    C52     1.440   .     S
C47    C53     1.440   .     D
C47    C57     1.434   .     S
C48    C49     1.443   .     S
C48    H370    1.140   .     S
C49    C50     1.440   .     D
C49    H371    1.140   .     S
C50    C51     1.442   .     S
C50    C59     1.434   .     S
C51    C52     1.443   .     D
C51    H372    1.140   .     S
C52    H373    1.140   .     S
C53    C54     1.434   .     S
C53    H374    1.140   .     S
C54    C55     1.442   .     D
C54    H375    1.140   .     S
C55    C56     1.440   .     S
C55    C58     1.443   .     S
C56    C57     1.443   .     D
C56    H376    1.140   .     S
C57    H377    1.140   .     S
C58    C60     1.440   .     D
C58    C64     1.434   .     S
C59    C65     1.442   .     D
C59    C69     1.440   .     S
C60    C61     1.434   .     S
C60    H378    1.140   .     S
C61    C62     1.443   .     D
C61    H379    1.140   .     S
C62    C63     1.440   .     S
C62    N70     1.443   .     S
C63    C64     1.443   .     D
C63    H380    1.140   .     S
C64    H381    1.140   .     S
C65    C66     1.443   .     S
C65    H382    1.140   .     S
C66    C67     1.440   .     D
C66    H383    1.140   .     S
C67    C68     1.443   .     S
C67    N71     1.442   .     S
C68    C69     1.443   .     D
C68    H384    1.140   .     S
C69    H385    1.140   .     S
N70    C72     1.434   .     D
N71    C73     1.440   .     D
C72    C74     1.443   .     S
C72    H386    1.140   .     S
C73    C75     1.434   .     S
C73    H387    1.140   .     S
C74    C76     1.440   .     D
C74    C80     1.442   .     S
C75    C123    1.443   .     D
C75    C127    1.440   .     S
C76    C77     1.442   .     S
C76    H388    1.140   .     S
C77    C78     1.443   .     D
C77    C140    1.440   .     S
C78    C79     1.440   .     S
C78    H389    1.140   .     S
C79    C80     1.443   .     D
C79    C81     1.434   .     S
C80    H390    1.140   .     S
C81    C82     1.443   .     D
C81    C86     1.440   .     S
C82    C83     1.442   .     S
C82    H391    1.140   .     S
C83    C84     1.440   .     D
C83    H392    1.140   .     S
C84    C85     1.443   .     S
C84    N87     1.434   .     S
C85    C86     1.442   .     D
C85    H393    1.140   .     S
C86    H394    1.140   .     S
N87    C88     1.443   .     S
N87    C89     1.440   .     S
C88    C90     1.440   .     D
C88    C94     1.443   .     S
C89    C95     1.443   .     D
C89    C99     1.434   .     S
C90    C91     1.443   .     S
C90    H395    1.140   .     S
C91    C92     1.442   .     D
C91    H396    1.140   .     S
C92    C93     1.440   .     S
C92    N169    1.368   1_545 S
C93    C94     1.442   .     D
C93    H397    1.140   .     S
C94    H398    1.140   .     S
C95    C96     1.440   .     S
C95    H399    1.140   .     S
C96    C97     1.443   .     D
C96    H400    1.140   .     S
C97    C98     1.434   .     S
C97    C100    1.440   .     S
C98    C99     1.440   .     D
C98    H401    1.140   .     S
C99    H402    1.140   .     S
C100   N101    1.434   .     D
C100   H403    1.140   .     S
N101   C102    1.440   .     S
C102   C103    1.434   .     S
C102   C107    1.442   .     D
C103   C104    1.440   .     D
C103   H404    1.140   .     S
C104   C105    1.434   .     S
C104   H405    1.140   .     S
C105   C106    1.443   .     D
C105   C108    1.440   .     S
C106   C107    1.440   .     S
C106   H406    1.140   .     S
C107   H407    1.140   .     S
C108   C109    1.434   .     S
C108   C113    1.443   .     D
C109   C110    1.440   .     D
C109   H408    1.140   .     S
C110   C111    1.434   .     S
C110   H409    1.140   .     S
C111   C112    1.443   .     D
C111   N114    1.440   .     S
C112   C113    1.440   .     S
C112   H410    1.140   .     S
C113   H411    1.140   .     S
N114   C115    1.442   .     D
C115   C116    1.440   .     S
C115   H412    1.140   .     S
C116   C117    1.442   .     S
C116   C121    1.443   .     D
C117   C118    1.440   .     D
C117   H413    1.140   .     S
C118   C119    1.443   .     S
C118   N170    1.392   1_655 S
C119   C120    1.442   .     D
C119   H414    1.140   .     S
C120   C121    1.440   .     S
C120   C122    1.434   .     S
C121   H415    1.140   .     S
C122   C128    1.440   .     D
C122   C132    1.442   .     S
C123   C124    1.443   .     S
C123   H416    1.140   .     S
C124   C125    1.440   .     D
C124   H417    1.140   .     S
C125   C126    1.442   .     S
C125   N133    1.434   .     S
C126   C127    1.443   .     D
C126   H418    1.140   .     S
C127   H419    1.140   .     S
C128   C129    1.442   .     S
C128   H420    1.140   .     S
C129   C130    1.443   .     D
C129   H421    1.140   .     S
C130   C131    1.440   .     S
C130   N133    1.425   .     S
C131   C132    1.443   .     D
C131   H422    1.140   .     S
C132   H423    1.140   .     S
N133   C134    1.440   .     S
C134   C135    1.437   .     D
C134   C139    1.438   .     S
C135   C136    1.440   .     S
C135   H424    1.140   .     S
C136   C137    1.447   .     D
C136   H425    1.140   .     S
C137   C138    1.448   .     S
C137   N171    1.359   1_665 S
C138   C139    1.440   .     D
C138   H426    1.140   .     S
C139   H427    1.140   .     S
C140   N141    1.442   .     D
C140   H428    1.140   .     S
N141   C142    1.440   .     S
C142   C143    1.442   .     D
C142   C147    1.434   .     S
C143   C144    1.440   .     S
C143   H429    1.140   .     S
C144   C145    1.443   .     D
C144   H430    1.140   .     S
C145   C146    1.434   .     S
C145   C150    1.440   .     S
C146   C147    1.440   .     D
C146   H431    1.140   .     S
C147   H432    1.140   .     S
C148   C161    1.440   .     D
C148   C165    1.434   .     S
C149   C156    1.443   .     D
C149   C160    1.440   .     S
C150   C151    1.443   .     D
C150   C155    1.434   .     S
C151   C152    1.440   .     S
C151   H433    1.140   .     S
C152   C153    1.443   .     D
C152   H434    1.140   .     S
C153   C154    1.434   .     S
C153   C168    1.440   .     S
C154   C155    1.440   .     D
C154   H435    1.140   .     S
C155   H436    1.140   .     S
C156   C157    1.442   .     S
C156   H437    1.140   .     S
C157   C158    1.440   .     D
C157   H438    1.140   .     S
C158   C159    1.443   .     S
C158   C166    1.434   .     S
C159   C160    1.442   .     D
C159   H439    1.140   .     S
C160   H440    1.140   .     S
C161   C162    1.434   .     S
C161   H441    1.140   .     S
C162   C163    1.442   .     D
C162   H442    1.140   .     S
C163   C164    1.440   .     S
C163   C167    1.443   .     S
C164   C165    1.443   .     D
C164   H443    1.140   .     S
C165   H444    1.140   .     S
C166   N170    1.440   .     D
C166   H445    1.140   .     S
C167   N169    1.442   .     D
C167   H446    1.140   .     S
C168   N171    1.434   .     D
C168   H447    1.140   .     S
N169   C92     1.368   1_565 S
N170   C118    1.392   1_455 S
N171   C137    1.359   1_445 S
C172   C173    1.440   .     S
C172   C177    1.434   .     D
C172   H448    1.140   .     S
C173   C174    1.434   .     D
C173   H449    1.140   .     S
C174   C175    1.443   .     S
C174   N178    1.440   .     S
C175   C176    1.440   .     D
C175   H450    1.140   .     S
C176   C177    1.442   .     S
C176   H451    1.140   .     S
C177   C191    1.440   .     S
N178   C179    1.443   .     S
N178   C180    1.434   .     S
C179   C186    1.440   .     D
C179   C190    1.442   .     S
C180   C181    1.443   .     D
C180   C185    1.440   .     S
C181   C182    1.442   .     S
C181   H452    1.140   .     S
C182   C183    1.440   .     D
C182   H453    1.140   .     S
C183   C184    1.442   .     S
C183   C214    1.420   .     S
C184   C185    1.443   .     D
C184   H454    1.140   .     S
C185   H455    1.140   .     S
C186   C187    1.443   .     S
C186   H456    1.140   .     S
C187   C188    1.434   .     D
C187   H457    1.140   .     S
C188   C189    1.440   .     S
C188   C216    1.425   .     S
C189   C190    1.434   .     D
C189   H458    1.140   .     S
C190   H459    1.140   .     S
C191   C192    1.442   .     D
C191   C196    1.434   .     S
C192   C193    1.440   .     S
C192   H460    1.140   .     S
C193   C194    1.443   .     D
C193   C198    1.442   .     S
C194   C195    1.434   .     S
C194   H461    1.140   .     S
C195   C196    1.440   .     D
C195   C197    1.443   .     S
C196   H462    1.140   .     S
C197   N199    1.442   .     D
C197   H463    1.140   .     S
C198   N206    1.440   .     D
C198   H464    1.140   .     S
N199   C200    1.443   .     S
C200   C201    1.440   .     D
C200   C205    1.434   .     S
C201   C202    1.434   .     S
C201   H465    1.140   .     S
C202   C203    1.442   .     D
C202   H466    1.140   .     S
C203   C204    1.440   .     S
C203   C319    1.443   .     S
C204   C205    1.443   .     D
C204   H467    1.140   .     S
C205   H468    1.140   .     S
N206   C217    1.434   .     S
C207   C208    1.442   .     D
C207   C212    1.440   .     S
C207   C320    1.434   .     S
C208   C209    1.443   .     S
C208   H469    1.140   .     S
C209   C210    1.440   .     D
C209   H470    1.140   .     S
C210   C211    1.443   .     S
C210   N213    1.442   .     S
C211   C212    1.443   .     D
C211   H471    1.140   .     S
C212   H472    1.140   .     S
N213   C214    1.440   .     D
C214   H473    1.140   .     S
N215   C216    1.443   .     D
N215   C218    1.442   .     S
C216   H474    1.140   .     S
C217   C219    1.442   .     D
C217   C223    1.440   .     S
C218   C224    1.440   .     D
C218   C228    1.434   .     S
C219   C220    1.443   .     S
C219   H475    1.140   .     S
C220   C221    1.440   .     D
C220   H476    1.140   .     S
C221   C222    1.443   .     S
C221   C230    1.434   .     S
C222   C223    1.442   .     D
C222   H477    1.140   .     S
C223   H478    1.140   .     S
C224   C225    1.434   .     S
C224   H479    1.140   .     S
C225   C226    1.442   .     D
C225   H480    1.140   .     S
C226   C227    1.440   .     S
C226   C229    1.443   .     S
C227   C228    1.442   .     D
C227   H481    1.140   .     S
C228   H482    1.140   .     S
C229   C231    1.440   .     D
C229   C235    1.434   .     S
C230   C236    1.443   .     D
C230   C240    1.440   .     S
C231   C232    1.434   .     S
C231   H483    1.140   .     S
C232   C233    1.442   .     D
C232   H484    1.140   .     S
C233   C234    1.440   .     S
C233   N241    1.443   .     S
C234   C235    1.443   .     D
C234   H485    1.140   .     S
C235   H486    1.140   .     S
C236   C237    1.442   .     S
C236   H487    1.140   .     S
C237   C238    1.440   .     D
C237   H488    1.140   .     S
C238   C239    1.443   .     S
C238   N242    1.443   .     S
C239   C240    1.442   .     D
C239   H489    1.140   .     S
C240   H490    1.140   .     S
N241   C243    1.434   .     D
N242   C244    1.440   .     D
C243   C245    1.443   .     S
C243   H491    1.140   .     S
C244   C246    1.434   .     S
C244   H492    1.140   .     S
C245   C247    1.440   .     D
C245   C251    1.443   .     S
C246   C294    1.442   .     D
C246   C298    1.440   .     S
C247   C248    1.443   .     S
C247   H493    1.140   .     S
C248   C249    1.442   .     D
C248   C311    1.440   .     S
C249   C250    1.440   .     S
C249   H494    1.140   .     S
C250   C251    1.443   .     D
C250   C252    1.434   .     S
C251   H495    1.140   .     S
C252   C253    1.443   .     D
C252   C257    1.440   .     S
C253   C254    1.443   .     S
C253   H496    1.140   .     S
C254   C255    1.440   .     D
C254   H497    1.140   .     S
C255   C256    1.443   .     S
C255   N258    1.434   .     S
C256   C257    1.443   .     D
C256   H498    1.140   .     S
C257   H499    1.140   .     S
N258   C259    1.443   .     S
N258   C260    1.440   .     S
C259   C261    1.440   .     D
C259   C265    1.442   .     S
C260   C266    1.442   .     D
C260   C270    1.434   .     S
C261   C262    1.442   .     S
C261   H500    1.140   .     S
C262   C263    1.443   .     D
C262   H501    1.140   .     S
C263   C264    1.440   .     S
C263   N340    1.368   1_545 S
C264   C265    1.443   .     D
C264   H502    1.140   .     S
C265   H503    1.140   .     S
C266   C267    1.440   .     S
C266   H504    1.140   .     S
C267   C268    1.443   .     D
C267   H505    1.140   .     S
C268   C269    1.434   .     S
C268   C271    1.440   .     S
C269   C270    1.440   .     D
C269   H506    1.140   .     S
C270   H507    1.140   .     S
C271   N272    1.434   .     D
C271   H508    1.140   .     S
N272   C273    1.440   .     S
C273   C274    1.434   .     S
C273   C278    1.443   .     D
C274   C275    1.440   .     D
C274   H509    1.140   .     S
C275   C276    1.434   .     S
C275   H510    1.140   .     S
C276   C277    1.442   .     D
C276   C279    1.440   .     S
C277   C278    1.440   .     S
C277   H511    1.140   .     S
C278   H512    1.140   .     S
C279   C280    1.434   .     S
C279   C284    1.442   .     D
C280   C281    1.440   .     D
C280   H513    1.140   .     S
C281   C282    1.434   .     S
C281   H514    1.140   .     S
C282   C283    1.443   .     D
C282   N285    1.440   .     S
C283   C284    1.440   .     S
C283   H515    1.140   .     S
C284   H516    1.140   .     S
N285   C286    1.443   .     D
C286   C287    1.440   .     S
C286   H517    1.140   .     S
C287   C288    1.443   .     S
C287   C292    1.443   .     D
C288   C289    1.440   .     D
C288   H518    1.140   .     S
C289   C290    1.442   .     S
C289   N341    1.392   1_655 S
C290   C291    1.443   .     D
C290   H519    1.140   .     S
C291   C292    1.440   .     S
C291   C293    1.434   .     S
C292   H520    1.140   .     S
C293   C299    1.440   .     D
C293   C303    1.443   .     S
C294   C295    1.443   .     S
C294   H521    1.140   .     S
C295   C296    1.440   .     D
C295   H522    1.140   .     S
C296   C297    1.443   .     S
C296   N304    1.434   .     S
C297   C298    1.442   .     D
C297   H523    1.140   .     S
C298   H524    1.140   .     S
C299   C300    1.443   .     S
C299   H525    1.140   .     S
C300   C301    1.443   .     D
C300   H526    1.140   .     S
C301   C302    1.440   .     S
C301   N304    1.425   .     S
C302   C303    1.442   .     D
C302   H527    1.140   .     S
C303   H528    1.140   .     S
N304   C305    1.440   .     S
C305   C306    1.438   .     D
C305   C310    1.437   .     S
C306   C307    1.440   .     S
C306   H529    1.140   .     S
C307   C308    1.448   .     D
C307   H530    1.140   .     S
C308   C309    1.447   .     S
C308   N342    1.359   1_665 S
C309   C310    1.440   .     D
C309   H531    1.140   .     S
C310   H532    1.140   .     S
C311   N312    1.443   .     D
C311   H533    1.140   .     S
N312   C313    1.440   .     S
C313   C314    1.443   .     D
C313   C318    1.434   .     S
C314   C315    1.440   .     S
C314   H534    1.140   .     S
C315   C316    1.443   .     D
C315   H535    1.140   .     S
C316   C317    1.434   .     S
C316   C321    1.440   .     S
C317   C318    1.440   .     D
C317   H536    1.140   .     S
C318   H537    1.140   .     S
C319   C332    1.440   .     D
C319   C336    1.434   .     S
C320   C327    1.442   .     D
C320   C331    1.440   .     S
C321   C322    1.442   .     D
C321   C326    1.434   .     S
C322   C323    1.440   .     S
C322   H538    1.140   .     S
C323   C324    1.442   .     D
C323   H539    1.140   .     S
C324   C325    1.434   .     S
C324   C339    1.440   .     S
C325   C326    1.440   .     D
C325   H540    1.140   .     S
C326   H541    1.140   .     S
C327   C328    1.443   .     S
C327   H542    1.140   .     S
C328   C329    1.440   .     D
C328   H543    1.140   .     S
C329   C330    1.443   .     S
C329   C337    1.434   .     S
C330   C331    1.442   .     D
C330   H544    1.140   .     S
C331   H545    1.140   .     S
C332   C333    1.434   .     S
C332   H546    1.140   .     S
C333   C334    1.443   .     D
C333   H547    1.140   .     S
C334   C335    1.440   .     S
C334   C338    1.443   .     S
C335   C336    1.443   .     D
C335   H548    1.140   .     S
C336   H549    1.140   .     S
C337   N341    1.440   .     D
C337   H550    1.140   .     S
C338   N340    1.442   .     D
C338   H551    1.140   .     S
C339   N342    1.434   .     D
C339   H552    1.140   .     S
N340   C263    1.368   1_565 S
N341   C289    1.392   1_455 S
N342   C308    1.359   1_445 S
H344   H347    0.522   .     S
H345   H354    0.522   .     S
H350   H351    0.516   .     S
H392   H395    0.516   .     S
H393   H402    0.522   .     S
H398   H399    0.520   .     S
H417   H422    0.496   .     S
H418   H427    0.513   .     S
H421   H424    0.493   .     S
H449   H452    0.522   .     S
H450   H459    0.522   .     S
H455   H456    0.516   .     S
H497   H500    0.516   .     S
H498   H507    0.522   .     S
H503   H504    0.520   .     S
H522   H527    0.496   .     S
H523   H532    0.513   .     S
H526   H529    0.493   .     S
