data_134
_audit_creation_date              2023-09-08
_audit_creation_method            'Materials Studio'
_symmetry_space_group_name_H-M    'P1'
_symmetry_Int_Tables_number       1
_symmetry_cell_setting            triclinic
loop_
_symmetry_equiv_pos_as_xyz
  x,y,z
_cell_length_a                    39.1600
_cell_length_b                    39.1600
_cell_length_c                    8.0000
_cell_angle_alpha                 90.0000
_cell_angle_beta                  90.0000
_cell_angle_gamma                 120.0000
loop_
_atom_site_label
_atom_site_type_symbol
_atom_site_fract_x
_atom_site_fract_y
_atom_site_fract_z
_atom_site_U_iso_or_equiv
_atom_site_adp_type
_atom_site_occupancy
C1     C     1.48956  -1.99625  -0.01284   0.00000  Uiso   1.00
C2     C     1.45019  -2.02970  -0.00970   0.00000  Uiso   1.00
C3     C     1.44432  -2.06912  -0.00813   0.00000  Uiso   1.00
C4     C     1.47781  -2.07509  -0.00970   0.00000  Uiso   1.00
C5     C     1.51717  -2.04163  -0.01284   0.00000  Uiso   1.00
C6     C     1.52305  -2.00221  -0.01441   0.00000  Uiso   1.00
N7     N     1.40496  -2.10258  -0.00499   0.00000  Uiso   1.00
C8     C     1.39908  -2.14200  -0.00342   0.00000  Uiso   1.00
C9     C     1.37147  -2.09661  -0.00342   0.00000  Uiso   1.00
C10    C     1.37734  -2.05719  -0.00499   0.00000  Uiso   1.00
C11    C     1.34396  -2.05141  -0.00342   0.00000  Uiso   1.00
C12    C     1.30460  -2.08486  -0.00028   0.00000  Uiso   1.00
C13    C     1.29862  -2.12410   0.00130   0.00000  Uiso   1.00
C14    C     1.33211  -2.13007  -0.00028   0.00000  Uiso   1.00
C15    C     1.35972  -2.17545  -0.00028   0.00000  Uiso   1.00
C16    C     1.35374  -2.21469   0.00130   0.00000  Uiso   1.00
C17    C     1.38722  -2.22065  -0.00028   0.00000  Uiso   1.00
C18    C     1.42659  -2.18720  -0.00342   0.00000  Uiso   1.00
C19    C     1.43246  -2.14778  -0.00499   0.00000  Uiso   1.00
C20    C     1.56241  -1.96876  -0.01755   0.00000  Uiso   1.00
C21    C     1.59590  -1.97472  -0.01912   0.00000  Uiso   1.00
C22    C     1.63526  -1.94127  -0.02227   0.00000  Uiso   1.00
C23    C     1.64114  -1.90185  -0.02384   0.00000  Uiso   1.00
C24    C     1.60765  -1.89588  -0.02227   0.00000  Uiso   1.00
C25    C     1.56828  -1.92934  -0.01912   0.00000  Uiso   1.00
C26    C     1.61352  -1.85646  -0.02384   0.00000  Uiso   1.00
C27    C     1.66864  -1.94705  -0.02384   0.00000  Uiso   1.00
N28    N     1.58014  -1.85068  -0.02227   0.00000  Uiso   1.00
C29    C     1.58602  -1.81126  -0.02384   0.00000  Uiso   1.00
C30    C     1.62538  -1.77781  -0.02698   0.00000  Uiso   1.00
C31    C     1.63125  -1.73839  -0.02855   0.00000  Uiso   1.00
C32    C     1.59788  -1.73260  -0.02698   0.00000  Uiso   1.00
C33    C     1.55851  -1.76606  -0.02384   0.00000  Uiso   1.00
C34    C     1.55253  -1.80530  -0.02227   0.00000  Uiso   1.00
N35    N     1.70800  -1.91360  -0.02698   0.00000  Uiso   1.00
C36    C     1.74149  -1.91956  -0.02855   0.00000  Uiso   1.00
C37    C     1.73562  -1.95898  -0.02698   0.00000  Uiso   1.00
C38    C     1.76900  -1.96477  -0.02855   0.00000  Uiso   1.00
C39    C     1.80836  -1.93131  -0.03169   0.00000  Uiso   1.00
C40    C     1.81434  -1.89207  -0.03326   0.00000  Uiso   1.00
C41    C     1.78085  -1.88611  -0.03169   0.00000  Uiso   1.00
N42    N     1.84185  -1.93728  -0.03326   0.00000  Uiso   1.00
C43    C     1.88121  -1.90382  -0.03640   0.00000  Uiso   1.00
C44    C     1.13178  -2.09459   0.00913   0.00000  Uiso   1.00
C45    C     1.12590  -2.13401   0.01070   0.00000  Uiso   1.00
C46    C     1.15939  -2.13997   0.00913   0.00000  Uiso   1.00
C47    C     1.19875  -2.10652   0.00599   0.00000  Uiso   1.00
C48    C     1.20463  -2.06710   0.00442   0.00000  Uiso   1.00
C49    C     1.17114  -2.06113   0.00599   0.00000  Uiso   1.00
N50    N     1.23213  -2.11230   0.00442   0.00000  Uiso   1.00
C51    C     1.27150  -2.07885   0.00127   0.00000  Uiso   1.00
N52    N     1.58942  -2.70017   0.00444   0.00000  Uiso   1.00
C53    C     1.55593  -2.69421   0.00601   0.00000  Uiso   1.00
C54    C     1.47363  -2.55896   0.00601   0.00000  Uiso   1.00
C55    C     1.50701  -2.56475   0.00444   0.00000  Uiso   1.00
C56    C     1.54638  -2.53129   0.00130   0.00000  Uiso   1.00
C57    C     1.55236  -2.49205  -0.00028   0.00000  Uiso   1.00
C58    C     1.51887  -2.48609   0.00130   0.00000  Uiso   1.00
C59    C     1.47951  -2.51954   0.00444   0.00000  Uiso   1.00
N60    N     1.57987  -2.53726  -0.00028   0.00000  Uiso   1.00
C61    C     1.61923  -2.50380  -0.00342   0.00000  Uiso   1.00
C62    C     1.57399  -2.57668   0.00130   0.00000  Uiso   1.00
C63    C     1.53463  -2.61013   0.00444   0.00000  Uiso   1.00
C64    C     1.52864  -2.64937   0.00601   0.00000  Uiso   1.00
C65    C     1.56213  -2.65533   0.00444   0.00000  Uiso   1.00
C66    C     1.60150  -2.62188   0.00130   0.00000  Uiso   1.00
C67    C     1.60737  -2.58246  -0.00028   0.00000  Uiso   1.00
C68    C     1.65272  -2.50977  -0.00499   0.00000  Uiso   1.00
C69    C     1.69208  -2.47631  -0.00813   0.00000  Uiso   1.00
C70    C     1.69795  -2.43689  -0.00970   0.00000  Uiso   1.00
C71    C     1.66447  -2.43093  -0.00813   0.00000  Uiso   1.00
C72    C     1.62510  -2.46438  -0.00499   0.00000  Uiso   1.00
C73    C     1.44602  -2.51358   0.00601   0.00000  Uiso   1.00
C74    C     1.45189  -2.47416   0.00444   0.00000  Uiso   1.00
C75    C     1.41852  -2.46838   0.00601   0.00000  Uiso   1.00
C76    C     1.37915  -2.50183   0.00915   0.00000  Uiso   1.00
C77    C     1.37317  -2.54107   0.01072   0.00000  Uiso   1.00
C78    C     1.40666  -2.54703   0.00915   0.00000  Uiso   1.00
C79    C     1.33380  -2.57452   0.01386   0.00000  Uiso   1.00
C80    C     1.42439  -2.42896   0.00444   0.00000  Uiso   1.00
N81    N     1.32793  -2.61394   0.01543   0.00000  Uiso   1.00
C82    C     1.28857  -2.64740   0.01857   0.00000  Uiso   1.00
C83    C     1.25508  -2.64143   0.02014   0.00000  Uiso   1.00
C84    C     1.21572  -2.67489   0.02329   0.00000  Uiso   1.00
C85    C     1.20984  -2.71431   0.02486   0.00000  Uiso   1.00
C86    C     1.24333  -2.72027   0.02329   0.00000  Uiso   1.00
C87    C     1.28269  -2.68682   0.02014   0.00000  Uiso   1.00
N88    N     1.39090  -2.42299   0.00601   0.00000  Uiso   1.00
C89    C     1.39689  -2.38375   0.00444   0.00000  Uiso   1.00
C90    C     1.43625  -2.35030   0.00130   0.00000  Uiso   1.00
C91    C     1.44212  -2.31088  -0.00028   0.00000  Uiso   1.00
C92    C     1.40863  -2.30491   0.00130   0.00000  Uiso   1.00
C93    C     1.36927  -2.33837   0.00444   0.00000  Uiso   1.00
C94    C     1.36340  -2.37779   0.00601   0.00000  Uiso   1.00
N95    N     1.41451  -2.26549  -0.00028   0.00000  Uiso   1.00
C96    C     1.38113  -2.25971   0.00130   0.00000  Uiso   1.00
C97    C     2.03630  -2.01217  -0.04109   0.00000  Uiso   1.00
C98    C     2.04218  -1.97275  -0.04266   0.00000  Uiso   1.00
C99    C     2.00869  -1.96679  -0.04109   0.00000  Uiso   1.00
C100   C     1.96933  -2.00024  -0.03795   0.00000  Uiso   1.00
C101   C     1.96345  -2.03966  -0.03638   0.00000  Uiso   1.00
C102   C     1.99694  -2.04563  -0.03795   0.00000  Uiso   1.00
N103   N     2.01467  -1.92755  -0.04266   0.00000  Uiso   1.00
C104   C     1.98118  -1.92159  -0.04109   0.00000  Uiso   1.00
C105   C     2.05404  -1.89410  -0.04580   0.00000  Uiso   1.00
C106   C     2.08741  -1.89988  -0.04737   0.00000  Uiso   1.00
C107   C     2.12678  -1.86643  -0.05052   0.00000  Uiso   1.00
C108   C     2.13276  -1.82719  -0.05209   0.00000  Uiso   1.00
C109   C     2.09927  -1.82122  -0.05052   0.00000  Uiso   1.00
C110   C     2.05991  -1.85468  -0.04737   0.00000  Uiso   1.00
C111   C     1.98706  -1.88217  -0.04266   0.00000  Uiso   1.00
C112   C     1.95368  -1.87638  -0.04109   0.00000  Uiso   1.00
C113   C     1.91432  -1.90984  -0.03795   0.00000  Uiso   1.00
C114   C     1.90833  -1.94908  -0.03638   0.00000  Uiso   1.00
C115   C     1.94182  -1.95504  -0.03795   0.00000  Uiso   1.00
C116   C     1.99107  -2.08505  -0.03638   0.00000  Uiso   1.00
C117   C     1.95170  -2.11850  -0.03324   0.00000  Uiso   1.00
C118   C     1.94572  -2.15774  -0.03167   0.00000  Uiso   1.00
C119   C     1.97921  -2.16371  -0.03324   0.00000  Uiso   1.00
C120   C     2.01857  -2.13025  -0.03638   0.00000  Uiso   1.00
C121   C     2.02444  -2.09083  -0.03795   0.00000  Uiso   1.00
C122   C     2.05206  -2.13622  -0.03795   0.00000  Uiso   1.00
C123   C     1.90636  -2.19120  -0.02853   0.00000  Uiso   1.00
N124   N     2.09142  -2.10276  -0.04109   0.00000  Uiso   1.00
N125   N     1.90048  -2.23061  -0.02696   0.00000  Uiso   1.00
C126   C     1.86112  -2.26407  -0.02381   0.00000  Uiso   1.00
C127   C     1.82763  -2.25810  -0.02224   0.00000  Uiso   1.00
C128   C     1.78827  -2.29156  -0.01910   0.00000  Uiso   1.00
C129   C     1.78239  -2.33098  -0.01753   0.00000  Uiso   1.00
C130   C     1.81588  -2.33694  -0.01910   0.00000  Uiso   1.00
C131   C     1.85524  -2.30349  -0.02224   0.00000  Uiso   1.00
N132   N     1.74303  -2.36443  -0.01439   0.00000  Uiso   1.00
C133   C     1.73715  -2.40385  -0.01282   0.00000  Uiso   1.00
N134   N     2.17784  -1.75473  -0.05678   0.00000  Uiso   1.00
C135   C     2.17196  -1.79415  -0.05521   0.00000  Uiso   1.00
H136   H     0.15326  -0.87111  -0.05176   0.00000  Uiso   1.00
H137   H     0.19847  -0.79879  -0.05645   0.00000  Uiso   1.00
H138   H     0.49423  -0.96508  -0.01408   0.00000  Uiso   1.00
H139   H     0.42371  -1.02502  -0.00846   0.00000  Uiso   1.00
H140   H     0.47310  -1.10626  -0.00845   0.00000  Uiso   1.00
H141   H     0.54366  -1.04631  -0.01408   0.00000  Uiso   1.00
H142   H     0.40849  -1.03069  -0.00747   0.00000  Uiso   1.00
H143   H     0.34856  -1.02027  -0.00465   0.00000  Uiso   1.00
H144   H     0.26742  -1.15053   0.00378   0.00000  Uiso   1.00
H145   H     0.32740  -1.16124   0.00097   0.00000  Uiso   1.00
H146   H     0.33323  -1.17077   0.00097   0.00000  Uiso   1.00
H147   H     0.46361  -1.12127  -0.00747   0.00000  Uiso   1.00
H148   H     0.59119  -1.00590  -0.01788   0.00000  Uiso   1.00
H149   H     0.67229  -0.87534  -0.02632   0.00000  Uiso   1.00
H150   H     0.54180  -0.92466  -0.01788   0.00000  Uiso   1.00
H151   H     0.64467  -0.82996  -0.02632   0.00000  Uiso   1.00
H152   H     0.66405  -0.97819  -0.02260   0.00000  Uiso   1.00
H153   H     0.65187  -0.78249  -0.02822   0.00000  Uiso   1.00
H154   H     0.66240  -0.71188  -0.03103   0.00000  Uiso   1.00
H155   H     0.53203  -0.76138  -0.02259   0.00000  Uiso   1.00
H156   H     0.52133  -0.83173  -0.01978   0.00000  Uiso   1.00
H157   H     0.70447  -0.98549  -0.02449   0.00000  Uiso   1.00
H158   H     0.76440  -0.99590  -0.02731   0.00000  Uiso   1.00
H159   H     0.84554  -0.86564  -0.03575   0.00000  Uiso   1.00
H160   H     0.78556  -0.85493  -0.03294   0.00000  Uiso   1.00
H161   H     0.88589  -0.87266  -0.03765   0.00000  Uiso   1.00
H162   H     0.09475  -1.16051   0.01319   0.00000  Uiso   1.00
H163   H     0.15468  -1.17115   0.01037   0.00000  Uiso   1.00
H164   H     0.23578  -1.04059   0.00193   0.00000  Uiso   1.00
H165   H     0.17585  -1.02996   0.00474   0.00000  Uiso   1.00
H166   H     0.27617  -1.04768   0.00003   0.00000  Uiso   1.00
H167   H     1.06281  -1.01682  -0.04234   0.00000  Uiso   1.00
H168   H     1.07333  -0.94625  -0.04515   0.00000  Uiso   1.00
H169   H     0.94284  -0.99556  -0.03671   0.00000  Uiso   1.00
H170   H     0.93230  -1.06617  -0.03389   0.00000  Uiso   1.00
H171   H     1.08282  -0.93101  -0.04614   0.00000  Uiso   1.00
H172   H     1.10398  -0.79004  -0.05176   0.00000  Uiso   1.00
H173   H     1.03342  -0.85000  -0.04613   0.00000  Uiso   1.00
H174   H     1.01821  -0.85566  -0.04515   0.00000  Uiso   1.00
H175   H     0.95827  -0.84525  -0.04233   0.00000  Uiso   1.00
H176   H     0.87714  -0.97551  -0.03389   0.00000  Uiso   1.00
H177   H     0.93711  -0.98622  -0.03670   0.00000  Uiso   1.00
H178   H     0.92522  -1.11382  -0.03199   0.00000  Uiso   1.00
H179   H     0.97450  -1.19488  -0.03199   0.00000  Uiso   1.00
H180   H     1.05559  -1.06433  -0.04044   0.00000  Uiso   1.00
H181   H     1.04735  -1.16739  -0.03670   0.00000  Uiso   1.00
H182   H     0.32254  -0.24112   0.00378   0.00000  Uiso   1.00
H183   H     0.45307  -0.19188  -0.00466   0.00000  Uiso   1.00
H184   H     0.52475  -0.72067   0.00849   0.00000  Uiso   1.00
H185   H     0.44250  -0.58550   0.00849   0.00000  Uiso   1.00
H186   H     0.50242  -0.59588   0.00568   0.00000  Uiso   1.00
H187   H     0.58355  -0.46562  -0.00276   0.00000  Uiso   1.00
H188   H     0.52358  -0.45491   0.00005   0.00000  Uiso   1.00
H189   H     0.50814  -0.60545   0.00568   0.00000  Uiso   1.00
H190   H     0.49745  -0.67580   0.00849   0.00000  Uiso   1.00
H191   H     0.62798  -0.62656   0.00005   0.00000  Uiso   1.00
H192   H     0.63852  -0.55595  -0.00276   0.00000  Uiso   1.00
H193   H     0.64801  -0.54095  -0.00374   0.00000  Uiso   1.00
H194   H     0.71857  -0.48099  -0.00937   0.00000  Uiso   1.00
H195   H     0.66918  -0.39975  -0.00937   0.00000  Uiso   1.00
H196   H     0.59862  -0.45970  -0.00374   0.00000  Uiso   1.00
H197   H     0.48304  -0.44765   0.00195   0.00000  Uiso   1.00
H198   H     0.35267  -0.49715   0.01039   0.00000  Uiso   1.00
H199   H     0.40195  -0.57821   0.01039   0.00000  Uiso   1.00
H200   H     0.30732  -0.56984   0.01510   0.00000  Uiso   1.00
H201   H     0.45554  -0.40245   0.00195   0.00000  Uiso   1.00
H202   H     0.25979  -0.61025   0.01890   0.00000  Uiso   1.00
H203   H     0.18923  -0.67021   0.02453   0.00000  Uiso   1.00
H204   H     0.23862  -0.75145   0.02453   0.00000  Uiso   1.00
H205   H     0.30918  -0.69150   0.01890   0.00000  Uiso   1.00
H206   H     0.46273  -0.35498   0.00005   0.00000  Uiso   1.00
H207   H     0.47327  -0.28437  -0.00276   0.00000  Uiso   1.00
H208   H     0.34278  -0.33369   0.00568   0.00000  Uiso   1.00
H209   H     0.33225  -0.40429   0.00849   0.00000  Uiso   1.00
H210   H     0.35000  -0.28625   0.00378   0.00000  Uiso   1.00
H211   H     0.87987  -0.18651  -0.02728   0.00000  Uiso   1.00
H212   H     0.83234  -0.22693  -0.02349   0.00000  Uiso   1.00
H213   H     0.76178  -0.28688  -0.01786   0.00000  Uiso   1.00
H214   H     0.81117  -0.36812  -0.01786   0.00000  Uiso   1.00
H215   H     0.88173  -0.30817  -0.02349   0.00000  Uiso   1.00
H216   H     0.76366  -0.40850  -0.01406   0.00000  Uiso   1.00
C217   C     1.60467   1.49745   0.48870   0.00000  Uiso   1.00
C218   C     1.56531   1.46399   0.49184   0.00000  Uiso   1.00
C219   C     1.55943   1.42457   0.49341   0.00000  Uiso   1.00
C220   C     1.59292   1.41861   0.49184   0.00000  Uiso   1.00
C221   C     1.63228   1.45206   0.48870   0.00000  Uiso   1.00
C222   C     1.63816   1.49148   0.48712   0.00000  Uiso   1.00
N223   N     1.52007   1.39112   0.49655   0.00000  Uiso   1.00
C224   C     1.51419   1.35170   0.49812   0.00000  Uiso   1.00
C225   C     1.48658   1.39708   0.49812   0.00000  Uiso   1.00
C226   C     1.49245   1.43650   0.49655   0.00000  Uiso   1.00
C227   C     1.45908   1.44229   0.49812   0.00000  Uiso   1.00
C228   C     1.41971   1.40883   0.50126   0.00000  Uiso   1.00
C229   C     1.41373   1.36959   0.50283   0.00000  Uiso   1.00
C230   C     1.44722   1.36363   0.50126   0.00000  Uiso   1.00
C231   C     1.47483   1.31824   0.50126   0.00000  Uiso   1.00
C232   C     1.46885   1.27901   0.50283   0.00000  Uiso   1.00
C233   C     1.50234   1.27304   0.50126   0.00000  Uiso   1.00
C234   C     1.54170   1.30650   0.49812   0.00000  Uiso   1.00
C235   C     1.54757   1.34592   0.49655   0.00000  Uiso   1.00
C236   C     1.67752   1.52494   0.48398   0.00000  Uiso   1.00
C237   C     1.71101   1.51897   0.48241   0.00000  Uiso   1.00
C238   C     1.75037   1.55243   0.47927   0.00000  Uiso   1.00
C239   C     1.75625   1.59185   0.47770   0.00000  Uiso   1.00
C240   C     1.72276   1.59781   0.47927   0.00000  Uiso   1.00
C241   C     1.68340   1.56436   0.48241   0.00000  Uiso   1.00
C242   C     1.72863   1.63723   0.47770   0.00000  Uiso   1.00
C243   C     1.78375   1.54664   0.47770   0.00000  Uiso   1.00
N244   N     1.69525   1.64301   0.47927   0.00000  Uiso   1.00
C245   C     1.70113   1.68243   0.47770   0.00000  Uiso   1.00
C246   C     1.74049   1.71589   0.47456   0.00000  Uiso   1.00
C247   C     1.74637   1.75531   0.47299   0.00000  Uiso   1.00
C248   C     1.71299   1.76109   0.47456   0.00000  Uiso   1.00
C249   C     1.67362   1.72764   0.47770   0.00000  Uiso   1.00
C250   C     1.66764   1.68840   0.47927   0.00000  Uiso   1.00
N251   N     1.82311   1.58010   0.47456   0.00000  Uiso   1.00
C252   C     1.85660   1.57413   0.47299   0.00000  Uiso   1.00
C253   C     1.85073   1.53471   0.47456   0.00000  Uiso   1.00
C254   C     1.88411   1.52893   0.47299   0.00000  Uiso   1.00
C255   C     1.92347   1.56238   0.46985   0.00000  Uiso   1.00
C256   C     1.92946   1.60162   0.46828   0.00000  Uiso   1.00
C257   C     1.89597   1.60759   0.46985   0.00000  Uiso   1.00
N258   N     1.95696   1.55642   0.46828   0.00000  Uiso   1.00
C259   C     1.99632   1.58987   0.46513   0.00000  Uiso   1.00
C260   C     1.24689   1.39911   0.51066   0.00000  Uiso   1.00
C261   C     1.24101   1.35969   0.51223   0.00000  Uiso   1.00
C262   C     1.27450   1.35372   0.51066   0.00000  Uiso   1.00
C263   C     1.31387   1.38718   0.50752   0.00000  Uiso   1.00
C264   C     1.31974   1.42660   0.50595   0.00000  Uiso   1.00
C265   C     1.28625   1.43256   0.50752   0.00000  Uiso   1.00
N266   N     1.34724   1.38139   0.50595   0.00000  Uiso   1.00
C267   C     1.38661   1.41485   0.50281   0.00000  Uiso   1.00
N268   N     1.70453   0.79352   0.50597   0.00000  Uiso   1.00
C269   C     1.67104   0.79949   0.50754   0.00000  Uiso   1.00
C270   C     1.58875   0.93473   0.50754   0.00000  Uiso   1.00
C271   C     1.62212   0.92895   0.50597   0.00000  Uiso   1.00
C272   C     1.66149   0.96240   0.50283   0.00000  Uiso   1.00
C273   C     1.66747   1.00164   0.50126   0.00000  Uiso   1.00
C274   C     1.63398   1.00761   0.50283   0.00000  Uiso   1.00
C275   C     1.59462   0.97415   0.50597   0.00000  Uiso   1.00
N276   N     1.69498   0.95644   0.50126   0.00000  Uiso   1.00
C277   C     1.73434   0.98989   0.49812   0.00000  Uiso   1.00
C278   C     1.68910   0.91702   0.50283   0.00000  Uiso   1.00
C279   C     1.64974   0.88356   0.50597   0.00000  Uiso   1.00
C280   C     1.64376   0.84433   0.50754   0.00000  Uiso   1.00
C281   C     1.67724   0.83836   0.50597   0.00000  Uiso   1.00
C282   C     1.71661   0.87182   0.50283   0.00000  Uiso   1.00
C283   C     1.72248   0.91124   0.50126   0.00000  Uiso   1.00
C284   C     1.76783   0.98393   0.49655   0.00000  Uiso   1.00
C285   C     1.80719   1.01738   0.49341   0.00000  Uiso   1.00
C286   C     1.81307   1.05680   0.49184   0.00000  Uiso   1.00
C287   C     1.77958   1.06277   0.49341   0.00000  Uiso   1.00
C288   C     1.74021   1.02931   0.49655   0.00000  Uiso   1.00
C289   C     1.56113   0.98012   0.50754   0.00000  Uiso   1.00
C290   C     1.56701   1.01954   0.50597   0.00000  Uiso   1.00
C291   C     1.53363   1.02532   0.50754   0.00000  Uiso   1.00
C292   C     1.49426   0.99187   0.51069   0.00000  Uiso   1.00
C293   C     1.48828   0.95263   0.51226   0.00000  Uiso   1.00
C294   C     1.52177   0.94666   0.51069   0.00000  Uiso   1.00
C295   C     1.44892   0.91917   0.51540   0.00000  Uiso   1.00
C296   C     1.53950   1.06474   0.50597   0.00000  Uiso   1.00
N297   N     1.44304   0.87975   0.51697   0.00000  Uiso   1.00
C298   C     1.40368   0.84630   0.52011   0.00000  Uiso   1.00
C299   C     1.37019   0.85226   0.52168   0.00000  Uiso   1.00
C300   C     1.33083   0.81881   0.52482   0.00000  Uiso   1.00
C301   C     1.32495   0.77939   0.52639   0.00000  Uiso   1.00
C302   C     1.35844   0.77343   0.52482   0.00000  Uiso   1.00
C303   C     1.39781   0.80688   0.52168   0.00000  Uiso   1.00
N304   N     1.50601   1.07071   0.50754   0.00000  Uiso   1.00
C305   C     1.51200   1.10994   0.50597   0.00000  Uiso   1.00
C306   C     1.55136   1.14340   0.50283   0.00000  Uiso   1.00
C307   C     1.55723   1.18282   0.50126   0.00000  Uiso   1.00
C308   C     1.52375   1.18878   0.50283   0.00000  Uiso   1.00
C309   C     1.48438   1.15533   0.50597   0.00000  Uiso   1.00
C310   C     1.47851   1.11591   0.50754   0.00000  Uiso   1.00
N311   N     1.52962   1.22820   0.50126   0.00000  Uiso   1.00
C312   C     1.49624   1.23399   0.50283   0.00000  Uiso   1.00
C313   C     2.15141   1.48152   0.46044   0.00000  Uiso   1.00
C314   C     2.15729   1.52094   0.45887   0.00000  Uiso   1.00
C315   C     2.12380   1.52691   0.46044   0.00000  Uiso   1.00
C316   C     2.08444   1.49345   0.46359   0.00000  Uiso   1.00
C317   C     2.07856   1.45403   0.46516   0.00000  Uiso   1.00
C318   C     2.11205   1.44807   0.46359   0.00000  Uiso   1.00
N319   N     2.12978   1.56614   0.45887   0.00000  Uiso   1.00
C320   C     2.09630   1.57211   0.46044   0.00000  Uiso   1.00
C321   C     2.16915   1.59960   0.45573   0.00000  Uiso   1.00
C322   C     2.20253   1.59382   0.45416   0.00000  Uiso   1.00
C323   C     2.24189   1.62727   0.45102   0.00000  Uiso   1.00
C324   C     2.24787   1.66651   0.44945   0.00000  Uiso   1.00
C325   C     2.21438   1.67247   0.45102   0.00000  Uiso   1.00
C326   C     2.17502   1.63902   0.45416   0.00000  Uiso   1.00
C327   C     2.10217   1.61153   0.45887   0.00000  Uiso   1.00
C328   C     2.06879   1.61731   0.46044   0.00000  Uiso   1.00
C329   C     2.02943   1.58386   0.46359   0.00000  Uiso   1.00
C330   C     2.02344   1.54462   0.46516   0.00000  Uiso   1.00
C331   C     2.05693   1.53865   0.46359   0.00000  Uiso   1.00
C332   C     2.10618   1.40865   0.46516   0.00000  Uiso   1.00
C333   C     2.06681   1.37519   0.46830   0.00000  Uiso   1.00
C334   C     2.06083   1.33596   0.46987   0.00000  Uiso   1.00
C335   C     2.09432   1.32999   0.46830   0.00000  Uiso   1.00
C336   C     2.13368   1.36344   0.46516   0.00000  Uiso   1.00
C337   C     2.13956   1.40286   0.46359   0.00000  Uiso   1.00
C338   C     2.16717   1.35748   0.46359   0.00000  Uiso   1.00
C339   C     2.02147   1.30250   0.47301   0.00000  Uiso   1.00
N340   N     2.20653   1.39093   0.46044   0.00000  Uiso   1.00
N341   N     2.01559   1.26308   0.47458   0.00000  Uiso   1.00
C342   C     1.97623   1.22963   0.47772   0.00000  Uiso   1.00
C343   C     1.94274   1.23559   0.47929   0.00000  Uiso   1.00
C344   C     1.90338   1.20214   0.48243   0.00000  Uiso   1.00
C345   C     1.89750   1.16272   0.48400   0.00000  Uiso   1.00
C346   C     1.93099   1.15675   0.48243   0.00000  Uiso   1.00
C347   C     1.97036   1.19021   0.47929   0.00000  Uiso   1.00
N348   N     1.85814   1.12926   0.48715   0.00000  Uiso   1.00
C349   C     1.85227   1.08984   0.48872   0.00000  Uiso   1.00
N350   N     2.29295   1.73897   0.44476   0.00000  Uiso   1.00
C351   C     2.28707   1.69955   0.44633   0.00000  Uiso   1.00
H352   H     2.26838   1.62259   0.44978   0.00000  Uiso   1.00
H353   H     2.31358   1.69490   0.44508   0.00000  Uiso   1.00
H354   H     1.60934   1.52861   0.48745   0.00000  Uiso   1.00
H355   H     1.53882   1.46867   0.49308   0.00000  Uiso   1.00
H356   H     1.58821   1.38743   0.49308   0.00000  Uiso   1.00
H357   H     1.65877   1.44738   0.48745   0.00000  Uiso   1.00
H358   H     1.52360   1.46301   0.49406   0.00000  Uiso   1.00
H359   H     1.46367   1.47342   0.49688   0.00000  Uiso   1.00
H360   H     1.38253   1.34316   0.50532   0.00000  Uiso   1.00
H361   H     1.44251   1.33245   0.50251   0.00000  Uiso   1.00
H362   H     1.44835   1.32293   0.50250   0.00000  Uiso   1.00
H363   H     1.57872   1.37242   0.49406   0.00000  Uiso   1.00
H364   H     1.70630   1.48779   0.48366   0.00000  Uiso   1.00
H365   H     1.78740   1.61835   0.47521   0.00000  Uiso   1.00
H366   H     1.65691   1.56904   0.48366   0.00000  Uiso   1.00
H367   H     1.75978   1.66374   0.47521   0.00000  Uiso   1.00
H368   H     1.77916   1.51551   0.47894   0.00000  Uiso   1.00
H369   H     1.76698   1.71121   0.47332   0.00000  Uiso   1.00
H370   H     1.77751   1.78181   0.47050   0.00000  Uiso   1.00
H371   H     1.64714   1.73232   0.47894   0.00000  Uiso   1.00
H372   H     1.63645   1.66197   0.48176   0.00000  Uiso   1.00
H373   H     1.81958   1.50821   0.47705   0.00000  Uiso   1.00
H374   H     1.87951   1.49780   0.47423   0.00000  Uiso   1.00
H375   H     1.96065   1.62806   0.46579   0.00000  Uiso   1.00
H376   H     1.90068   1.63877   0.46860   0.00000  Uiso   1.00
H377   H     2.00100   1.62104   0.46389   0.00000  Uiso   1.00
H378   H     1.20986   1.33318   0.51472   0.00000  Uiso   1.00
H379   H     1.26979   1.32254   0.51191   0.00000  Uiso   1.00
H380   H     1.35089   1.45310   0.50346   0.00000  Uiso   1.00
H381   H     1.29096   1.46374   0.50628   0.00000  Uiso   1.00
H382   H     1.39128   1.44601   0.50157   0.00000  Uiso   1.00
H383   H     2.17792   1.47688   0.45920   0.00000  Uiso   1.00
H384   H     2.18844   1.54745   0.45639   0.00000  Uiso   1.00
H385   H     2.05795   1.49813   0.46483   0.00000  Uiso   1.00
H386   H     2.04741   1.42753   0.46764   0.00000  Uiso   1.00
H387   H     2.19793   1.56268   0.45540   0.00000  Uiso   1.00
H388   H     2.21909   1.70365   0.44977   0.00000  Uiso   1.00
H389   H     2.14854   1.64370   0.45540   0.00000  Uiso   1.00
H390   H     2.13332   1.63803   0.45639   0.00000  Uiso   1.00
H391   H     2.07338   1.64845   0.45921   0.00000  Uiso   1.00
H392   H     1.99225   1.51819   0.46764   0.00000  Uiso   1.00
H393   H     2.05222   1.50748   0.46483   0.00000  Uiso   1.00
H394   H     2.04033   1.37987   0.46954   0.00000  Uiso   1.00
H395   H     2.08961   1.29881   0.46954   0.00000  Uiso   1.00
H396   H     2.17071   1.42937   0.46110   0.00000  Uiso   1.00
H397   H     2.16246   1.32630   0.46483   0.00000  Uiso   1.00
H398   H     1.43765   1.25257   0.50532   0.00000  Uiso   1.00
H399   H     1.56819   1.30182   0.49688   0.00000  Uiso   1.00
H400   H     1.63986   0.77302   0.51003   0.00000  Uiso   1.00
H401   H     1.55762   0.90820   0.51003   0.00000  Uiso   1.00
H402   H     1.61753   0.89782   0.50721   0.00000  Uiso   1.00
H403   H     1.69867   1.02808   0.49877   0.00000  Uiso   1.00
H404   H     1.63869   1.03878   0.50159   0.00000  Uiso   1.00
H405   H     1.62325   0.88824   0.50722   0.00000  Uiso   1.00
H406   H     1.61256   0.81789   0.51003   0.00000  Uiso   1.00
H407   H     1.74309   0.86714   0.50159   0.00000  Uiso   1.00
H408   H     1.75363   0.93774   0.49877   0.00000  Uiso   1.00
H409   H     1.76312   0.95275   0.49779   0.00000  Uiso   1.00
H410   H     1.83368   1.01270   0.49216   0.00000  Uiso   1.00
H411   H     1.78429   1.09395   0.49216   0.00000  Uiso   1.00
H412   H     1.71373   1.03399   0.49779   0.00000  Uiso   1.00
H413   H     1.59816   1.04604   0.50349   0.00000  Uiso   1.00
H414   H     1.46778   0.99655   0.51193   0.00000  Uiso   1.00
H415   H     1.51706   0.91548   0.51193   0.00000  Uiso   1.00
H416   H     1.42243   0.92385   0.51664   0.00000  Uiso   1.00
H417   H     1.57065   1.09125   0.50349   0.00000  Uiso   1.00
H418   H     1.37490   0.88344   0.52043   0.00000  Uiso   1.00
H419   H     1.30434   0.82349   0.52607   0.00000  Uiso   1.00
H420   H     1.35373   0.74225   0.52607   0.00000  Uiso   1.00
H421   H     1.42429   0.80220   0.52044   0.00000  Uiso   1.00
H422   H     1.57785   1.13872   0.50159   0.00000  Uiso   1.00
H423   H     1.58838   1.20932   0.49877   0.00000  Uiso   1.00
H424   H     1.45790   1.16001   0.50722   0.00000  Uiso   1.00
H425   H     1.44736   1.08940   0.51003   0.00000  Uiso   1.00
H426   H     1.46511   1.20745   0.50532   0.00000  Uiso   1.00
H427   H     1.99498   1.30718   0.47425   0.00000  Uiso   1.00
H428   H     1.94745   1.26677   0.47805   0.00000  Uiso   1.00
H429   H     1.87689   1.20682   0.48368   0.00000  Uiso   1.00
H430   H     1.92628   1.12557   0.48368   0.00000  Uiso   1.00
H431   H     1.99684   1.18553   0.47805   0.00000  Uiso   1.00
H432   H     1.87877   1.08520   0.48747   0.00000  Uiso   1.00
loop_
_geom_bond_atom_site_label_1
_geom_bond_atom_site_label_2
_geom_bond_distance
_geom_bond_site_symmetry_2
_ccdc_geom_bond_type
C1     C2      1.440   .     S
C1     C6      1.442   .     D
C1     H138    1.140   1_645 S
C2     C3      1.443   .     D
C2     H139    1.140   1_645 S
C3     C4      1.443   .     S
C3     N7      1.440   .     S
C4     C5      1.440   .     D
C4     H140    1.140   1_645 S
C5     C6      1.442   .     S
C5     H141    1.140   1_645 S
C6     C20     1.440   .     S
N7     C8      1.442   .     S
N7     C9      1.443   .     S
C8     C15     1.440   .     D
C8     C19     1.434   .     S
C9     C10     1.443   .     D
C9     C14     1.440   .     S
C10    C11     1.434   .     S
C10    H142    1.140   1_645 S
C11    C12     1.440   .     D
C11    H143    1.140   1_645 S
C12    C13     1.434   .     S
C12    C51     1.429   .     S
C13    C14     1.443   .     D
C13    H144    1.140   1_645 S
C14    H145    1.140   1_645 S
C15    C16     1.434   .     S
C15    H146    1.140   1_645 S
C16    C17     1.442   .     D
C16    H182    1.140   1_635 S
C17    C18     1.440   .     S
C17    C96     1.425   .     S
C18    C19     1.443   .     D
C18    H183    1.140   1_635 S
C19    H147    1.140   1_645 S
C20    C21     1.442   .     D
C20    C25     1.443   .     S
C21    C22     1.440   .     S
C21    H148    1.140   1_645 S
C22    C23     1.442   .     D
C22    C27     1.434   .     S
C23    C24     1.443   .     S
C23    H149    1.140   1_645 S
C24    C25     1.440   .     D
C24    C26     1.443   .     S
C25    H150    1.140   1_645 S
C26    N28     1.434   .     D
C26    H151    1.140   1_645 S
C27    N35     1.440   .     D
C27    H152    1.140   1_645 S
N28    C29     1.442   .     S
C29    C30     1.440   .     D
C29    C34     1.442   .     S
C30    C31     1.443   .     S
C30    H153    1.140   1_645 S
C31    C32     1.434   .     D
C31    H154    1.140   1_645 S
C32    C33     1.440   .     S
C32    N52     1.485   1_565 S
C33    C34     1.434   .     D
C33    H155    1.140   1_645 S
C34    H156    1.140   1_645 S
N35    C36     1.442   .     S
C36    C37     1.443   .     D
C36    C41     1.440   .     S
C37    C38     1.434   .     S
C37    H157    1.140   1_645 S
C38    C39     1.440   .     D
C38    H158    1.140   1_645 S
C39    C40     1.434   .     S
C39    N42     1.443   .     S
C40    C41     1.442   .     D
C40    H159    1.140   1_645 S
C41    H160    1.140   1_645 S
N42    C43     1.440   .     D
C43    C113    1.429   .     S
C43    H161    1.140   1_645 S
C44    C45     1.442   .     D
C44    C49     1.440   .     S
C44    N124    1.502   1_455 S
C45    C46     1.442   .     S
C45    H162    1.140   1_645 S
C46    C47     1.440   .     D
C46    H163    1.140   1_645 S
C47    C48     1.442   .     S
C47    N50     1.434   .     S
C48    C49     1.443   .     D
C48    H164    1.140   1_645 S
C49    H165    1.140   1_645 S
N50    C51     1.440   .     D
C51    H166    1.140   1_645 S
N52    C32     1.485   1_545 S
N52    C53     1.442   .     D
C53    C65     1.417   .     S
C53    H184    1.140   1_635 S
C54    C55     1.434   .     S
C54    C59     1.442   .     D
C54    H185    1.140   1_635 S
C55    C56     1.440   .     D
C55    H186    1.140   1_635 S
C56    C57     1.434   .     S
C56    N60     1.443   .     S
C57    C58     1.442   .     D
C57    H187    1.140   1_635 S
C58    C59     1.440   .     S
C58    H188    1.140   1_635 S
C59    C73     1.442   .     S
N60    C61     1.440   .     S
N60    C62     1.442   .     S
C61    C68     1.443   .     D
C61    C72     1.443   .     S
C62    C63     1.440   .     D
C62    C67     1.434   .     S
C63    C64     1.434   .     S
C63    H189    1.140   1_635 S
C64    C65     1.442   .     D
C64    H190    1.140   1_635 S
C65    C66     1.440   .     S
C66    C67     1.443   .     D
C66    H191    1.140   1_635 S
C67    H192    1.140   1_635 S
C68    C69     1.440   .     S
C68    H193    1.140   1_635 S
C69    C70     1.443   .     D
C69    H194    1.140   1_635 S
C70    C71     1.442   .     S
C70    C133    1.430   .     S
C71    C72     1.440   .     D
C71    H195    1.140   1_635 S
C72    H196    1.140   1_635 S
C73    C74     1.443   .     D
C73    C78     1.440   .     S
C74    C75     1.433   .     S
C74    H197    1.140   1_635 S
C75    C76     1.440   .     D
C75    C80     1.443   .     S
C76    C77     1.434   .     S
C76    H198    1.140   1_635 S
C77    C78     1.442   .     D
C77    C79     1.440   .     S
C78    H199    1.140   1_635 S
C79    N81     1.443   .     D
C79    H200    1.140   1_635 S
C80    N88     1.443   .     D
C80    H201    1.140   1_635 S
N81    C82     1.440   .     S
C82    C83     1.443   .     D
C82    C87     1.442   .     S
C83    C84     1.440   .     S
C83    H202    1.140   1_635 S
C84    C85     1.442   .     D
C84    H203    1.140   1_635 S
C85    C86     1.442   .     S
C85    N134    1.587   1_445 S
C86    C87     1.440   .     D
C86    H204    1.140   1_635 S
C87    H205    1.140   1_635 S
N88    C89     1.434   .     S
C89    C90     1.440   .     D
C89    C94     1.442   .     S
C90    C91     1.443   .     S
C90    H206    1.140   1_635 S
C91    C92     1.443   .     D
C91    H207    1.140   1_635 S
C92    C93     1.440   .     S
C92    N95     1.442   .     S
C93    C94     1.443   .     D
C93    H208    1.140   1_635 S
C94    H209    1.140   1_635 S
N95    C96     1.434   .     D
C96    H210    1.140   1_635 S
C97    C98     1.442   .     S
C97    C102    1.440   .     D
C97    H167    1.140   1_645 S
C98    C99     1.442   .     D
C98    H168    1.140   1_645 S
C99    C100    1.440   .     S
C99    N103    1.434   .     S
C100   C101    1.442   .     D
C100   H169    1.140   1_645 S
C101   C102    1.443   .     S
C101   H170    1.140   1_645 S
C102   C116    1.443   .     S
N103   C104    1.442   .     S
N103   C105    1.440   .     S
C104   C111    1.442   .     D
C104   C115    1.440   .     S
C105   C106    1.433   .     D
C105   C110    1.443   .     S
C106   C107    1.440   .     S
C106   H171    1.140   1_645 S
C107   C108    1.434   .     D
C107   H136    1.140   1_745 S
C108   C109    1.443   .     S
C108   C135    1.430   .     S
C109   C110    1.440   .     D
C109   H172    1.140   1_645 S
C110   H173    1.140   1_645 S
C111   C112    1.434   .     S
C111   H174    1.140   1_645 S
C112   C113    1.440   .     D
C112   H175    1.140   1_645 S
C113   C114    1.434   .     S
C114   C115    1.442   .     D
C114   H176    1.140   1_645 S
C115   H177    1.140   1_645 S
C116   C117    1.440   .     S
C116   C121    1.433   .     D
C117   C118    1.434   .     D
C117   H178    1.140   1_645 S
C118   C119    1.443   .     S
C118   C123    1.440   .     S
C119   C120    1.440   .     D
C119   H179    1.140   1_645 S
C120   C121    1.443   .     S
C120   C122    1.443   .     S
C121   H180    1.140   1_645 S
C122   N124    1.440   .     D
C122   H181    1.140   1_645 S
C123   N125    1.442   .     D
C123   H211    1.140   1_635 S
N124   C44     1.502   1_655 S
N125   C126    1.440   .     S
C126   C127    1.443   .     D
C126   C131    1.442   .     S
C127   C128    1.440   .     S
C127   H212    1.140   1_635 S
C128   C129    1.442   .     D
C128   H213    1.140   1_635 S
C129   C130    1.442   .     S
C129   N132    1.440   .     S
C130   C131    1.440   .     D
C130   H214    1.140   1_635 S
C131   H215    1.140   1_635 S
N132   C133    1.442   .     D
C133   H216    1.140   1_635 S
N134   C85     1.587   1_665 S
N134   C135    1.442   .     D
C135   H137    1.140   1_745 S
H136   C107    1.140   1_365 S
H137   C135    1.140   1_365 S
H138   C1      1.140   1_465 S
H139   C2      1.140   1_465 S
H139   H142    0.522   .     S
H140   C4      1.140   1_465 S
H140   H147    0.515   .     S
H141   C5      1.140   1_465 S
H142   C10     1.140   1_465 S
H143   C11     1.140   1_465 S
H144   C13     1.140   1_465 S
H145   C14     1.140   1_465 S
H145   H146    0.526   .     S
H146   C15     1.140   1_465 S
H147   C19     1.140   1_465 S
H148   C21     1.140   1_465 S
H149   C23     1.140   1_465 S
H150   C25     1.140   1_465 S
H151   C26     1.140   1_465 S
H152   C27     1.140   1_465 S
H153   C30     1.140   1_465 S
H154   C31     1.140   1_465 S
H155   C33     1.140   1_465 S
H156   C34     1.140   1_465 S
H157   C37     1.140   1_465 S
H158   C38     1.140   1_465 S
H159   C40     1.140   1_465 S
H160   C41     1.140   1_465 S
H161   C43     1.140   1_465 S
H162   C45     1.140   1_465 S
H163   C46     1.140   1_465 S
H164   C48     1.140   1_465 S
H165   C49     1.140   1_465 S
H166   C51     1.140   1_465 S
H167   C97     1.140   1_465 S
H168   C98     1.140   1_465 S
H168   H171    0.522   .     S
H169   C100    1.140   1_465 S
H169   H177    0.516   .     S
H170   C101    1.140   1_465 S
H171   C106    1.140   1_465 S
H172   C109    1.140   1_465 S
H173   C110    1.140   1_465 S
H173   H174    0.521   .     S
H174   C111    1.140   1_465 S
H175   C112    1.140   1_465 S
H176   C114    1.140   1_465 S
H177   C115    1.140   1_465 S
H178   C117    1.140   1_465 S
H179   C119    1.140   1_465 S
H180   C121    1.140   1_465 S
H181   C122    1.140   1_465 S
H182   C16     1.140   1_475 S
H183   C18     1.140   1_475 S
H184   C53     1.140   1_475 S
H185   C54     1.140   1_475 S
H186   C55     1.140   1_475 S
H186   H189    0.524   .     S
H187   C57     1.140   1_475 S
H187   H196    0.515   .     S
H188   C58     1.140   1_475 S
H189   C63     1.140   1_475 S
H190   C64     1.140   1_475 S
H191   C66     1.140   1_475 S
H192   C67     1.140   1_475 S
H192   H193    0.515   .     S
H193   C68     1.140   1_475 S
H194   C69     1.140   1_475 S
H195   C71     1.140   1_475 S
H196   C72     1.140   1_475 S
H197   C74     1.140   1_475 S
H198   C76     1.140   1_475 S
H199   C78     1.140   1_475 S
H200   C79     1.140   1_475 S
H201   C80     1.140   1_475 S
H202   C83     1.140   1_475 S
H203   C84     1.140   1_475 S
H204   C86     1.140   1_475 S
H205   C87     1.140   1_475 S
H206   C90     1.140   1_475 S
H207   C91     1.140   1_475 S
H208   C93     1.140   1_475 S
H209   C94     1.140   1_475 S
H210   C96     1.140   1_475 S
H211   C123    1.140   1_475 S
H212   C127    1.140   1_475 S
H213   C128    1.140   1_475 S
H214   C130    1.140   1_475 S
H215   C131    1.140   1_475 S
H216   C133    1.140   1_475 S
C217   C218    1.440   .     S
C217   C222    1.443   .     D
C217   H354    1.140   .     S
C218   C219    1.442   .     D
C218   H355    1.140   .     S
C219   C220    1.442   .     S
C219   N223    1.440   .     S
C220   C221    1.440   .     D
C220   H356    1.140   .     S
C221   C222    1.442   .     S
C221   H357    1.140   .     S
C222   C236    1.440   .     S
N223   C224    1.442   .     S
N223   C225    1.442   .     S
C224   C231    1.440   .     D
C224   C235    1.434   .     S
C225   C226    1.443   .     D
C225   C230    1.440   .     S
C226   C227    1.434   .     S
C226   H358    1.140   .     S
C227   C228    1.440   .     D
C227   H359    1.140   .     S
C228   C229    1.434   .     S
C228   C267    1.429   .     S
C229   C230    1.442   .     D
C229   H360    1.140   .     S
C230   H361    1.140   .     S
C231   C232    1.434   .     S
C231   H362    1.140   .     S
C232   C233    1.443   .     D
C232   H398    1.140   .     S
C233   C234    1.440   .     S
C233   C312    1.425   .     S
C234   C235    1.443   .     D
C234   H399    1.140   .     S
C235   H363    1.140   .     S
C236   C237    1.443   .     D
C236   C241    1.442   .     S
C237   C238    1.440   .     S
C237   H364    1.140   .     S
C238   C239    1.442   .     D
C238   C243    1.434   .     S
C239   C240    1.442   .     S
C239   H365    1.140   .     S
C240   C241    1.440   .     D
C240   C242    1.443   .     S
C241   H366    1.140   .     S
C242   N244    1.434   .     D
C242   H367    1.140   .     S
C243   N251    1.440   .     D
C243   H368    1.140   .     S
N244   C245    1.442   .     S
C245   C246    1.440   .     D
C245   C250    1.443   .     S
C246   C247    1.442   .     S
C246   H369    1.140   .     S
C247   C248    1.434   .     D
C247   H370    1.140   .     S
C248   C249    1.440   .     S
C248   N268    1.485   1_565 S
C249   C250    1.434   .     D
C249   H371    1.140   .     S
C250   H372    1.140   .     S
N251   C252    1.443   .     S
C252   C253    1.443   .     D
C252   C257    1.440   .     S
C253   C254    1.434   .     S
C253   H373    1.140   .     S
C254   C255    1.440   .     D
C254   H374    1.140   .     S
C255   C256    1.434   .     S
C255   N258    1.442   .     S
C256   C257    1.443   .     D
C256   H375    1.140   .     S
C257   H376    1.140   .     S
N258   C259    1.440   .     D
C259   C329    1.429   .     S
C259   H377    1.140   .     S
C260   C261    1.442   .     D
C260   C265    1.440   .     S
C260   N340    1.502   1_455 S
C261   C262    1.443   .     S
C261   H378    1.140   .     S
C262   C263    1.440   .     D
C262   H379    1.140   .     S
C263   C264    1.443   .     S
C263   N266    1.434   .     S
C264   C265    1.442   .     D
C264   H380    1.140   .     S
C265   H381    1.140   .     S
N266   C267    1.440   .     D
C267   H382    1.140   .     S
N268   C248    1.485   1_545 S
N268   C269    1.443   .     D
C269   C281    1.417   .     S
C269   H400    1.140   .     S
C270   C271    1.433   .     S
C270   C275    1.443   .     D
C270   H401    1.140   .     S
C271   C272    1.440   .     D
C271   H402    1.140   .     S
C272   C273    1.434   .     S
C272   N276    1.442   .     S
C273   C274    1.443   .     D
C273   H403    1.140   .     S
C274   C275    1.440   .     S
C274   H404    1.140   .     S
C275   C289    1.443   .     S
N276   C277    1.440   .     S
N276   C278    1.442   .     S
C277   C284    1.442   .     D
C277   C288    1.443   .     S
C278   C279    1.440   .     D
C278   C283    1.434   .     S
C279   C280    1.434   .     S
C279   H405    1.140   .     S
C280   C281    1.442   .     D
C280   H406    1.140   .     S
C281   C282    1.440   .     S
C282   C283    1.443   .     D
C282   H407    1.140   .     S
C283   H408    1.140   .     S
C284   C285    1.440   .     S
C284   H409    1.140   .     S
C285   C286    1.442   .     D
C285   H410    1.140   .     S
C286   C287    1.443   .     S
C286   C349    1.430   .     S
C287   C288    1.440   .     D
C287   H411    1.140   .     S
C288   H412    1.140   .     S
C289   C290    1.442   .     S
C289   C294    1.440   .     D
C290   C291    1.434   .     D
C290   H413    1.140   .     S
C291   C292    1.440   .     S
C291   C296    1.443   .     S
C292   C293    1.434   .     D
C292   H414    1.140   .     S
C293   C294    1.443   .     S
C293   C295    1.440   .     S
C294   H415    1.140   .     S
C295   N297    1.442   .     D
C295   H416    1.140   .     S
C296   N304    1.443   .     D
C296   H417    1.140   .     S
N297   C298    1.440   .     S
C298   C299    1.442   .     D
C298   C303    1.443   .     S
C299   C300    1.440   .     S
C299   H418    1.140   .     S
C300   C301    1.442   .     D
C300   H419    1.140   .     S
C301   C302    1.442   .     S
C301   N350    1.587   1_445 S
C302   C303    1.440   .     D
C302   H420    1.140   .     S
C303   H421    1.140   .     S
N304   C305    1.433   .     S
C305   C306    1.440   .     D
C305   C310    1.443   .     S
C306   C307    1.443   .     S
C306   H422    1.140   .     S
C307   C308    1.442   .     D
C307   H423    1.140   .     S
C308   C309    1.440   .     S
C308   N311    1.443   .     S
C309   C310    1.443   .     D
C309   H424    1.140   .     S
C310   H425    1.140   .     S
N311   C312    1.434   .     D
C312   H426    1.140   .     S
C313   C314    1.442   .     S
C313   C318    1.440   .     D
C313   H383    1.140   .     S
C314   C315    1.443   .     D
C314   H384    1.140   .     S
C315   C316    1.440   .     S
C315   N319    1.434   .     S
C316   C317    1.442   .     D
C316   H385    1.140   .     S
C317   C318    1.442   .     S
C317   H386    1.140   .     S
C318   C332    1.443   .     S
N319   C320    1.442   .     S
N319   C321    1.440   .     S
C320   C327    1.443   .     D
C320   C331    1.440   .     S
C321   C322    1.434   .     D
C321   C326    1.443   .     S
C322   C323    1.440   .     S
C322   H387    1.140   .     S
C323   C324    1.434   .     D
C323   H352    1.140   .     S
C324   C325    1.442   .     S
C324   C351    1.430   .     S
C325   C326    1.440   .     D
C325   H388    1.140   .     S
C326   H389    1.140   .     S
C327   C328    1.434   .     S
C327   H390    1.140   .     S
C328   C329    1.440   .     D
C328   H391    1.140   .     S
C329   C330    1.434   .     S
C330   C331    1.443   .     D
C330   H392    1.140   .     S
C331   H393    1.140   .     S
C332   C333    1.440   .     S
C332   C337    1.434   .     D
C333   C334    1.434   .     D
C333   H394    1.140   .     S
C334   C335    1.443   .     S
C334   C339    1.440   .     S
C335   C336    1.440   .     D
C335   H395    1.140   .     S
C336   C337    1.442   .     S
C336   C338    1.442   .     S
C337   H396    1.140   .     S
C338   N340    1.440   .     D
C338   H397    1.140   .     S
C339   N341    1.442   .     D
C339   H427    1.140   .     S
N340   C260    1.502   1_655 S
N341   C342    1.440   .     S
C342   C343    1.442   .     D
C342   C347    1.443   .     S
C343   C344    1.440   .     S
C343   H428    1.140   .     S
C344   C345    1.442   .     D
C344   H429    1.140   .     S
C345   C346    1.443   .     S
C345   N348    1.440   .     S
C346   C347    1.440   .     D
C346   H430    1.140   .     S
C347   H431    1.140   .     S
N348   C349    1.443   .     D
C349   H432    1.140   .     S
N350   C301    1.587   1_665 S
N350   C351    1.442   .     D
C351   H353    1.140   .     S
H355   H358    0.522   .     S
H356   H363    0.515   .     S
H361   H362    0.526   .     S
H384   H387    0.522   .     S
H385   H393    0.516   .     S
H389   H390    0.522   .     S
H402   H405    0.524   .     S
H403   H412    0.515   .     S
H408   H409    0.515   .     S
