data_17
_audit_creation_date              2023-09-08
_audit_creation_method            'Materials Studio'
_symmetry_space_group_name_H-M    'P1'
_symmetry_Int_Tables_number       1
_symmetry_cell_setting            triclinic
loop_
_symmetry_equiv_pos_as_xyz
  x,y,z
_cell_length_a                    33.9708
_cell_length_b                    33.9708
_cell_length_c                    7.6236
_cell_angle_alpha                 90.0000
_cell_angle_beta                  90.0000
_cell_angle_gamma                 90.0000
loop_
_atom_site_label
_atom_site_type_symbol
_atom_site_fract_x
_atom_site_fract_y
_atom_site_fract_z
_atom_site_U_iso_or_equiv
_atom_site_adp_type
_atom_site_occupancy
C1     C     0.51514   0.66376   0.73394   0.00000  Uiso   1.00
C2     C     0.55744   0.67187   0.64384   0.00000  Uiso   1.00
C3     C     0.55367   0.69269   0.49456   0.00000  Uiso   1.00
C4     C     0.50742   0.70561   0.43263   0.00000  Uiso   1.00
C5     C     0.46495   0.69710   0.52319   0.00000  Uiso   1.00
C6     C     0.46870   0.67626   0.67254   0.00000  Uiso   1.00
N7     N     0.52018   0.64073   0.88402   0.00000  Uiso   1.00
C8     C     0.45744   0.74148   0.21324   0.00000  Uiso   1.00
C9     C     0.50359   0.72826   0.27507   0.00000  Uiso   1.00
C10    C     0.54611   0.73704   0.18519   0.00000  Uiso   1.00
C11    C     0.48381   0.63520   0.98115   0.00000  Uiso   1.00
C12    C     0.49033   0.60816   0.12841   0.00000  Uiso   1.00
C13    C     0.44932   0.59945   0.22368   0.00000  Uiso   1.00
C14    C     0.45313   0.56775   0.35240   0.00000  Uiso   1.00
C15    C     0.49817   0.54459   0.38907   0.00000  Uiso   1.00
C16    C     0.53956   0.55509   0.29500   0.00000  Uiso   1.00
C17    C     0.53576   0.58669   0.16646   0.00000  Uiso   1.00
H18    H     0.58785   0.66240   0.69079   0.00000  Uiso   1.00
H19    H     0.58089   0.70094   0.41530   0.00000  Uiso   1.00
H20    H     0.43689   0.70851   0.45897   0.00000  Uiso   1.00
H21    H     0.44145   0.66783   0.75124   0.00000  Uiso   1.00
H22    H     0.43106   0.73221   0.29589   0.00000  Uiso   1.00
H23    H     0.57645   0.72742   0.23246   0.00000  Uiso   1.00
H24    H     0.45338   0.64832   0.95809   0.00000  Uiso   1.00
H25    H     0.42206   0.61721   0.18733   0.00000  Uiso   1.00
H26    H     0.42599   0.55825   0.42938   0.00000  Uiso   1.00
H27    H     0.56737   0.53831   0.33224   0.00000  Uiso   1.00
H28    H     0.56272   0.59727   0.09096   0.00000  Uiso   1.00
C29    C     0.01514   0.16376   0.23394   0.00000  Uiso   1.00
C30    C     0.05744   0.17187   0.14384   0.00000  Uiso   1.00
C31    C     0.05367   0.19269   0.99456   0.00000  Uiso   1.00
C32    C     0.00742   0.20561   0.93263   0.00000  Uiso   1.00
C33    C     0.96495   0.19710   0.02319   0.00000  Uiso   1.00
C34    C     0.96870   0.17626   0.17254   0.00000  Uiso   1.00
N35    N     0.02018   0.14073   0.38402   0.00000  Uiso   1.00
C36    C     0.95744   0.24148   0.71324   0.00000  Uiso   1.00
C37    C     0.00359   0.22826   0.77507   0.00000  Uiso   1.00
C38    C     0.04611   0.23704   0.68519   0.00000  Uiso   1.00
C39    C     0.98381   0.13520   0.48115   0.00000  Uiso   1.00
C40    C     0.99033   0.10816   0.62841   0.00000  Uiso   1.00
C41    C     0.94932   0.09945   0.72368   0.00000  Uiso   1.00
C42    C     0.95313   0.06775   0.85240   0.00000  Uiso   1.00
C43    C     0.99817   0.04459   0.88907   0.00000  Uiso   1.00
C44    C     0.03956   0.05509   0.79500   0.00000  Uiso   1.00
C45    C     0.03576   0.08669   0.66646   0.00000  Uiso   1.00
H46    H     0.08785   0.16240   0.19079   0.00000  Uiso   1.00
H47    H     0.08089   0.20094   0.91530   0.00000  Uiso   1.00
H48    H     0.93689   0.20851   0.95897   0.00000  Uiso   1.00
H49    H     0.94145   0.16783   0.25124   0.00000  Uiso   1.00
H50    H     0.93106   0.23221   0.79589   0.00000  Uiso   1.00
H51    H     0.07645   0.22742   0.73246   0.00000  Uiso   1.00
H52    H     0.95338   0.14832   0.45809   0.00000  Uiso   1.00
H53    H     0.92206   0.11721   0.68733   0.00000  Uiso   1.00
H54    H     0.92599   0.05825   0.92938   0.00000  Uiso   1.00
H55    H     0.06737   0.03831   0.83224   0.00000  Uiso   1.00
H56    H     0.06272   0.09727   0.59096   0.00000  Uiso   1.00
C57    C     0.98486   0.83624   0.23394   0.00000  Uiso   1.00
C58    C     0.94256   0.82813   0.14384   0.00000  Uiso   1.00
C59    C     0.94633   0.80731   0.99456   0.00000  Uiso   1.00
C60    C     0.99258   0.79439   0.93263   0.00000  Uiso   1.00
C61    C     0.03505   0.80290   0.02319   0.00000  Uiso   1.00
C62    C     0.03130   0.82374   0.17254   0.00000  Uiso   1.00
N63    N     0.97982   0.85927   0.38402   0.00000  Uiso   1.00
C64    C     0.04256   0.75852   0.71324   0.00000  Uiso   1.00
C65    C     0.99641   0.77174   0.77507   0.00000  Uiso   1.00
C66    C     0.95389   0.76296   0.68519   0.00000  Uiso   1.00
C67    C     0.01619   0.86480   0.48115   0.00000  Uiso   1.00
C68    C     0.00967   0.89184   0.62841   0.00000  Uiso   1.00
C69    C     0.05068   0.90055   0.72368   0.00000  Uiso   1.00
C70    C     0.04687   0.93225   0.85240   0.00000  Uiso   1.00
C71    C     0.00183   0.95541   0.88907   0.00000  Uiso   1.00
C72    C     0.96044   0.94491   0.79500   0.00000  Uiso   1.00
C73    C     0.96424   0.91331   0.66646   0.00000  Uiso   1.00
H74    H     0.91215   0.83760   0.19079   0.00000  Uiso   1.00
H75    H     0.91911   0.79906   0.91530   0.00000  Uiso   1.00
H76    H     0.06311   0.79149   0.95897   0.00000  Uiso   1.00
H77    H     0.05855   0.83217   0.25124   0.00000  Uiso   1.00
H78    H     0.06894   0.76779   0.79589   0.00000  Uiso   1.00
H79    H     0.92355   0.77258   0.73246   0.00000  Uiso   1.00
H80    H     0.04662   0.85168   0.45809   0.00000  Uiso   1.00
H81    H     0.07794   0.88279   0.68733   0.00000  Uiso   1.00
H82    H     0.07401   0.94175   0.92938   0.00000  Uiso   1.00
H83    H     0.93263   0.96169   0.83224   0.00000  Uiso   1.00
H84    H     0.93728   0.90273   0.59096   0.00000  Uiso   1.00
C85    C     0.48486   0.33624   0.73394   0.00000  Uiso   1.00
C86    C     0.44256   0.32813   0.64384   0.00000  Uiso   1.00
C87    C     0.44633   0.30731   0.49456   0.00000  Uiso   1.00
C88    C     0.49258   0.29439   0.43263   0.00000  Uiso   1.00
C89    C     0.53505   0.30290   0.52319   0.00000  Uiso   1.00
C90    C     0.53130   0.32374   0.67254   0.00000  Uiso   1.00
N91    N     0.47982   0.35927   0.88402   0.00000  Uiso   1.00
C92    C     0.54256   0.25852   0.21324   0.00000  Uiso   1.00
C93    C     0.49641   0.27174   0.27507   0.00000  Uiso   1.00
C94    C     0.45389   0.26296   0.18519   0.00000  Uiso   1.00
C95    C     0.51619   0.36480   0.98115   0.00000  Uiso   1.00
C96    C     0.50967   0.39184   0.12841   0.00000  Uiso   1.00
C97    C     0.55068   0.40055   0.22368   0.00000  Uiso   1.00
C98    C     0.54687   0.43225   0.35240   0.00000  Uiso   1.00
C99    C     0.50183   0.45541   0.38907   0.00000  Uiso   1.00
C100   C     0.46044   0.44491   0.29500   0.00000  Uiso   1.00
C101   C     0.46424   0.41331   0.16646   0.00000  Uiso   1.00
H102   H     0.41215   0.33760   0.69079   0.00000  Uiso   1.00
H103   H     0.41911   0.29906   0.41530   0.00000  Uiso   1.00
H104   H     0.56311   0.29149   0.45897   0.00000  Uiso   1.00
H105   H     0.55855   0.33217   0.75124   0.00000  Uiso   1.00
H106   H     0.56894   0.26779   0.29589   0.00000  Uiso   1.00
H107   H     0.42355   0.27258   0.23246   0.00000  Uiso   1.00
H108   H     0.54662   0.35168   0.95809   0.00000  Uiso   1.00
H109   H     0.57794   0.38279   0.18733   0.00000  Uiso   1.00
H110   H     0.57401   0.44175   0.42938   0.00000  Uiso   1.00
H111   H     0.43263   0.46169   0.33224   0.00000  Uiso   1.00
H112   H     0.43728   0.40273   0.09096   0.00000  Uiso   1.00
C113   C     0.33624   0.01514   0.98394   0.00000  Uiso   1.00
C114   C     0.32813   0.05744   0.89384   0.00000  Uiso   1.00
C115   C     0.30731   0.05367   0.74456   0.00000  Uiso   1.00
C116   C     0.29439   0.00742   0.68263   0.00000  Uiso   1.00
C117   C     0.30290   0.96495   0.77319   0.00000  Uiso   1.00
C118   C     0.32374   0.96870   0.92254   0.00000  Uiso   1.00
N119   N     0.35927   0.02018   0.13402   0.00000  Uiso   1.00
C120   C     0.25852   0.95744   0.46324   0.00000  Uiso   1.00
C121   C     0.27174   0.00359   0.52507   0.00000  Uiso   1.00
C122   C     0.26296   0.04611   0.43519   0.00000  Uiso   1.00
C123   C     0.36480   0.98381   0.23115   0.00000  Uiso   1.00
C124   C     0.39184   0.99033   0.37841   0.00000  Uiso   1.00
C125   C     0.40055   0.94932   0.47368   0.00000  Uiso   1.00
C126   C     0.43225   0.95313   0.60240   0.00000  Uiso   1.00
C127   C     0.45541   0.99817   0.63907   0.00000  Uiso   1.00
C128   C     0.44491   0.03956   0.54500   0.00000  Uiso   1.00
C129   C     0.41331   0.03576   0.41646   0.00000  Uiso   1.00
H130   H     0.33760   0.08785   0.94079   0.00000  Uiso   1.00
H131   H     0.29906   0.08089   0.66530   0.00000  Uiso   1.00
H132   H     0.29149   0.93689   0.70897   0.00000  Uiso   1.00
H133   H     0.33217   0.94145   0.00124   0.00000  Uiso   1.00
H134   H     0.26779   0.93106   0.54589   0.00000  Uiso   1.00
H135   H     0.27258   0.07645   0.48246   0.00000  Uiso   1.00
H136   H     0.35168   0.95338   0.20809   0.00000  Uiso   1.00
H137   H     0.38279   0.92206   0.43733   0.00000  Uiso   1.00
H138   H     0.44175   0.92599   0.67938   0.00000  Uiso   1.00
H139   H     0.46169   0.06737   0.58224   0.00000  Uiso   1.00
H140   H     0.40273   0.06272   0.34096   0.00000  Uiso   1.00
C141   C     0.83624   0.51514   0.48394   0.00000  Uiso   1.00
C142   C     0.82813   0.55744   0.39384   0.00000  Uiso   1.00
C143   C     0.80731   0.55367   0.24456   0.00000  Uiso   1.00
C144   C     0.79439   0.50742   0.18263   0.00000  Uiso   1.00
C145   C     0.80290   0.46495   0.27319   0.00000  Uiso   1.00
C146   C     0.82374   0.46870   0.42254   0.00000  Uiso   1.00
N147   N     0.85927   0.52018   0.63402   0.00000  Uiso   1.00
C148   C     0.75852   0.45744   0.96324   0.00000  Uiso   1.00
C149   C     0.77174   0.50359   0.02507   0.00000  Uiso   1.00
C150   C     0.76296   0.54611   0.93519   0.00000  Uiso   1.00
C151   C     0.86480   0.48381   0.73115   0.00000  Uiso   1.00
C152   C     0.89184   0.49033   0.87841   0.00000  Uiso   1.00
C153   C     0.90055   0.44932   0.97368   0.00000  Uiso   1.00
C154   C     0.93225   0.45313   0.10240   0.00000  Uiso   1.00
C155   C     0.95541   0.49817   0.13907   0.00000  Uiso   1.00
C156   C     0.94491   0.53956   0.04500   0.00000  Uiso   1.00
C157   C     0.91331   0.53576   0.91646   0.00000  Uiso   1.00
H158   H     0.83760   0.58785   0.44079   0.00000  Uiso   1.00
H159   H     0.79906   0.58089   0.16530   0.00000  Uiso   1.00
H160   H     0.79149   0.43689   0.20897   0.00000  Uiso   1.00
H161   H     0.83217   0.44145   0.50124   0.00000  Uiso   1.00
H162   H     0.76779   0.43106   0.04589   0.00000  Uiso   1.00
H163   H     0.77258   0.57645   0.98246   0.00000  Uiso   1.00
H164   H     0.85168   0.45338   0.70809   0.00000  Uiso   1.00
H165   H     0.88279   0.42206   0.93733   0.00000  Uiso   1.00
H166   H     0.94175   0.42599   0.17938   0.00000  Uiso   1.00
H167   H     0.96169   0.56737   0.08224   0.00000  Uiso   1.00
H168   H     0.90273   0.56272   0.84096   0.00000  Uiso   1.00
C169   C     0.16376   0.48486   0.48394   0.00000  Uiso   1.00
C170   C     0.17187   0.44256   0.39384   0.00000  Uiso   1.00
C171   C     0.19269   0.44633   0.24456   0.00000  Uiso   1.00
C172   C     0.20561   0.49258   0.18263   0.00000  Uiso   1.00
C173   C     0.19710   0.53505   0.27319   0.00000  Uiso   1.00
C174   C     0.17626   0.53130   0.42254   0.00000  Uiso   1.00
N175   N     0.14073   0.47982   0.63402   0.00000  Uiso   1.00
C176   C     0.24148   0.54256   0.96324   0.00000  Uiso   1.00
C177   C     0.22826   0.49641   0.02507   0.00000  Uiso   1.00
C178   C     0.23704   0.45389   0.93519   0.00000  Uiso   1.00
C179   C     0.13520   0.51619   0.73115   0.00000  Uiso   1.00
C180   C     0.10816   0.50967   0.87841   0.00000  Uiso   1.00
C181   C     0.09945   0.55068   0.97368   0.00000  Uiso   1.00
C182   C     0.06775   0.54687   0.10240   0.00000  Uiso   1.00
C183   C     0.04459   0.50183   0.13907   0.00000  Uiso   1.00
C184   C     0.05509   0.46044   0.04500   0.00000  Uiso   1.00
C185   C     0.08669   0.46424   0.91646   0.00000  Uiso   1.00
H186   H     0.16240   0.41215   0.44079   0.00000  Uiso   1.00
H187   H     0.20094   0.41911   0.16530   0.00000  Uiso   1.00
H188   H     0.20851   0.56311   0.20897   0.00000  Uiso   1.00
H189   H     0.16783   0.55855   0.50124   0.00000  Uiso   1.00
H190   H     0.23221   0.56894   0.04589   0.00000  Uiso   1.00
H191   H     0.22742   0.42355   0.98246   0.00000  Uiso   1.00
H192   H     0.14832   0.54662   0.70809   0.00000  Uiso   1.00
H193   H     0.11721   0.57794   0.93733   0.00000  Uiso   1.00
H194   H     0.05825   0.57401   0.17938   0.00000  Uiso   1.00
H195   H     0.03831   0.43263   0.08224   0.00000  Uiso   1.00
H196   H     0.09727   0.43728   0.84096   0.00000  Uiso   1.00
C197   C     0.66376   0.98486   0.98394   0.00000  Uiso   1.00
C198   C     0.67187   0.94256   0.89384   0.00000  Uiso   1.00
C199   C     0.69269   0.94633   0.74456   0.00000  Uiso   1.00
C200   C     0.70561   0.99258   0.68263   0.00000  Uiso   1.00
C201   C     0.69710   0.03505   0.77319   0.00000  Uiso   1.00
C202   C     0.67626   0.03130   0.92254   0.00000  Uiso   1.00
N203   N     0.64073   0.97982   0.13402   0.00000  Uiso   1.00
C204   C     0.74148   0.04256   0.46324   0.00000  Uiso   1.00
C205   C     0.72826   0.99641   0.52507   0.00000  Uiso   1.00
C206   C     0.73704   0.95389   0.43519   0.00000  Uiso   1.00
C207   C     0.63520   0.01619   0.23115   0.00000  Uiso   1.00
C208   C     0.60816   0.00967   0.37841   0.00000  Uiso   1.00
C209   C     0.59945   0.05068   0.47368   0.00000  Uiso   1.00
C210   C     0.56775   0.04687   0.60240   0.00000  Uiso   1.00
C211   C     0.54459   0.00183   0.63907   0.00000  Uiso   1.00
C212   C     0.55509   0.96044   0.54500   0.00000  Uiso   1.00
C213   C     0.58669   0.96424   0.41646   0.00000  Uiso   1.00
H214   H     0.66240   0.91215   0.94079   0.00000  Uiso   1.00
H215   H     0.70094   0.91911   0.66530   0.00000  Uiso   1.00
H216   H     0.70851   0.06311   0.70897   0.00000  Uiso   1.00
H217   H     0.66783   0.05855   0.00124   0.00000  Uiso   1.00
H218   H     0.73221   0.06894   0.54589   0.00000  Uiso   1.00
H219   H     0.72742   0.92355   0.48246   0.00000  Uiso   1.00
H220   H     0.64832   0.04662   0.20809   0.00000  Uiso   1.00
H221   H     0.61721   0.07794   0.43733   0.00000  Uiso   1.00
H222   H     0.55825   0.07401   0.67938   0.00000  Uiso   1.00
H223   H     0.53831   0.93263   0.58224   0.00000  Uiso   1.00
H224   H     0.59727   0.93728   0.34096   0.00000  Uiso   1.00
C225   C     0.48486   0.83624   0.51606   0.00000  Uiso   1.00
C226   C     0.44256   0.82813   0.60616   0.00000  Uiso   1.00
C227   C     0.44633   0.80731   0.75544   0.00000  Uiso   1.00
C228   C     0.49258   0.79439   0.81737   0.00000  Uiso   1.00
C229   C     0.53505   0.80290   0.72681   0.00000  Uiso   1.00
C230   C     0.53130   0.82374   0.57746   0.00000  Uiso   1.00
N231   N     0.47982   0.85927   0.36598   0.00000  Uiso   1.00
C232   C     0.54256   0.75852   0.03676   0.00000  Uiso   1.00
C233   C     0.49641   0.77174   0.97493   0.00000  Uiso   1.00
C234   C     0.45389   0.76296   0.06481   0.00000  Uiso   1.00
C235   C     0.51619   0.86480   0.26885   0.00000  Uiso   1.00
C236   C     0.50967   0.89184   0.12159   0.00000  Uiso   1.00
C237   C     0.55068   0.90055   0.02632   0.00000  Uiso   1.00
C238   C     0.54687   0.93225   0.89760   0.00000  Uiso   1.00
C239   C     0.50183   0.95541   0.86093   0.00000  Uiso   1.00
C240   C     0.46044   0.94491   0.95500   0.00000  Uiso   1.00
C241   C     0.46424   0.91331   0.08354   0.00000  Uiso   1.00
H242   H     0.41215   0.83760   0.55921   0.00000  Uiso   1.00
H243   H     0.41911   0.79906   0.83470   0.00000  Uiso   1.00
H244   H     0.56311   0.79149   0.79103   0.00000  Uiso   1.00
H245   H     0.55855   0.83217   0.49876   0.00000  Uiso   1.00
H246   H     0.56894   0.76779   0.95411   0.00000  Uiso   1.00
H247   H     0.42355   0.77258   0.01754   0.00000  Uiso   1.00
H248   H     0.54662   0.85168   0.29191   0.00000  Uiso   1.00
H249   H     0.57794   0.88279   0.06267   0.00000  Uiso   1.00
H250   H     0.57401   0.94175   0.82062   0.00000  Uiso   1.00
H251   H     0.43263   0.96169   0.91776   0.00000  Uiso   1.00
H252   H     0.43728   0.90273   0.15904   0.00000  Uiso   1.00
C253   C     0.98486   0.33624   0.01606   0.00000  Uiso   1.00
C254   C     0.94256   0.32813   0.10616   0.00000  Uiso   1.00
C255   C     0.94633   0.30731   0.25544   0.00000  Uiso   1.00
C256   C     0.99258   0.29439   0.31737   0.00000  Uiso   1.00
C257   C     0.03505   0.30290   0.22681   0.00000  Uiso   1.00
C258   C     0.03130   0.32374   0.07746   0.00000  Uiso   1.00
N259   N     0.97982   0.35927   0.86598   0.00000  Uiso   1.00
C260   C     0.04256   0.25852   0.53676   0.00000  Uiso   1.00
C261   C     0.99641   0.27174   0.47493   0.00000  Uiso   1.00
C262   C     0.95389   0.26296   0.56481   0.00000  Uiso   1.00
C263   C     0.01619   0.36480   0.76885   0.00000  Uiso   1.00
C264   C     0.00967   0.39184   0.62159   0.00000  Uiso   1.00
C265   C     0.05068   0.40055   0.52632   0.00000  Uiso   1.00
C266   C     0.04687   0.43225   0.39760   0.00000  Uiso   1.00
C267   C     0.00183   0.45541   0.36093   0.00000  Uiso   1.00
C268   C     0.96044   0.44491   0.45500   0.00000  Uiso   1.00
C269   C     0.96424   0.41331   0.58354   0.00000  Uiso   1.00
H270   H     0.91215   0.33760   0.05921   0.00000  Uiso   1.00
H271   H     0.91911   0.29906   0.33470   0.00000  Uiso   1.00
H272   H     0.06311   0.29149   0.29103   0.00000  Uiso   1.00
H273   H     0.05855   0.33217   0.99876   0.00000  Uiso   1.00
H274   H     0.06894   0.26779   0.45411   0.00000  Uiso   1.00
H275   H     0.92355   0.27258   0.51754   0.00000  Uiso   1.00
H276   H     0.04662   0.35168   0.79191   0.00000  Uiso   1.00
H277   H     0.07794   0.38279   0.56267   0.00000  Uiso   1.00
H278   H     0.07401   0.44175   0.32062   0.00000  Uiso   1.00
H279   H     0.93263   0.46169   0.41776   0.00000  Uiso   1.00
H280   H     0.93728   0.40273   0.65904   0.00000  Uiso   1.00
C281   C     0.01514   0.66376   0.01606   0.00000  Uiso   1.00
C282   C     0.05744   0.67187   0.10616   0.00000  Uiso   1.00
C283   C     0.05367   0.69269   0.25544   0.00000  Uiso   1.00
C284   C     0.00742   0.70561   0.31737   0.00000  Uiso   1.00
C285   C     0.96495   0.69710   0.22681   0.00000  Uiso   1.00
C286   C     0.96870   0.67626   0.07746   0.00000  Uiso   1.00
N287   N     0.02018   0.64073   0.86598   0.00000  Uiso   1.00
C288   C     0.95744   0.74148   0.53676   0.00000  Uiso   1.00
C289   C     0.00359   0.72826   0.47493   0.00000  Uiso   1.00
C290   C     0.04611   0.73704   0.56481   0.00000  Uiso   1.00
C291   C     0.98381   0.63520   0.76885   0.00000  Uiso   1.00
C292   C     0.99033   0.60816   0.62159   0.00000  Uiso   1.00
C293   C     0.94932   0.59945   0.52632   0.00000  Uiso   1.00
C294   C     0.95313   0.56775   0.39760   0.00000  Uiso   1.00
C295   C     0.99817   0.54459   0.36093   0.00000  Uiso   1.00
C296   C     0.03956   0.55509   0.45500   0.00000  Uiso   1.00
C297   C     0.03576   0.58669   0.58354   0.00000  Uiso   1.00
H298   H     0.08785   0.66240   0.05921   0.00000  Uiso   1.00
H299   H     0.08089   0.70094   0.33470   0.00000  Uiso   1.00
H300   H     0.93689   0.70851   0.29103   0.00000  Uiso   1.00
H301   H     0.94145   0.66783   0.99876   0.00000  Uiso   1.00
H302   H     0.93106   0.73221   0.45411   0.00000  Uiso   1.00
H303   H     0.07645   0.72742   0.51754   0.00000  Uiso   1.00
H304   H     0.95338   0.64832   0.79191   0.00000  Uiso   1.00
H305   H     0.92206   0.61721   0.56267   0.00000  Uiso   1.00
H306   H     0.92599   0.55825   0.32062   0.00000  Uiso   1.00
H307   H     0.06737   0.53831   0.41776   0.00000  Uiso   1.00
H308   H     0.06272   0.59727   0.65904   0.00000  Uiso   1.00
C309   C     0.51514   0.16376   0.51606   0.00000  Uiso   1.00
C310   C     0.55744   0.17187   0.60616   0.00000  Uiso   1.00
C311   C     0.55367   0.19269   0.75544   0.00000  Uiso   1.00
C312   C     0.50742   0.20561   0.81737   0.00000  Uiso   1.00
C313   C     0.46495   0.19710   0.72681   0.00000  Uiso   1.00
C314   C     0.46870   0.17626   0.57746   0.00000  Uiso   1.00
N315   N     0.52018   0.14073   0.36598   0.00000  Uiso   1.00
C316   C     0.45744   0.24148   0.03676   0.00000  Uiso   1.00
C317   C     0.50359   0.22826   0.97493   0.00000  Uiso   1.00
C318   C     0.54611   0.23704   0.06481   0.00000  Uiso   1.00
C319   C     0.48381   0.13520   0.26885   0.00000  Uiso   1.00
C320   C     0.49033   0.10816   0.12159   0.00000  Uiso   1.00
C321   C     0.44932   0.09945   0.02632   0.00000  Uiso   1.00
C322   C     0.45313   0.06775   0.89760   0.00000  Uiso   1.00
C323   C     0.49817   0.04459   0.86093   0.00000  Uiso   1.00
C324   C     0.53956   0.05509   0.95500   0.00000  Uiso   1.00
C325   C     0.53576   0.08669   0.08354   0.00000  Uiso   1.00
H326   H     0.58785   0.16240   0.55921   0.00000  Uiso   1.00
H327   H     0.58089   0.20094   0.83470   0.00000  Uiso   1.00
H328   H     0.43689   0.20851   0.79103   0.00000  Uiso   1.00
H329   H     0.44145   0.16783   0.49876   0.00000  Uiso   1.00
H330   H     0.43106   0.23221   0.95411   0.00000  Uiso   1.00
H331   H     0.57645   0.22742   0.01754   0.00000  Uiso   1.00
H332   H     0.45338   0.14832   0.29191   0.00000  Uiso   1.00
H333   H     0.42206   0.11721   0.06267   0.00000  Uiso   1.00
H334   H     0.42599   0.05825   0.82062   0.00000  Uiso   1.00
H335   H     0.56737   0.03831   0.91776   0.00000  Uiso   1.00
H336   H     0.56272   0.09727   0.15904   0.00000  Uiso   1.00
C337   C     0.66376   0.48486   0.26606   0.00000  Uiso   1.00
C338   C     0.67187   0.44256   0.35616   0.00000  Uiso   1.00
C339   C     0.69269   0.44633   0.50544   0.00000  Uiso   1.00
C340   C     0.70561   0.49258   0.56737   0.00000  Uiso   1.00
C341   C     0.69710   0.53505   0.47681   0.00000  Uiso   1.00
C342   C     0.67626   0.53130   0.32746   0.00000  Uiso   1.00
N343   N     0.64073   0.47982   0.11598   0.00000  Uiso   1.00
C344   C     0.74148   0.54256   0.78676   0.00000  Uiso   1.00
C345   C     0.72826   0.49641   0.72493   0.00000  Uiso   1.00
C346   C     0.73704   0.45389   0.81481   0.00000  Uiso   1.00
C347   C     0.63520   0.51619   0.01885   0.00000  Uiso   1.00
C348   C     0.60816   0.50967   0.87159   0.00000  Uiso   1.00
C349   C     0.59945   0.55068   0.77632   0.00000  Uiso   1.00
C350   C     0.56775   0.54687   0.64760   0.00000  Uiso   1.00
C351   C     0.54459   0.50183   0.61093   0.00000  Uiso   1.00
C352   C     0.55509   0.46044   0.70500   0.00000  Uiso   1.00
C353   C     0.58669   0.46424   0.83354   0.00000  Uiso   1.00
H354   H     0.66240   0.41215   0.30921   0.00000  Uiso   1.00
H355   H     0.70094   0.41911   0.58470   0.00000  Uiso   1.00
H356   H     0.70851   0.56311   0.54103   0.00000  Uiso   1.00
H357   H     0.66783   0.55855   0.24876   0.00000  Uiso   1.00
H358   H     0.73221   0.56894   0.70411   0.00000  Uiso   1.00
H359   H     0.72742   0.42355   0.76754   0.00000  Uiso   1.00
H360   H     0.64832   0.54662   0.04191   0.00000  Uiso   1.00
H361   H     0.61721   0.57794   0.81267   0.00000  Uiso   1.00
H362   H     0.55825   0.57401   0.57062   0.00000  Uiso   1.00
H363   H     0.53831   0.43263   0.66776   0.00000  Uiso   1.00
H364   H     0.59727   0.43728   0.90904   0.00000  Uiso   1.00
C365   C     0.16376   0.98486   0.76606   0.00000  Uiso   1.00
C366   C     0.17187   0.94256   0.85616   0.00000  Uiso   1.00
C367   C     0.19269   0.94633   0.00544   0.00000  Uiso   1.00
C368   C     0.20561   0.99258   0.06737   0.00000  Uiso   1.00
C369   C     0.19710   0.03505   0.97681   0.00000  Uiso   1.00
C370   C     0.17626   0.03130   0.82746   0.00000  Uiso   1.00
N371   N     0.14073   0.97982   0.61598   0.00000  Uiso   1.00
C372   C     0.24148   0.04256   0.28676   0.00000  Uiso   1.00
C373   C     0.22826   0.99641   0.22493   0.00000  Uiso   1.00
C374   C     0.23704   0.95389   0.31481   0.00000  Uiso   1.00
C375   C     0.13520   0.01619   0.51885   0.00000  Uiso   1.00
C376   C     0.10816   0.00967   0.37159   0.00000  Uiso   1.00
C377   C     0.09945   0.05068   0.27632   0.00000  Uiso   1.00
C378   C     0.06775   0.04687   0.14760   0.00000  Uiso   1.00
C379   C     0.04459   0.00183   0.11093   0.00000  Uiso   1.00
C380   C     0.05509   0.96044   0.20500   0.00000  Uiso   1.00
C381   C     0.08669   0.96424   0.33354   0.00000  Uiso   1.00
H382   H     0.16240   0.91215   0.80921   0.00000  Uiso   1.00
H383   H     0.20094   0.91911   0.08470   0.00000  Uiso   1.00
H384   H     0.20851   0.06311   0.04103   0.00000  Uiso   1.00
H385   H     0.16783   0.05855   0.74876   0.00000  Uiso   1.00
H386   H     0.23221   0.06894   0.20411   0.00000  Uiso   1.00
H387   H     0.22742   0.92355   0.26754   0.00000  Uiso   1.00
H388   H     0.14832   0.04662   0.54191   0.00000  Uiso   1.00
H389   H     0.11721   0.07794   0.31267   0.00000  Uiso   1.00
H390   H     0.05825   0.07401   0.07062   0.00000  Uiso   1.00
H391   H     0.03831   0.93263   0.16776   0.00000  Uiso   1.00
H392   H     0.09727   0.93728   0.40904   0.00000  Uiso   1.00
C393   C     0.83624   0.01514   0.76606   0.00000  Uiso   1.00
C394   C     0.82813   0.05744   0.85616   0.00000  Uiso   1.00
C395   C     0.80731   0.05367   0.00544   0.00000  Uiso   1.00
C396   C     0.79439   0.00742   0.06737   0.00000  Uiso   1.00
C397   C     0.80290   0.96495   0.97681   0.00000  Uiso   1.00
C398   C     0.82374   0.96870   0.82746   0.00000  Uiso   1.00
N399   N     0.85927   0.02018   0.61598   0.00000  Uiso   1.00
C400   C     0.75852   0.95744   0.28676   0.00000  Uiso   1.00
C401   C     0.77174   0.00359   0.22493   0.00000  Uiso   1.00
C402   C     0.76296   0.04611   0.31481   0.00000  Uiso   1.00
C403   C     0.86480   0.98381   0.51885   0.00000  Uiso   1.00
C404   C     0.89184   0.99033   0.37159   0.00000  Uiso   1.00
C405   C     0.90055   0.94932   0.27632   0.00000  Uiso   1.00
C406   C     0.93225   0.95313   0.14760   0.00000  Uiso   1.00
C407   C     0.95541   0.99817   0.11093   0.00000  Uiso   1.00
C408   C     0.94491   0.03956   0.20500   0.00000  Uiso   1.00
C409   C     0.91331   0.03576   0.33354   0.00000  Uiso   1.00
H410   H     0.83760   0.08785   0.80921   0.00000  Uiso   1.00
H411   H     0.79906   0.08089   0.08470   0.00000  Uiso   1.00
H412   H     0.79149   0.93689   0.04103   0.00000  Uiso   1.00
H413   H     0.83217   0.94145   0.74876   0.00000  Uiso   1.00
H414   H     0.76779   0.93106   0.20411   0.00000  Uiso   1.00
H415   H     0.77258   0.07645   0.26754   0.00000  Uiso   1.00
H416   H     0.85168   0.95338   0.54191   0.00000  Uiso   1.00
H417   H     0.88279   0.92206   0.31267   0.00000  Uiso   1.00
H418   H     0.94175   0.92599   0.07062   0.00000  Uiso   1.00
H419   H     0.96169   0.06737   0.16776   0.00000  Uiso   1.00
H420   H     0.90273   0.06272   0.40904   0.00000  Uiso   1.00
C421   C     0.33624   0.51514   0.26606   0.00000  Uiso   1.00
C422   C     0.32813   0.55744   0.35616   0.00000  Uiso   1.00
C423   C     0.30731   0.55367   0.50544   0.00000  Uiso   1.00
C424   C     0.29439   0.50742   0.56737   0.00000  Uiso   1.00
C425   C     0.30290   0.46495   0.47681   0.00000  Uiso   1.00
C426   C     0.32374   0.46870   0.32746   0.00000  Uiso   1.00
N427   N     0.35927   0.52018   0.11598   0.00000  Uiso   1.00
C428   C     0.25852   0.45744   0.78676   0.00000  Uiso   1.00
C429   C     0.27174   0.50359   0.72493   0.00000  Uiso   1.00
C430   C     0.26296   0.54611   0.81481   0.00000  Uiso   1.00
C431   C     0.36480   0.48381   0.01885   0.00000  Uiso   1.00
C432   C     0.39184   0.49033   0.87159   0.00000  Uiso   1.00
C433   C     0.40055   0.44932   0.77632   0.00000  Uiso   1.00
C434   C     0.43225   0.45313   0.64760   0.00000  Uiso   1.00
C435   C     0.45541   0.49817   0.61093   0.00000  Uiso   1.00
C436   C     0.44491   0.53956   0.70500   0.00000  Uiso   1.00
C437   C     0.41331   0.53576   0.83354   0.00000  Uiso   1.00
H438   H     0.33760   0.58785   0.30921   0.00000  Uiso   1.00
H439   H     0.29906   0.58089   0.58470   0.00000  Uiso   1.00
H440   H     0.29149   0.43689   0.54103   0.00000  Uiso   1.00
H441   H     0.33217   0.44145   0.24876   0.00000  Uiso   1.00
H442   H     0.26779   0.43106   0.70411   0.00000  Uiso   1.00
H443   H     0.27258   0.57645   0.76754   0.00000  Uiso   1.00
H444   H     0.35168   0.45338   0.04191   0.00000  Uiso   1.00
H445   H     0.38279   0.42206   0.81267   0.00000  Uiso   1.00
H446   H     0.44175   0.42599   0.57062   0.00000  Uiso   1.00
H447   H     0.46169   0.56737   0.66776   0.00000  Uiso   1.00
H448   H     0.40273   0.56272   0.90904   0.00000  Uiso   1.00
C449   C     0.50000   0.50000   0.50000   0.00000  Uiso   1.00
C450   C     0.00000   0.00000   0.00000   0.00000  Uiso   1.00
C451   C     0.50000   0.00000   0.75000   0.00000  Uiso   1.00
C452   C     0.00000   0.50000   0.25000   0.00000  Uiso   1.00
loop_
_geom_bond_atom_site_label_1
_geom_bond_atom_site_label_2
_geom_bond_distance
_geom_bond_site_symmetry_2
_ccdc_geom_bond_type
C1     C2      1.616   .     D
C1     C6      1.699   .     S
C1     N7      1.397   .     S
C2     C3      1.346   .     S
C2     H18     1.140   .     S
C3     C4      1.698   .     D
C3     H19     1.140   .     S
C4     C5      1.625   .     S
C4     C9      1.432   .     S
C5     C6      1.347   .     D
C5     H20     1.140   .     S
C6     H21     1.140   .     S
N7     C11     1.453   .     D
C8     C9      1.698   .     S
C8     H22     1.140   .     S
C8     C234    1.352   .     D
C9     C10     1.626   .     D
C10    H23     1.140   .     S
C10    C232    1.352   .     S
C11    C12     1.467   1_556 S
C11    H24     1.139   .     S
C12    C11     1.467   1_554 S
C12    C13     1.599   .     D
C12    C17     1.731   .     S
C13    C14     1.463   .     S
C13    H25     1.139   .     S
C14    C15     1.743   .     D
C14    H26     1.140   .     S
C15    C16     1.618   .     S
C15    C449    1.736   .     S
C16    C17     1.459   .     D
C16    H27     1.139   .     S
C17    H28     1.140   .     S
C29    C30     1.616   .     D
C29    C34     1.699   1_455 S
C29    N35     1.397   .     S
C30    C31     1.346   1_554 S
C30    H46     1.140   .     S
C31    C30     1.346   1_556 S
C31    C32     1.698   .     D
C31    H47     1.140   .     S
C32    C33     1.625   1_456 S
C32    C37     1.432   .     S
C33    C32     1.625   1_654 S
C33    C34     1.347   .     D
C33    H48     1.140   1_554 S
C34    C29     1.699   1_655 S
C34    H49     1.140   .     S
N35    C39     1.453   1_455 D
C36    C37     1.698   1_655 S
C36    H50     1.140   .     S
C36    C262    1.352   .     D
C37    C36     1.698   1_455 S
C37    C38     1.626   .     D
C38    H51     1.140   .     S
C38    C260    1.352   .     S
C39    N35     1.453   1_655 D
C39    C40     1.467   .     S
C39    H52     1.139   .     S
C40    C41     1.599   .     D
C40    C45     1.731   1_655 S
C41    C42     1.463   .     S
C41    H53     1.139   .     S
C42    C43     1.743   .     D
C42    H54     1.140   .     S
C43    C44     1.618   1_655 S
C43    C450    1.736   1_656 S
C44    C43     1.618   1_455 S
C44    C45     1.459   .     D
C44    H55     1.139   .     S
C45    C40     1.731   1_455 S
C45    H56     1.140   .     S
H48    C33     1.140   1_556 S
C57    C58     1.616   .     D
C57    C62     1.699   1_655 S
C57    N63     1.397   .     S
C58    C59     1.346   1_554 S
C58    H74     1.140   .     S
C59    C58     1.346   1_556 S
C59    C60     1.698   .     D
C59    H75     1.140   .     S
C60    C61     1.625   1_656 S
C60    C65     1.432   .     S
C61    C60     1.625   1_454 S
C61    C62     1.347   .     D
C61    H76     1.140   1_554 S
C62    C57     1.699   1_455 S
C62    H77     1.140   .     S
N63    C67     1.453   1_655 D
C64    C65     1.698   1_455 S
C64    H78     1.140   .     S
C64    C290    1.352   .     D
C65    C64     1.698   1_655 S
C65    C66     1.626   .     D
C66    H79     1.140   .     S
C66    C288    1.352   .     S
C67    N63     1.453   1_455 D
C67    C68     1.467   .     S
C67    H80     1.139   .     S
C68    C69     1.599   .     D
C68    C73     1.731   1_455 S
C69    C70     1.463   .     S
C69    H81     1.139   .     S
C70    C71     1.743   .     D
C70    H82     1.140   .     S
C71    C72     1.618   1_455 S
C71    C450    1.736   1_566 S
C72    C71     1.618   1_655 S
C72    C73     1.459   .     D
C72    H83     1.139   .     S
C73    C68     1.731   1_655 S
C73    H84     1.140   .     S
H76    C61     1.140   1_556 S
C85    C86     1.616   .     D
C85    C90     1.699   .     S
C85    N91     1.397   .     S
C86    C87     1.346   .     S
C86    H102    1.140   .     S
C87    C88     1.698   .     D
C87    H103    1.140   .     S
C88    C89     1.625   .     S
C88    C93     1.432   .     S
C89    C90     1.347   .     D
C89    H104    1.140   .     S
C90    H105    1.140   .     S
N91    C95     1.453   .     D
C92    C93     1.698   .     S
C92    H106    1.140   .     S
C92    C318    1.352   .     D
C93    C94     1.626   .     D
C94    H107    1.140   .     S
C94    C316    1.352   .     S
C95    C96     1.467   1_556 S
C95    H108    1.139   .     S
C96    C95     1.467   1_554 S
C96    C97     1.599   .     D
C96    C101    1.731   .     S
C97    C98     1.463   .     S
C97    H109    1.139   .     S
C98    C99     1.743   .     D
C98    H110    1.140   .     S
C99    C100    1.618   .     S
C99    C449    1.736   .     S
C100   C101    1.459   .     D
C100   H111    1.139   .     S
C101   H112    1.140   .     S
C113   C114    1.616   .     D
C113   C118    1.699   1_545 S
C113   N119    1.397   1_556 S
C114   C115    1.346   .     S
C114   H130    1.140   .     S
C115   C116    1.698   .     D
C115   H131    1.140   .     S
C116   C117    1.625   1_545 S
C116   C121    1.432   .     S
C117   C116    1.625   1_565 S
C117   C118    1.347   .     D
C117   H132    1.140   .     S
C118   C113    1.699   1_565 S
C118   H133    1.140   1_556 S
N119   C113    1.397   1_554 S
N119   C123    1.453   1_545 D
C120   C121    1.698   1_565 S
C120   H134    1.140   .     S
C120   C374    1.352   .     D
C121   C120    1.698   1_545 S
C121   C122    1.626   .     D
C122   H135    1.140   .     S
C122   C372    1.352   .     S
C123   N119    1.453   1_565 D
C123   C124    1.467   .     S
C123   H136    1.139   .     S
C124   C125    1.599   .     D
C124   C129    1.731   1_565 S
C125   C126    1.463   .     S
C125   H137    1.139   .     S
C126   C127    1.743   .     D
C126   H138    1.140   .     S
C127   C128    1.618   1_565 S
C127   C451    1.736   1_565 S
C128   C127    1.618   1_545 S
C128   C129    1.459   .     D
C128   H139    1.139   .     S
C129   C124    1.731   1_545 S
C129   H140    1.140   .     S
H133   C118    1.140   1_554 S
C141   C142    1.616   .     S
C141   C146    1.699   .     D
C141   N147    1.397   .     S
C142   C143    1.346   .     D
C142   H158    1.140   .     S
C143   C144    1.698   .     S
C143   H159    1.140   .     S
C144   C145    1.625   .     D
C144   C149    1.432   .     S
C145   C146    1.347   .     S
C145   H160    1.140   .     S
C146   H161    1.140   .     S
N147   C151    1.453   .     D
C148   C149    1.698   1_556 D
C148   H162    1.140   1_556 S
C148   C346    1.352   .     S
C149   C148    1.698   1_554 D
C149   C150    1.626   1_554 S
C150   C149    1.626   1_556 S
C150   H163    1.140   .     S
C150   C344    1.352   .     D
C151   C152    1.467   .     S
C151   H164    1.139   .     S
C152   C153    1.599   .     S
C152   C157    1.731   .     D
C153   C154    1.463   1_556 D
C153   H165    1.139   .     S
C154   C153    1.463   1_554 D
C154   C155    1.743   .     S
C154   H166    1.140   .     S
C155   C156    1.618   .     D
C155   C452    1.736   1_655 S
C156   C157    1.459   1_554 S
C156   H167    1.139   .     S
C157   C156    1.459   1_556 S
C157   H168    1.140   .     S
H162   C148    1.140   1_554 S
C169   C170    1.616   .     S
C169   C174    1.699   .     D
C169   N175    1.397   .     S
C170   C171    1.346   .     D
C170   H186    1.140   .     S
C171   C172    1.698   .     S
C171   H187    1.140   .     S
C172   C173    1.625   .     D
C172   C177    1.432   .     S
C173   C174    1.347   .     S
C173   H188    1.140   .     S
C174   H189    1.140   .     S
N175   C179    1.453   .     D
C176   C177    1.698   1_556 D
C176   H190    1.140   1_556 S
C176   C430    1.352   .     S
C177   C176    1.698   1_554 D
C177   C178    1.626   1_554 S
C178   C177    1.626   1_556 S
C178   H191    1.140   .     S
C178   C428    1.352   .     D
C179   C180    1.467   .     S
C179   H192    1.139   .     S
C180   C181    1.599   .     S
C180   C185    1.731   .     D
C181   C182    1.463   1_556 D
C181   H193    1.139   .     S
C182   C181    1.463   1_554 D
C182   C183    1.743   .     S
C182   H194    1.140   .     S
C183   C184    1.618   .     D
C183   C452    1.736   .     S
C184   C185    1.459   1_554 S
C184   H195    1.139   .     S
C185   C184    1.459   1_556 S
C185   H196    1.140   .     S
H190   C176    1.140   1_554 S
C197   C198    1.616   .     D
C197   C202    1.699   1_565 S
C197   N203    1.397   1_556 S
C198   C199    1.346   .     S
C198   H214    1.140   .     S
C199   C200    1.698   .     D
C199   H215    1.140   .     S
C200   C201    1.625   1_565 S
C200   C205    1.432   .     S
C201   C200    1.625   1_545 S
C201   C202    1.347   .     D
C201   H216    1.140   .     S
C202   C197    1.699   1_545 S
C202   H217    1.140   1_556 S
N203   C197    1.397   1_554 S
N203   C207    1.453   1_565 D
C204   C205    1.698   1_545 S
C204   H218    1.140   .     S
C204   C402    1.352   .     D
C205   C204    1.698   1_565 S
C205   C206    1.626   .     D
C206   H219    1.140   .     S
C206   C400    1.352   .     S
C207   N203    1.453   1_545 D
C207   C208    1.467   .     S
C207   H220    1.139   .     S
C208   C209    1.599   .     D
C208   C213    1.731   1_545 S
C209   C210    1.463   .     S
C209   H221    1.139   .     S
C210   C211    1.743   .     D
C210   H222    1.140   .     S
C211   C212    1.618   1_545 S
C211   C451    1.736   .     S
C212   C211    1.618   1_565 S
C212   C213    1.459   .     D
C212   H223    1.139   .     S
C213   C208    1.731   1_565 S
C213   H224    1.140   .     S
H217   C202    1.140   1_554 S
C225   C226    1.616   .     D
C225   C230    1.699   .     S
C225   N231    1.397   .     S
C226   C227    1.346   .     S
C226   H242    1.140   .     S
C227   C228    1.698   .     D
C227   H243    1.140   .     S
C228   C229    1.625   .     S
C228   C233    1.432   .     S
C229   C230    1.347   .     D
C229   H244    1.140   .     S
C230   H245    1.140   .     S
N231   C235    1.453   .     D
C232   C233    1.698   1_554 D
C232   H246    1.140   1_554 S
C233   C232    1.698   1_556 D
C233   C234    1.626   1_556 S
C234   C233    1.626   1_554 S
C234   H247    1.140   .     S
C235   C236    1.467   .     S
C235   H248    1.139   .     S
C236   C237    1.599   .     S
C236   C241    1.731   .     D
C237   C238    1.463   1_554 D
C237   H249    1.139   .     S
C238   C237    1.463   1_556 D
C238   C239    1.743   .     S
C238   H250    1.140   .     S
C239   C240    1.618   .     D
C239   C451    1.736   1_565 S
C240   C241    1.459   1_556 S
C240   H251    1.139   .     S
C241   C240    1.459   1_554 S
C241   H252    1.140   .     S
H246   C232    1.140   1_556 S
C253   C254    1.616   .     D
C253   C258    1.699   1_655 S
C253   N259    1.397   1_554 S
C254   C255    1.346   .     S
C254   H270    1.140   .     S
C255   C256    1.698   .     D
C255   H271    1.140   .     S
C256   C257    1.625   1_655 S
C256   C261    1.432   .     S
C257   C256    1.625   1_455 S
C257   C258    1.347   .     D
C257   H272    1.140   .     S
C258   C253    1.699   1_455 S
C258   H273    1.140   1_554 S
N259   C253    1.397   1_556 S
N259   C263    1.453   1_655 D
C260   C261    1.698   1_455 D
C260   H274    1.140   .     S
C261   C260    1.698   1_655 D
C261   C262    1.626   .     S
C262   H275    1.140   .     S
C263   N259    1.453   1_455 D
C263   C264    1.467   .     S
C263   H276    1.139   .     S
C264   C265    1.599   .     S
C264   C269    1.731   1_455 D
C265   C266    1.463   .     D
C265   H277    1.139   .     S
C266   C267    1.743   .     S
C266   H278    1.140   .     S
C267   C268    1.618   1_455 D
C267   C452    1.736   .     S
C268   C267    1.618   1_655 D
C268   C269    1.459   .     S
C268   H279    1.139   .     S
C269   C264    1.731   1_655 D
C269   H280    1.140   .     S
H273   C258    1.140   1_556 S
C281   C282    1.616   .     D
C281   C286    1.699   1_455 S
C281   N287    1.397   1_554 S
C282   C283    1.346   .     S
C282   H298    1.140   .     S
C283   C284    1.698   .     D
C283   H299    1.140   .     S
C284   C285    1.625   1_455 S
C284   C289    1.432   .     S
C285   C284    1.625   1_655 S
C285   C286    1.347   .     D
C285   H300    1.140   .     S
C286   C281    1.699   1_655 S
C286   H301    1.140   1_554 S
N287   C281    1.397   1_556 S
N287   C291    1.453   1_455 D
C288   C289    1.698   1_655 D
C288   H302    1.140   .     S
C289   C288    1.698   1_455 D
C289   C290    1.626   .     S
C290   H303    1.140   .     S
C291   N287    1.453   1_655 D
C291   C292    1.467   .     S
C291   H304    1.139   .     S
C292   C293    1.599   .     S
C292   C297    1.731   1_655 D
C293   C294    1.463   .     D
C293   H305    1.139   .     S
C294   C295    1.743   .     S
C294   H306    1.140   .     S
C295   C296    1.618   1_655 D
C295   C452    1.736   1_655 S
C296   C295    1.618   1_455 D
C296   C297    1.459   .     S
C296   H307    1.139   .     S
C297   C292    1.731   1_455 D
C297   H308    1.140   .     S
H301   C286    1.140   1_556 S
C309   C310    1.616   .     D
C309   C314    1.699   .     S
C309   N315    1.397   .     S
C310   C311    1.346   .     S
C310   H326    1.140   .     S
C311   C312    1.698   .     D
C311   H327    1.140   .     S
C312   C313    1.625   .     S
C312   C317    1.432   .     S
C313   C314    1.347   .     D
C313   H328    1.140   .     S
C314   H329    1.140   .     S
N315   C319    1.453   .     D
C316   C317    1.698   1_554 D
C316   H330    1.140   1_554 S
C317   C316    1.698   1_556 D
C317   C318    1.626   1_556 S
C318   C317    1.626   1_554 S
C318   H331    1.140   .     S
C319   C320    1.467   .     S
C319   H332    1.139   .     S
C320   C321    1.599   .     S
C320   C325    1.731   .     D
C321   C322    1.463   1_554 D
C321   H333    1.139   .     S
C322   C321    1.463   1_556 D
C322   C323    1.743   .     S
C322   H334    1.140   .     S
C323   C324    1.618   .     D
C323   C451    1.736   .     S
C324   C325    1.459   1_556 S
C324   H335    1.139   .     S
C325   C324    1.459   1_554 S
C325   H336    1.140   .     S
H330   C316    1.140   1_556 S
C337   C338    1.616   .     S
C337   C342    1.699   .     D
C337   N343    1.397   .     S
C338   C339    1.346   .     D
C338   H354    1.140   .     S
C339   C340    1.698   .     S
C339   H355    1.140   .     S
C340   C341    1.625   .     D
C340   C345    1.432   .     S
C341   C342    1.347   .     S
C341   H356    1.140   .     S
C342   H357    1.140   .     S
N343   C347    1.453   .     D
C344   C345    1.698   .     S
C344   H358    1.140   .     S
C345   C346    1.626   .     D
C346   H359    1.140   .     S
C347   C348    1.467   1_554 S
C347   H360    1.139   .     S
C348   C347    1.467   1_556 S
C348   C349    1.599   .     S
C348   C353    1.731   .     D
C349   C350    1.463   .     D
C349   H361    1.139   .     S
C350   C351    1.743   .     S
C350   H362    1.140   .     S
C351   C352    1.618   .     D
C351   C449    1.736   .     S
C352   C353    1.459   .     S
C352   H363    1.139   .     S
C353   H364    1.140   .     S
C365   C366    1.616   .     D
C365   C370    1.699   1_565 S
C365   N371    1.397   .     S
C366   C367    1.346   1_556 S
C366   H382    1.140   .     S
C367   C366    1.346   1_554 S
C367   C368    1.698   .     D
C367   H383    1.140   .     S
C368   C369    1.625   1_564 S
C368   C373    1.432   .     S
C369   C368    1.625   1_546 S
C369   C370    1.347   .     D
C369   H384    1.140   1_556 S
C370   C365    1.699   1_545 S
C370   H385    1.140   .     S
N371   C375    1.453   1_565 D
C372   C373    1.698   1_545 D
C372   H386    1.140   .     S
C373   C372    1.698   1_565 D
C373   C374    1.626   .     S
C374   H387    1.140   .     S
C375   N371    1.453   1_545 D
C375   C376    1.467   .     S
C375   H388    1.139   .     S
C376   C377    1.599   .     S
C376   C381    1.731   1_545 D
C377   C378    1.463   .     D
C377   H389    1.139   .     S
C378   C379    1.743   .     S
C378   H390    1.140   .     S
C379   C380    1.618   1_545 D
C379   C450    1.736   .     S
C380   C379    1.618   1_565 D
C380   C381    1.459   .     S
C380   H391    1.139   .     S
C381   C376    1.731   1_565 D
C381   H392    1.140   .     S
H384   C369    1.140   1_554 S
C393   C394    1.616   .     D
C393   C398    1.699   1_545 S
C393   N399    1.397   .     S
C394   C395    1.346   1_556 S
C394   H410    1.140   .     S
C395   C394    1.346   1_554 S
C395   C396    1.698   .     D
C395   H411    1.140   .     S
C396   C397    1.625   1_544 S
C396   C401    1.432   .     S
C397   C396    1.625   1_566 S
C397   C398    1.347   .     D
C397   H412    1.140   1_556 S
C398   C393    1.699   1_565 S
C398   H413    1.140   .     S
N399   C403    1.453   1_545 D
C400   C401    1.698   1_565 D
C400   H414    1.140   .     S
C401   C400    1.698   1_545 D
C401   C402    1.626   .     S
C402   H415    1.140   .     S
C403   N399    1.453   1_565 D
C403   C404    1.467   .     S
C403   H416    1.139   .     S
C404   C405    1.599   .     S
C404   C409    1.731   1_565 D
C405   C406    1.463   .     D
C405   H417    1.139   .     S
C406   C407    1.743   .     S
C406   H418    1.140   .     S
C407   C408    1.618   1_565 D
C407   C450    1.736   1_665 S
C408   C407    1.618   1_545 D
C408   C409    1.459   .     S
C408   H419    1.139   .     S
C409   C404    1.731   1_545 D
C409   H420    1.140   .     S
H412   C397    1.140   1_554 S
C421   C422    1.616   .     S
C421   C426    1.699   .     D
C421   N427    1.397   .     S
C422   C423    1.346   .     D
C422   H438    1.140   .     S
C423   C424    1.698   .     S
C423   H439    1.140   .     S
C424   C425    1.625   .     D
C424   C429    1.432   .     S
C425   C426    1.347   .     S
C425   H440    1.140   .     S
C426   H441    1.140   .     S
N427   C431    1.453   .     D
C428   C429    1.698   .     S
C428   H442    1.140   .     S
C429   C430    1.626   .     D
C430   H443    1.140   .     S
C431   C432    1.467   1_554 S
C431   H444    1.139   .     S
C432   C431    1.467   1_556 S
C432   C433    1.599   .     S
C432   C437    1.731   .     D
C433   C434    1.463   .     D
C433   H445    1.139   .     S
C434   C435    1.743   .     S
C434   H446    1.140   .     S
C435   C436    1.618   .     D
C435   C449    1.736   .     S
C436   C437    1.459   .     S
C436   H447    1.139   .     S
C437   H448    1.140   .     S
C450   C407    1.736   1_445 S
C450   C43     1.736   1_454 S
C450   C71     1.736   1_544 S
C451   C239    1.736   1_545 S
C451   C127    1.736   1_545 S
C452   C295    1.736   1_455 S
C452   C155    1.736   1_455 S
