data_18
_audit_creation_date              2023-09-08
_audit_creation_method            'Materials Studio'
_symmetry_space_group_name_H-M    'P1'
_symmetry_Int_Tables_number       1
_symmetry_cell_setting            triclinic
loop_
_symmetry_equiv_pos_as_xyz
  x,y,z
_cell_length_a                    30.5120
_cell_length_b                    30.5120
_cell_length_c                    7.3840
_cell_angle_alpha                 90.0000
_cell_angle_beta                  90.0000
_cell_angle_gamma                 90.0000
loop_
_atom_site_label
_atom_site_type_symbol
_atom_site_fract_x
_atom_site_fract_y
_atom_site_fract_z
_atom_site_U_iso_or_equiv
_atom_site_adp_type
_atom_site_occupancy
C1     C     0.98870   0.03860   0.12810   0.00000  Uiso   1.00
C2     C     0.95060   0.03510   0.23400   0.00000  Uiso   1.00
C3     C     0.93930   0.06890   0.35500   0.00000  Uiso   1.00
C4     C     0.96620   0.10620   0.37000   0.00000  Uiso   1.00
C5     C     0.00430   0.10970   0.26400   0.00000  Uiso   1.00
C6     C     0.01560   0.07590   0.14300   0.00000  Uiso   1.00
C7     C     0.95680   0.13920   0.50600   0.00000  Uiso   1.00
N8     N     0.93160   0.13500   0.64800   0.00000  Uiso   1.00
C9     C     0.92570   0.16820   0.78800   0.00000  Uiso   1.00
C10    C     0.94900   0.20780   0.77400   0.00000  Uiso   1.00
C11    C     0.94340   0.24060   0.90600   0.00000  Uiso   1.00
C12    C     0.91450   0.23370   0.05260   0.00000  Uiso   1.00
C13    C     0.89130   0.19400   0.06600   0.00000  Uiso   1.00
C14    C     0.89690   0.16130   0.93400   0.00000  Uiso   1.00
O15    O     0.87407   0.12451   0.94312   0.00000  Uiso   1.00
H16    H     0.92860   0.00452   0.22170   0.00000  Uiso   1.00
H17    H     0.90800   0.06606   0.44193   0.00000  Uiso   1.00
H18    H     0.02630   0.14028   0.27623   0.00000  Uiso   1.00
H19    H     0.04689   0.07873   0.05599   0.00000  Uiso   1.00
H20    H     0.97234   0.17353   0.49466   0.00000  Uiso   1.00
H21    H     0.97270   0.21337   0.65426   0.00000  Uiso   1.00
H22    H     0.96244   0.27312   0.89433   0.00000  Uiso   1.00
H23    H     0.86761   0.18826   0.18564   0.00000  Uiso   1.00
H24    H     0.84225   0.13085   0.01506   0.00000  Uiso   1.00
C25    C     0.48870   0.53860   0.62810   0.00000  Uiso   1.00
C26    C     0.45060   0.53510   0.73400   0.00000  Uiso   1.00
C27    C     0.43930   0.56890   0.85500   0.00000  Uiso   1.00
C28    C     0.46620   0.60620   0.87000   0.00000  Uiso   1.00
C29    C     0.50430   0.60970   0.76400   0.00000  Uiso   1.00
C30    C     0.51560   0.57590   0.64300   0.00000  Uiso   1.00
C31    C     0.45680   0.63920   0.00600   0.00000  Uiso   1.00
N32    N     0.43160   0.63500   0.14800   0.00000  Uiso   1.00
C33    C     0.42570   0.66820   0.28800   0.00000  Uiso   1.00
C34    C     0.44900   0.70780   0.27400   0.00000  Uiso   1.00
C35    C     0.44340   0.74060   0.40600   0.00000  Uiso   1.00
C36    C     0.41450   0.73370   0.55260   0.00000  Uiso   1.00
C37    C     0.39130   0.69400   0.56600   0.00000  Uiso   1.00
C38    C     0.39690   0.66130   0.43400   0.00000  Uiso   1.00
O39    O     0.37407   0.62451   0.44312   0.00000  Uiso   1.00
H40    H     0.42860   0.50452   0.72170   0.00000  Uiso   1.00
H41    H     0.40800   0.56606   0.94193   0.00000  Uiso   1.00
H42    H     0.52630   0.64028   0.77623   0.00000  Uiso   1.00
H43    H     0.54689   0.57873   0.55599   0.00000  Uiso   1.00
H44    H     0.47234   0.67353   0.99466   0.00000  Uiso   1.00
H45    H     0.47270   0.71337   0.15426   0.00000  Uiso   1.00
H46    H     0.46244   0.77312   0.39433   0.00000  Uiso   1.00
H47    H     0.36761   0.68826   0.68564   0.00000  Uiso   1.00
H48    H     0.34225   0.63085   0.51506   0.00000  Uiso   1.00
C49    C     0.01130   0.96140   0.12810   0.00000  Uiso   1.00
C50    C     0.04940   0.96490   0.23400   0.00000  Uiso   1.00
C51    C     0.06070   0.93110   0.35500   0.00000  Uiso   1.00
C52    C     0.03380   0.89380   0.37000   0.00000  Uiso   1.00
C53    C     0.99570   0.89030   0.26400   0.00000  Uiso   1.00
C54    C     0.98440   0.92410   0.14300   0.00000  Uiso   1.00
C55    C     0.04320   0.86080   0.50600   0.00000  Uiso   1.00
N56    N     0.06840   0.86500   0.64800   0.00000  Uiso   1.00
C57    C     0.07430   0.83180   0.78800   0.00000  Uiso   1.00
C58    C     0.05100   0.79220   0.77400   0.00000  Uiso   1.00
C59    C     0.05660   0.75940   0.90600   0.00000  Uiso   1.00
C60    C     0.08550   0.76630   0.05260   0.00000  Uiso   1.00
C61    C     0.10870   0.80600   0.06600   0.00000  Uiso   1.00
C62    C     0.10310   0.83870   0.93400   0.00000  Uiso   1.00
O63    O     0.12593   0.87549   0.94312   0.00000  Uiso   1.00
H64    H     0.07140   0.99548   0.22170   0.00000  Uiso   1.00
H65    H     0.09200   0.93394   0.44193   0.00000  Uiso   1.00
H66    H     0.97370   0.85972   0.27623   0.00000  Uiso   1.00
H67    H     0.95311   0.92127   0.05599   0.00000  Uiso   1.00
H68    H     0.02766   0.82647   0.49466   0.00000  Uiso   1.00
H69    H     0.02730   0.78663   0.65426   0.00000  Uiso   1.00
H70    H     0.03756   0.72688   0.89433   0.00000  Uiso   1.00
H71    H     0.13239   0.81174   0.18564   0.00000  Uiso   1.00
H72    H     0.15775   0.86915   0.01506   0.00000  Uiso   1.00
C73    C     0.51130   0.46140   0.62810   0.00000  Uiso   1.00
C74    C     0.54940   0.46490   0.73400   0.00000  Uiso   1.00
C75    C     0.56070   0.43110   0.85500   0.00000  Uiso   1.00
C76    C     0.53380   0.39380   0.87000   0.00000  Uiso   1.00
C77    C     0.49570   0.39030   0.76400   0.00000  Uiso   1.00
C78    C     0.48440   0.42410   0.64300   0.00000  Uiso   1.00
C79    C     0.54320   0.36080   0.00600   0.00000  Uiso   1.00
N80    N     0.56840   0.36500   0.14800   0.00000  Uiso   1.00
C81    C     0.57430   0.33180   0.28800   0.00000  Uiso   1.00
C82    C     0.55100   0.29220   0.27400   0.00000  Uiso   1.00
C83    C     0.55660   0.25940   0.40600   0.00000  Uiso   1.00
C84    C     0.58550   0.26630   0.55260   0.00000  Uiso   1.00
C85    C     0.60870   0.30600   0.56600   0.00000  Uiso   1.00
C86    C     0.60310   0.33870   0.43400   0.00000  Uiso   1.00
O87    O     0.62593   0.37549   0.44312   0.00000  Uiso   1.00
H88    H     0.57140   0.49548   0.72170   0.00000  Uiso   1.00
H89    H     0.59200   0.43394   0.94193   0.00000  Uiso   1.00
H90    H     0.47370   0.35972   0.77623   0.00000  Uiso   1.00
H91    H     0.45311   0.42127   0.55599   0.00000  Uiso   1.00
H92    H     0.52766   0.32647   0.99466   0.00000  Uiso   1.00
H93    H     0.52730   0.28663   0.15426   0.00000  Uiso   1.00
H94    H     0.53756   0.22688   0.39433   0.00000  Uiso   1.00
H95    H     0.63239   0.31174   0.68564   0.00000  Uiso   1.00
H96    H     0.65775   0.36915   0.51506   0.00000  Uiso   1.00
C97    C     0.03860   0.01130   0.87190   0.00000  Uiso   1.00
C98    C     0.03510   0.04940   0.76600   0.00000  Uiso   1.00
C99    C     0.06890   0.06070   0.64500   0.00000  Uiso   1.00
C100   C     0.10620   0.03380   0.63000   0.00000  Uiso   1.00
C101   C     0.10970   0.99570   0.73600   0.00000  Uiso   1.00
C102   C     0.07590   0.98440   0.85700   0.00000  Uiso   1.00
C103   C     0.13920   0.04320   0.49400   0.00000  Uiso   1.00
N104   N     0.13500   0.06840   0.35200   0.00000  Uiso   1.00
C105   C     0.16820   0.07430   0.21200   0.00000  Uiso   1.00
C106   C     0.20780   0.05100   0.22600   0.00000  Uiso   1.00
C107   C     0.24060   0.05660   0.09400   0.00000  Uiso   1.00
C108   C     0.23370   0.08550   0.94740   0.00000  Uiso   1.00
C109   C     0.19400   0.10870   0.93400   0.00000  Uiso   1.00
C110   C     0.16130   0.10310   0.06600   0.00000  Uiso   1.00
O111   O     0.12451   0.12593   0.05688   0.00000  Uiso   1.00
H112   H     0.00452   0.07140   0.77830   0.00000  Uiso   1.00
H113   H     0.06606   0.09200   0.55807   0.00000  Uiso   1.00
H114   H     0.14028   0.97370   0.72377   0.00000  Uiso   1.00
H115   H     0.07873   0.95311   0.94401   0.00000  Uiso   1.00
H116   H     0.17353   0.02766   0.50534   0.00000  Uiso   1.00
H117   H     0.21337   0.02730   0.34574   0.00000  Uiso   1.00
H118   H     0.27312   0.03756   0.10567   0.00000  Uiso   1.00
H119   H     0.18826   0.13239   0.81436   0.00000  Uiso   1.00
H120   H     0.13085   0.15775   0.98494   0.00000  Uiso   1.00
C121   C     0.53860   0.51130   0.37190   0.00000  Uiso   1.00
C122   C     0.53510   0.54940   0.26600   0.00000  Uiso   1.00
C123   C     0.56890   0.56070   0.14500   0.00000  Uiso   1.00
C124   C     0.60620   0.53380   0.13000   0.00000  Uiso   1.00
C125   C     0.60970   0.49570   0.23600   0.00000  Uiso   1.00
C126   C     0.57590   0.48440   0.35700   0.00000  Uiso   1.00
C127   C     0.63920   0.54320   0.99400   0.00000  Uiso   1.00
N128   N     0.63500   0.56840   0.85200   0.00000  Uiso   1.00
C129   C     0.66820   0.57430   0.71200   0.00000  Uiso   1.00
C130   C     0.70780   0.55100   0.72600   0.00000  Uiso   1.00
C131   C     0.74060   0.55660   0.59400   0.00000  Uiso   1.00
C132   C     0.73370   0.58550   0.44740   0.00000  Uiso   1.00
C133   C     0.69400   0.60870   0.43400   0.00000  Uiso   1.00
C134   C     0.66130   0.60310   0.56600   0.00000  Uiso   1.00
O135   O     0.62451   0.62593   0.55688   0.00000  Uiso   1.00
H136   H     0.50452   0.57140   0.27830   0.00000  Uiso   1.00
H137   H     0.56606   0.59200   0.05807   0.00000  Uiso   1.00
H138   H     0.64028   0.47370   0.22377   0.00000  Uiso   1.00
H139   H     0.57873   0.45311   0.44401   0.00000  Uiso   1.00
H140   H     0.67353   0.52766   0.00534   0.00000  Uiso   1.00
H141   H     0.71337   0.52730   0.84574   0.00000  Uiso   1.00
H142   H     0.77312   0.53756   0.60567   0.00000  Uiso   1.00
H143   H     0.68826   0.63239   0.31436   0.00000  Uiso   1.00
H144   H     0.63085   0.65775   0.48494   0.00000  Uiso   1.00
C145   C     0.96140   0.98870   0.87190   0.00000  Uiso   1.00
C146   C     0.96490   0.95060   0.76600   0.00000  Uiso   1.00
C147   C     0.93110   0.93930   0.64500   0.00000  Uiso   1.00
C148   C     0.89380   0.96620   0.63000   0.00000  Uiso   1.00
C149   C     0.89030   0.00430   0.73600   0.00000  Uiso   1.00
C150   C     0.92410   0.01560   0.85700   0.00000  Uiso   1.00
C151   C     0.86080   0.95680   0.49400   0.00000  Uiso   1.00
N152   N     0.86500   0.93160   0.35200   0.00000  Uiso   1.00
C153   C     0.83180   0.92570   0.21200   0.00000  Uiso   1.00
C154   C     0.79220   0.94900   0.22600   0.00000  Uiso   1.00
C155   C     0.75940   0.94340   0.09400   0.00000  Uiso   1.00
C156   C     0.76630   0.91450   0.94740   0.00000  Uiso   1.00
C157   C     0.80600   0.89130   0.93400   0.00000  Uiso   1.00
C158   C     0.83870   0.89690   0.06600   0.00000  Uiso   1.00
O159   O     0.87549   0.87407   0.05688   0.00000  Uiso   1.00
H160   H     0.99548   0.92860   0.77830   0.00000  Uiso   1.00
H161   H     0.93394   0.90800   0.55807   0.00000  Uiso   1.00
H162   H     0.85972   0.02630   0.72377   0.00000  Uiso   1.00
H163   H     0.92127   0.04689   0.94401   0.00000  Uiso   1.00
H164   H     0.82647   0.97234   0.50534   0.00000  Uiso   1.00
H165   H     0.78663   0.97270   0.34574   0.00000  Uiso   1.00
H166   H     0.72688   0.96244   0.10567   0.00000  Uiso   1.00
H167   H     0.81174   0.86761   0.81436   0.00000  Uiso   1.00
H168   H     0.86915   0.84225   0.98494   0.00000  Uiso   1.00
C169   C     0.46140   0.48870   0.37190   0.00000  Uiso   1.00
C170   C     0.46490   0.45060   0.26600   0.00000  Uiso   1.00
C171   C     0.43110   0.43930   0.14500   0.00000  Uiso   1.00
C172   C     0.39380   0.46620   0.13000   0.00000  Uiso   1.00
C173   C     0.39030   0.50430   0.23600   0.00000  Uiso   1.00
C174   C     0.42410   0.51560   0.35700   0.00000  Uiso   1.00
C175   C     0.36080   0.45680   0.99400   0.00000  Uiso   1.00
N176   N     0.36500   0.43160   0.85200   0.00000  Uiso   1.00
C177   C     0.33180   0.42570   0.71200   0.00000  Uiso   1.00
C178   C     0.29220   0.44900   0.72600   0.00000  Uiso   1.00
C179   C     0.25940   0.44340   0.59400   0.00000  Uiso   1.00
C180   C     0.26630   0.41450   0.44740   0.00000  Uiso   1.00
C181   C     0.30600   0.39130   0.43400   0.00000  Uiso   1.00
C182   C     0.33870   0.39690   0.56600   0.00000  Uiso   1.00
O183   O     0.37549   0.37407   0.55688   0.00000  Uiso   1.00
H184   H     0.49548   0.42860   0.27830   0.00000  Uiso   1.00
H185   H     0.43394   0.40800   0.05807   0.00000  Uiso   1.00
H186   H     0.35972   0.52630   0.22377   0.00000  Uiso   1.00
H187   H     0.42127   0.54689   0.44401   0.00000  Uiso   1.00
H188   H     0.32647   0.47234   0.00534   0.00000  Uiso   1.00
H189   H     0.28663   0.47270   0.84574   0.00000  Uiso   1.00
H190   H     0.22688   0.46244   0.60567   0.00000  Uiso   1.00
H191   H     0.31174   0.36761   0.31436   0.00000  Uiso   1.00
H192   H     0.36915   0.34225   0.48494   0.00000  Uiso   1.00
C193   C     0.51130   0.03860   0.62190   0.00000  Uiso   1.00
C194   C     0.54940   0.03510   0.51600   0.00000  Uiso   1.00
C195   C     0.56070   0.06890   0.39500   0.00000  Uiso   1.00
C196   C     0.53380   0.10620   0.38000   0.00000  Uiso   1.00
C197   C     0.49570   0.10970   0.48600   0.00000  Uiso   1.00
C198   C     0.48440   0.07590   0.60700   0.00000  Uiso   1.00
C199   C     0.54320   0.13920   0.24400   0.00000  Uiso   1.00
N200   N     0.56840   0.13500   0.10200   0.00000  Uiso   1.00
C201   C     0.57430   0.16820   0.96200   0.00000  Uiso   1.00
C202   C     0.55100   0.20780   0.97600   0.00000  Uiso   1.00
C203   C     0.55660   0.24060   0.84400   0.00000  Uiso   1.00
C204   C     0.58550   0.23370   0.69740   0.00000  Uiso   1.00
C205   C     0.60870   0.19400   0.68400   0.00000  Uiso   1.00
C206   C     0.60310   0.16130   0.81600   0.00000  Uiso   1.00
O207   O     0.62593   0.12451   0.80688   0.00000  Uiso   1.00
H208   H     0.57140   0.00452   0.52830   0.00000  Uiso   1.00
H209   H     0.59200   0.06606   0.30807   0.00000  Uiso   1.00
H210   H     0.47370   0.14028   0.47377   0.00000  Uiso   1.00
H211   H     0.45311   0.07873   0.69401   0.00000  Uiso   1.00
H212   H     0.52766   0.17353   0.25534   0.00000  Uiso   1.00
H213   H     0.52730   0.21337   0.09574   0.00000  Uiso   1.00
H214   H     0.53756   0.27312   0.85567   0.00000  Uiso   1.00
H215   H     0.63239   0.18826   0.56436   0.00000  Uiso   1.00
H216   H     0.65775   0.13085   0.73494   0.00000  Uiso   1.00
C217   C     0.01130   0.53860   0.12190   0.00000  Uiso   1.00
C218   C     0.04940   0.53510   0.01600   0.00000  Uiso   1.00
C219   C     0.06070   0.56890   0.89500   0.00000  Uiso   1.00
C220   C     0.03380   0.60620   0.88000   0.00000  Uiso   1.00
C221   C     0.99570   0.60970   0.98600   0.00000  Uiso   1.00
C222   C     0.98440   0.57590   0.10700   0.00000  Uiso   1.00
C223   C     0.04320   0.63920   0.74400   0.00000  Uiso   1.00
N224   N     0.06840   0.63500   0.60200   0.00000  Uiso   1.00
C225   C     0.07430   0.66820   0.46200   0.00000  Uiso   1.00
C226   C     0.05100   0.70780   0.47600   0.00000  Uiso   1.00
C227   C     0.05660   0.74060   0.34400   0.00000  Uiso   1.00
C228   C     0.08550   0.73370   0.19740   0.00000  Uiso   1.00
C229   C     0.10870   0.69400   0.18400   0.00000  Uiso   1.00
C230   C     0.10310   0.66130   0.31600   0.00000  Uiso   1.00
O231   O     0.12593   0.62451   0.30688   0.00000  Uiso   1.00
H232   H     0.07140   0.50452   0.02830   0.00000  Uiso   1.00
H233   H     0.09200   0.56606   0.80807   0.00000  Uiso   1.00
H234   H     0.97370   0.64028   0.97377   0.00000  Uiso   1.00
H235   H     0.95311   0.57873   0.19401   0.00000  Uiso   1.00
H236   H     0.02766   0.67353   0.75534   0.00000  Uiso   1.00
H237   H     0.02730   0.71337   0.59574   0.00000  Uiso   1.00
H238   H     0.03756   0.77312   0.35567   0.00000  Uiso   1.00
H239   H     0.13239   0.68826   0.06436   0.00000  Uiso   1.00
H240   H     0.15775   0.63085   0.23494   0.00000  Uiso   1.00
C241   C     0.48870   0.96140   0.62190   0.00000  Uiso   1.00
C242   C     0.45060   0.96490   0.51600   0.00000  Uiso   1.00
C243   C     0.43930   0.93110   0.39500   0.00000  Uiso   1.00
C244   C     0.46620   0.89380   0.38000   0.00000  Uiso   1.00
C245   C     0.50430   0.89030   0.48600   0.00000  Uiso   1.00
C246   C     0.51560   0.92410   0.60700   0.00000  Uiso   1.00
C247   C     0.45680   0.86080   0.24400   0.00000  Uiso   1.00
N248   N     0.43160   0.86500   0.10200   0.00000  Uiso   1.00
C249   C     0.42570   0.83180   0.96200   0.00000  Uiso   1.00
C250   C     0.44900   0.79220   0.97600   0.00000  Uiso   1.00
C251   C     0.44340   0.75940   0.84400   0.00000  Uiso   1.00
C252   C     0.41450   0.76630   0.69740   0.00000  Uiso   1.00
C253   C     0.39130   0.80600   0.68400   0.00000  Uiso   1.00
C254   C     0.39690   0.83870   0.81600   0.00000  Uiso   1.00
O255   O     0.37407   0.87549   0.80688   0.00000  Uiso   1.00
H256   H     0.42860   0.99548   0.52830   0.00000  Uiso   1.00
H257   H     0.40800   0.93394   0.30807   0.00000  Uiso   1.00
H258   H     0.52630   0.85972   0.47377   0.00000  Uiso   1.00
H259   H     0.54689   0.92127   0.69401   0.00000  Uiso   1.00
H260   H     0.47234   0.82647   0.25534   0.00000  Uiso   1.00
H261   H     0.47270   0.78663   0.09574   0.00000  Uiso   1.00
H262   H     0.46244   0.72688   0.85567   0.00000  Uiso   1.00
H263   H     0.36761   0.81174   0.56436   0.00000  Uiso   1.00
H264   H     0.34225   0.86915   0.73494   0.00000  Uiso   1.00
C265   C     0.98870   0.46140   0.12190   0.00000  Uiso   1.00
C266   C     0.95060   0.46490   0.01600   0.00000  Uiso   1.00
C267   C     0.93930   0.43110   0.89500   0.00000  Uiso   1.00
C268   C     0.96620   0.39380   0.88000   0.00000  Uiso   1.00
C269   C     0.00430   0.39030   0.98600   0.00000  Uiso   1.00
C270   C     0.01560   0.42410   0.10700   0.00000  Uiso   1.00
C271   C     0.95680   0.36080   0.74400   0.00000  Uiso   1.00
N272   N     0.93160   0.36500   0.60200   0.00000  Uiso   1.00
C273   C     0.92570   0.33180   0.46200   0.00000  Uiso   1.00
C274   C     0.94900   0.29220   0.47600   0.00000  Uiso   1.00
C275   C     0.94340   0.25940   0.34400   0.00000  Uiso   1.00
C276   C     0.91450   0.26630   0.19740   0.00000  Uiso   1.00
C277   C     0.89130   0.30600   0.18400   0.00000  Uiso   1.00
C278   C     0.89690   0.33870   0.31600   0.00000  Uiso   1.00
O279   O     0.87407   0.37549   0.30688   0.00000  Uiso   1.00
H280   H     0.92860   0.49548   0.02830   0.00000  Uiso   1.00
H281   H     0.90800   0.43394   0.80807   0.00000  Uiso   1.00
H282   H     0.02630   0.35972   0.97377   0.00000  Uiso   1.00
H283   H     0.04689   0.42127   0.19401   0.00000  Uiso   1.00
H284   H     0.97234   0.32647   0.75534   0.00000  Uiso   1.00
H285   H     0.97270   0.28663   0.59574   0.00000  Uiso   1.00
H286   H     0.96244   0.22688   0.35567   0.00000  Uiso   1.00
H287   H     0.86761   0.31174   0.06436   0.00000  Uiso   1.00
H288   H     0.84225   0.36915   0.23494   0.00000  Uiso   1.00
C289   C     0.46140   0.01130   0.87810   0.00000  Uiso   1.00
C290   C     0.46490   0.04940   0.98400   0.00000  Uiso   1.00
C291   C     0.43110   0.06070   0.10500   0.00000  Uiso   1.00
C292   C     0.39380   0.03380   0.12000   0.00000  Uiso   1.00
C293   C     0.39030   0.99570   0.01400   0.00000  Uiso   1.00
C294   C     0.42410   0.98440   0.89300   0.00000  Uiso   1.00
C295   C     0.36080   0.04320   0.25600   0.00000  Uiso   1.00
N296   N     0.36500   0.06840   0.39800   0.00000  Uiso   1.00
C297   C     0.33180   0.07430   0.53800   0.00000  Uiso   1.00
C298   C     0.29220   0.05100   0.52400   0.00000  Uiso   1.00
C299   C     0.25940   0.05660   0.65600   0.00000  Uiso   1.00
C300   C     0.26630   0.08550   0.80260   0.00000  Uiso   1.00
C301   C     0.30600   0.10870   0.81600   0.00000  Uiso   1.00
C302   C     0.33870   0.10310   0.68400   0.00000  Uiso   1.00
O303   O     0.37549   0.12593   0.69312   0.00000  Uiso   1.00
H304   H     0.49548   0.07140   0.97170   0.00000  Uiso   1.00
H305   H     0.43394   0.09200   0.19193   0.00000  Uiso   1.00
H306   H     0.35972   0.97370   0.02623   0.00000  Uiso   1.00
H307   H     0.42127   0.95311   0.80599   0.00000  Uiso   1.00
H308   H     0.32647   0.02766   0.24466   0.00000  Uiso   1.00
H309   H     0.28663   0.02730   0.40426   0.00000  Uiso   1.00
H310   H     0.22688   0.03756   0.64433   0.00000  Uiso   1.00
H311   H     0.31174   0.13239   0.93564   0.00000  Uiso   1.00
H312   H     0.36915   0.15775   0.76506   0.00000  Uiso   1.00
C313   C     0.96140   0.51130   0.37810   0.00000  Uiso   1.00
C314   C     0.96490   0.54940   0.48400   0.00000  Uiso   1.00
C315   C     0.93110   0.56070   0.60500   0.00000  Uiso   1.00
C316   C     0.89380   0.53380   0.62000   0.00000  Uiso   1.00
C317   C     0.89030   0.49570   0.51400   0.00000  Uiso   1.00
C318   C     0.92410   0.48440   0.39300   0.00000  Uiso   1.00
C319   C     0.86080   0.54320   0.75600   0.00000  Uiso   1.00
N320   N     0.86500   0.56840   0.89800   0.00000  Uiso   1.00
C321   C     0.83180   0.57430   0.03800   0.00000  Uiso   1.00
C322   C     0.79220   0.55100   0.02400   0.00000  Uiso   1.00
C323   C     0.75940   0.55660   0.15600   0.00000  Uiso   1.00
C324   C     0.76630   0.58550   0.30260   0.00000  Uiso   1.00
C325   C     0.80600   0.60870   0.31600   0.00000  Uiso   1.00
C326   C     0.83870   0.60310   0.18400   0.00000  Uiso   1.00
O327   O     0.87549   0.62593   0.19312   0.00000  Uiso   1.00
H328   H     0.99548   0.57140   0.47170   0.00000  Uiso   1.00
H329   H     0.93394   0.59200   0.69193   0.00000  Uiso   1.00
H330   H     0.85972   0.47370   0.52623   0.00000  Uiso   1.00
H331   H     0.92127   0.45311   0.30599   0.00000  Uiso   1.00
H332   H     0.82647   0.52766   0.74466   0.00000  Uiso   1.00
H333   H     0.78663   0.52730   0.90426   0.00000  Uiso   1.00
H334   H     0.72688   0.53756   0.14433   0.00000  Uiso   1.00
H335   H     0.81174   0.63239   0.43564   0.00000  Uiso   1.00
H336   H     0.86915   0.65775   0.26506   0.00000  Uiso   1.00
C337   C     0.53860   0.98870   0.87810   0.00000  Uiso   1.00
C338   C     0.53510   0.95060   0.98400   0.00000  Uiso   1.00
C339   C     0.56890   0.93930   0.10500   0.00000  Uiso   1.00
C340   C     0.60620   0.96620   0.12000   0.00000  Uiso   1.00
C341   C     0.60970   0.00430   0.01400   0.00000  Uiso   1.00
C342   C     0.57590   0.01560   0.89300   0.00000  Uiso   1.00
C343   C     0.63920   0.95680   0.25600   0.00000  Uiso   1.00
N344   N     0.63500   0.93160   0.39800   0.00000  Uiso   1.00
C345   C     0.66820   0.92570   0.53800   0.00000  Uiso   1.00
C346   C     0.70780   0.94900   0.52400   0.00000  Uiso   1.00
C347   C     0.74060   0.94340   0.65600   0.00000  Uiso   1.00
C348   C     0.73370   0.91450   0.80260   0.00000  Uiso   1.00
C349   C     0.69400   0.89130   0.81600   0.00000  Uiso   1.00
C350   C     0.66130   0.89690   0.68400   0.00000  Uiso   1.00
O351   O     0.62451   0.87407   0.69312   0.00000  Uiso   1.00
H352   H     0.50452   0.92860   0.97170   0.00000  Uiso   1.00
H353   H     0.56606   0.90800   0.19193   0.00000  Uiso   1.00
H354   H     0.64028   0.02630   0.02623   0.00000  Uiso   1.00
H355   H     0.57873   0.04689   0.80599   0.00000  Uiso   1.00
H356   H     0.67353   0.97234   0.24466   0.00000  Uiso   1.00
H357   H     0.71337   0.97270   0.40426   0.00000  Uiso   1.00
H358   H     0.77312   0.96244   0.64433   0.00000  Uiso   1.00
H359   H     0.68826   0.86761   0.93564   0.00000  Uiso   1.00
H360   H     0.63085   0.84225   0.76506   0.00000  Uiso   1.00
C361   C     0.03860   0.48870   0.37810   0.00000  Uiso   1.00
C362   C     0.03510   0.45060   0.48400   0.00000  Uiso   1.00
C363   C     0.06890   0.43930   0.60500   0.00000  Uiso   1.00
C364   C     0.10620   0.46620   0.62000   0.00000  Uiso   1.00
C365   C     0.10970   0.50430   0.51400   0.00000  Uiso   1.00
C366   C     0.07590   0.51560   0.39300   0.00000  Uiso   1.00
C367   C     0.13920   0.45680   0.75600   0.00000  Uiso   1.00
N368   N     0.13500   0.43160   0.89800   0.00000  Uiso   1.00
C369   C     0.16820   0.42570   0.03800   0.00000  Uiso   1.00
C370   C     0.20780   0.44900   0.02400   0.00000  Uiso   1.00
C371   C     0.24060   0.44340   0.15600   0.00000  Uiso   1.00
C372   C     0.23370   0.41450   0.30260   0.00000  Uiso   1.00
C373   C     0.19400   0.39130   0.31600   0.00000  Uiso   1.00
C374   C     0.16130   0.39690   0.18400   0.00000  Uiso   1.00
O375   O     0.12451   0.37407   0.19312   0.00000  Uiso   1.00
H376   H     0.00452   0.42860   0.47170   0.00000  Uiso   1.00
H377   H     0.06606   0.40800   0.69193   0.00000  Uiso   1.00
H378   H     0.14028   0.52630   0.52623   0.00000  Uiso   1.00
H379   H     0.07873   0.54689   0.30599   0.00000  Uiso   1.00
H380   H     0.17353   0.47234   0.74466   0.00000  Uiso   1.00
H381   H     0.21337   0.47270   0.90426   0.00000  Uiso   1.00
H382   H     0.27312   0.46244   0.14433   0.00000  Uiso   1.00
H383   H     0.18826   0.36761   0.43564   0.00000  Uiso   1.00
H384   H     0.13085   0.34225   0.26506   0.00000  Uiso   1.00
C385   C     0.00000   0.00000   0.00000   0.00000  Uiso   1.00
C386   C     0.50000   0.50000   0.50000   0.00000  Uiso   1.00
C387   C     0.50000   0.00000   0.75000   0.00000  Uiso   1.00
C388   C     0.00000   0.50000   0.25000   0.00000  Uiso   1.00
loop_
_geom_bond_atom_site_label_1
_geom_bond_atom_site_label_2
_geom_bond_distance
_geom_bond_site_symmetry_2
_ccdc_geom_bond_type
C1     C2      1.405   .     D
C1     C6      1.407   1_655 S
C1     C385    1.549   1_655 S
C2     C3      1.407   .     S
C2     H16     1.153   .     S
C3     C4      1.408   .     D
C3     H17     1.154   .     S
C4     C5      1.406   1_655 S
C4     C7      1.451   .     S
C5     C4      1.406   1_455 S
C5     C6      1.407   .     D
C5     H18     1.153   .     S
C6     C1      1.407   1_455 S
C6     H19     1.154   .     S
C7     N8      1.307   .     D
C7     H20     1.153   .     S
N8     C9      1.459   .     S
C9     C10     1.406   .     D
C9     C14     1.407   .     S
C10    C11     1.407   .     S
C10    H21     1.155   .     S
C11    C12     1.412   1_556 D
C11    H22     1.153   .     S
C12    C11     1.412   1_554 D
C12    C13     1.406   .     S
C12    C276    1.460   .     S
C13    C14     1.405   1_554 D
C13    H23     1.155   .     S
C14    C13     1.405   1_556 D
C14    O15     1.323   .     S
O15    H24     1.123   1_556 S
H24    O15     1.123   1_554 S
C25    C26     1.405   .     S
C25    C30     1.407   .     D
C25    C386    1.549   .     S
C26    C27     1.407   .     D
C26    H40     1.153   .     S
C27    C28     1.408   .     S
C27    H41     1.154   .     S
C28    C29     1.406   .     D
C28    C31     1.451   1_556 S
C29    C30     1.407   .     S
C29    H42     1.153   .     S
C30    H43     1.154   .     S
C31    C28     1.451   1_554 S
C31    N32     1.307   .     D
C31    H44     1.153   1_554 S
N32    C33     1.459   .     S
C33    C34     1.406   .     S
C33    C38     1.407   .     D
C34    C35     1.407   .     D
C34    H45     1.155   .     S
C35    C36     1.412   .     S
C35    H46     1.153   .     S
C36    C37     1.406   .     D
C36    C252    1.460   .     S
C37    C38     1.405   .     S
C37    H47     1.155   .     S
C38    O39     1.323   .     S
O39    H48     1.123   .     S
H44    C31     1.153   1_556 S
C49    C50     1.405   .     D
C49    C54     1.407   1_455 S
C49    C385    1.549   1_565 S
C50    C51     1.407   .     S
C50    H64     1.153   .     S
C51    C52     1.408   .     D
C51    H65     1.154   .     S
C52    C53     1.406   1_455 S
C52    C55     1.451   .     S
C53    C52     1.406   1_655 S
C53    C54     1.407   .     D
C53    H66     1.153   .     S
C54    C49     1.407   1_655 S
C54    H67     1.154   .     S
C55    N56     1.307   .     D
C55    H68     1.153   .     S
N56    C57     1.459   .     S
C57    C58     1.406   .     D
C57    C62     1.407   .     S
C58    C59     1.407   .     S
C58    H69     1.155   .     S
C59    C60     1.412   1_556 D
C59    H70     1.153   .     S
C60    C59     1.412   1_554 D
C60    C61     1.406   .     S
C60    C228    1.460   .     S
C61    C62     1.405   1_554 D
C61    H71     1.155   .     S
C62    C61     1.405   1_556 D
C62    O63     1.323   .     S
O63    H72     1.123   1_556 S
H72    O63     1.123   1_554 S
C73    C74     1.405   .     S
C73    C78     1.407   .     D
C73    C386    1.549   .     S
C74    C75     1.407   .     D
C74    H88     1.153   .     S
C75    C76     1.408   .     S
C75    H89     1.154   .     S
C76    C77     1.406   .     D
C76    C79     1.451   1_556 S
C77    C78     1.407   .     S
C77    H90     1.153   .     S
C78    H91     1.154   .     S
C79    C76     1.451   1_554 S
C79    N80     1.307   .     D
C79    H92     1.153   1_554 S
N80    C81     1.459   .     S
C81    C82     1.406   .     S
C81    C86     1.407   .     D
C82    C83     1.407   .     D
C82    H93     1.155   .     S
C83    C84     1.412   .     S
C83    H94     1.153   .     S
C84    C85     1.406   .     D
C84    C204    1.460   .     S
C85    C86     1.405   .     S
C85    H95     1.155   .     S
C86    O87     1.323   .     S
O87    H96     1.123   .     S
H92    C79     1.153   1_556 S
C97    C98     1.405   .     D
C97    C102    1.407   1_545 S
C97    C385    1.549   1_556 S
C98    C99     1.407   .     S
C98    H112    1.153   .     S
C99    C100    1.408   .     D
C99    H113    1.154   .     S
C100   C101    1.406   1_545 S
C100   C103    1.451   .     S
C101   C100    1.406   1_565 S
C101   C102    1.407   .     D
C101   H114    1.153   .     S
C102   C97     1.407   1_565 S
C102   H115    1.154   .     S
C103   N104    1.307   .     D
C103   H116    1.153   .     S
N104   C105    1.459   .     S
C105   C106    1.406   .     D
C105   C110    1.407   .     S
C106   C107    1.407   .     S
C106   H117    1.155   .     S
C107   C108    1.412   1_554 D
C107   H118    1.153   .     S
C108   C107    1.412   1_556 D
C108   C109    1.406   .     S
C108   C300    1.460   .     S
C109   C110    1.405   1_556 D
C109   H119    1.155   .     S
C110   C109    1.405   1_554 D
C110   O111    1.323   .     S
O111   H120    1.123   1_554 S
H120   O111    1.123   1_556 S
C121   C122    1.405   .     D
C121   C126    1.407   .     S
C121   C386    1.549   .     S
C122   C123    1.407   .     S
C122   H136    1.153   .     S
C123   C124    1.408   .     D
C123   H137    1.154   .     S
C124   C125    1.406   .     S
C124   C127    1.451   1_554 S
C125   C126    1.407   .     D
C125   H138    1.153   .     S
C126   H139    1.154   .     S
C127   C124    1.451   1_556 S
C127   N128    1.307   .     D
C127   H140    1.153   1_556 S
N128   C129    1.459   .     S
C129   C130    1.406   .     D
C129   C134    1.407   .     S
C130   C131    1.407   .     S
C130   H141    1.155   .     S
C131   C132    1.412   .     D
C131   H142    1.153   .     S
C132   C133    1.406   .     S
C132   C324    1.460   .     S
C133   C134    1.405   .     D
C133   H143    1.155   .     S
C134   O135    1.323   .     S
O135   H144    1.123   .     S
H140   C127    1.153   1_554 S
C145   C146    1.405   .     D
C145   C150    1.407   1_565 S
C145   C385    1.549   1_666 S
C146   C147    1.407   .     S
C146   H160    1.153   .     S
C147   C148    1.408   .     D
C147   H161    1.154   .     S
C148   C149    1.406   1_565 S
C148   C151    1.451   .     S
C149   C148    1.406   1_545 S
C149   C150    1.407   .     D
C149   H162    1.153   .     S
C150   C145    1.407   1_545 S
C150   H163    1.154   .     S
C151   N152    1.307   .     D
C151   H164    1.153   .     S
N152   C153    1.459   .     S
C153   C154    1.406   .     D
C153   C158    1.407   .     S
C154   C155    1.407   .     S
C154   H165    1.155   .     S
C155   C156    1.412   1_554 D
C155   H166    1.153   .     S
C156   C155    1.412   1_556 D
C156   C157    1.406   .     S
C156   C348    1.460   .     S
C157   C158    1.405   1_556 D
C157   H167    1.155   .     S
C158   C157    1.405   1_554 D
C158   O159    1.323   .     S
O159   H168    1.123   1_554 S
H168   O159    1.123   1_556 S
C169   C170    1.405   .     D
C169   C174    1.407   .     S
C169   C386    1.549   .     S
C170   C171    1.407   .     S
C170   H184    1.153   .     S
C171   C172    1.408   .     D
C171   H185    1.154   .     S
C172   C173    1.406   .     S
C172   C175    1.451   1_554 S
C173   C174    1.407   .     D
C173   H186    1.153   .     S
C174   H187    1.154   .     S
C175   C172    1.451   1_556 S
C175   N176    1.307   .     D
C175   H188    1.153   1_556 S
N176   C177    1.459   .     S
C177   C178    1.406   .     D
C177   C182    1.407   .     S
C178   C179    1.407   .     S
C178   H189    1.155   .     S
C179   C180    1.412   .     D
C179   H190    1.153   .     S
C180   C181    1.406   .     S
C180   C372    1.460   .     S
C181   C182    1.405   .     D
C181   H191    1.155   .     S
C182   O183    1.323   .     S
O183   H192    1.123   .     S
H188   C175    1.153   1_554 S
C193   C194    1.405   .     S
C193   C198    1.407   .     D
C193   C387    1.549   .     S
C194   C195    1.407   .     D
C194   H208    1.153   .     S
C195   C196    1.408   .     S
C195   H209    1.154   .     S
C196   C197    1.406   .     D
C196   C199    1.451   .     S
C197   C198    1.407   .     S
C197   H210    1.153   .     S
C198   H211    1.154   .     S
C199   N200    1.307   .     D
C199   H212    1.153   .     S
N200   C201    1.459   1_554 S
C201   N200    1.459   1_556 S
C201   C202    1.406   .     S
C201   C206    1.407   .     D
C202   C203    1.407   .     D
C202   H213    1.155   1_556 S
C203   C204    1.412   .     S
C203   H214    1.153   .     S
C204   C205    1.406   .     D
C205   C206    1.405   .     S
C205   H215    1.155   .     S
C206   O207    1.323   .     S
O207   H216    1.123   .     S
H213   C202    1.155   1_554 S
C217   C218    1.405   .     D
C217   C222    1.407   1_455 S
C217   C388    1.549   .     S
C218   C219    1.407   1_554 S
C218   H232    1.153   .     S
C219   C218    1.407   1_556 S
C219   C220    1.408   .     D
C219   H233    1.154   .     S
C220   C221    1.406   1_455 S
C220   C223    1.451   .     S
C221   C220    1.406   1_655 S
C221   C222    1.407   1_556 D
C221   H234    1.153   .     S
C222   C217    1.407   1_655 S
C222   C221    1.407   1_554 D
C222   H235    1.154   .     S
C223   N224    1.307   .     D
C223   H236    1.153   .     S
N224   C225    1.459   .     S
C225   C226    1.406   .     S
C225   C230    1.407   .     D
C226   C227    1.407   .     D
C226   H237    1.155   .     S
C227   C228    1.412   .     S
C227   H238    1.153   .     S
C228   C229    1.406   .     D
C229   C230    1.405   .     S
C229   H239    1.155   .     S
C230   O231    1.323   .     S
O231   H240    1.123   .     S
C241   C242    1.405   .     S
C241   C246    1.407   .     D
C241   C387    1.549   1_565 S
C242   C243    1.407   .     D
C242   H256    1.153   .     S
C243   C244    1.408   .     S
C243   H257    1.154   .     S
C244   C245    1.406   .     D
C244   C247    1.451   .     S
C245   C246    1.407   .     S
C245   H258    1.153   .     S
C246   H259    1.154   .     S
C247   N248    1.307   .     D
C247   H260    1.153   .     S
N248   C249    1.459   1_554 S
C249   N248    1.459   1_556 S
C249   C250    1.406   .     S
C249   C254    1.407   .     D
C250   C251    1.407   .     D
C250   H261    1.155   1_556 S
C251   C252    1.412   .     S
C251   H262    1.153   .     S
C252   C253    1.406   .     D
C253   C254    1.405   .     S
C253   H263    1.155   .     S
C254   O255    1.323   .     S
O255   H264    1.123   .     S
H261   C250    1.155   1_554 S
C265   C266    1.405   .     D
C265   C270    1.407   1_655 S
C265   C388    1.549   1_655 S
C266   C267    1.407   1_554 S
C266   H280    1.153   .     S
C267   C266    1.407   1_556 S
C267   C268    1.408   .     D
C267   H281    1.154   .     S
C268   C269    1.406   1_655 S
C268   C271    1.451   .     S
C269   C268    1.406   1_455 S
C269   C270    1.407   1_556 D
C269   H282    1.153   .     S
C270   C265    1.407   1_455 S
C270   C269    1.407   1_554 D
C270   H283    1.154   .     S
C271   N272    1.307   .     D
C271   H284    1.153   .     S
N272   C273    1.459   .     S
C273   C274    1.406   .     S
C273   C278    1.407   .     D
C274   C275    1.407   .     D
C274   H285    1.155   .     S
C275   C276    1.412   .     S
C275   H286    1.153   .     S
C276   C277    1.406   .     D
C277   C278    1.405   .     S
C277   H287    1.155   .     S
C278   O279    1.323   .     S
O279   H288    1.123   .     S
C289   C290    1.405   .     D
C289   C294    1.407   1_545 S
C289   C387    1.549   .     S
C290   C291    1.407   1_556 S
C290   H304    1.153   .     S
C291   C290    1.407   1_554 S
C291   C292    1.408   .     D
C291   H305    1.154   .     S
C292   C293    1.406   1_545 S
C292   C295    1.451   .     S
C293   C292    1.406   1_565 S
C293   C294    1.407   1_554 D
C293   H306    1.153   .     S
C294   C289    1.407   1_565 S
C294   C293    1.407   1_556 D
C294   H307    1.154   .     S
C295   N296    1.307   .     D
C295   H308    1.153   .     S
N296   C297    1.459   .     S
C297   C298    1.406   .     S
C297   C302    1.407   .     D
C298   C299    1.407   .     D
C298   H309    1.155   .     S
C299   C300    1.412   .     S
C299   H310    1.153   .     S
C300   C301    1.406   .     D
C301   C302    1.405   .     S
C301   H311    1.155   .     S
C302   O303    1.323   .     S
O303   H312    1.123   .     S
C313   C314    1.405   .     D
C313   C318    1.407   .     S
C313   C388    1.549   1_655 S
C314   C315    1.407   .     S
C314   H328    1.153   .     S
C315   C316    1.408   .     D
C315   H329    1.154   .     S
C316   C317    1.406   .     S
C316   C319    1.451   .     S
C317   C318    1.407   .     D
C317   H330    1.153   .     S
C318   H331    1.154   .     S
C319   N320    1.307   .     D
C319   H332    1.153   .     S
N320   C321    1.459   1_556 S
C321   N320    1.459   1_554 S
C321   C322    1.406   .     S
C321   C326    1.407   .     D
C322   C323    1.407   .     D
C322   H333    1.155   1_554 S
C323   C324    1.412   .     S
C323   H334    1.153   .     S
C324   C325    1.406   .     D
C325   C326    1.405   .     S
C325   H335    1.155   .     S
C326   O327    1.323   .     S
O327   H336    1.123   .     S
H333   C322    1.155   1_556 S
C337   C338    1.405   .     D
C337   C342    1.407   1_565 S
C337   C387    1.549   1_565 S
C338   C339    1.407   1_556 S
C338   H352    1.153   .     S
C339   C338    1.407   1_554 S
C339   C340    1.408   .     D
C339   H353    1.154   .     S
C340   C341    1.406   1_565 S
C340   C343    1.451   .     S
C341   C340    1.406   1_545 S
C341   C342    1.407   1_554 D
C341   H354    1.153   .     S
C342   C337    1.407   1_545 S
C342   C341    1.407   1_556 D
C342   H355    1.154   .     S
C343   N344    1.307   .     D
C343   H356    1.153   .     S
N344   C345    1.459   .     S
C345   C346    1.406   .     S
C345   C350    1.407   .     D
C346   C347    1.407   .     D
C346   H357    1.155   .     S
C347   C348    1.412   .     S
C347   H358    1.153   .     S
C348   C349    1.406   .     D
C349   C350    1.405   .     S
C349   H359    1.155   .     S
C350   O351    1.323   .     S
O351   H360    1.123   .     S
C361   C362    1.405   .     D
C361   C366    1.407   .     S
C361   C388    1.549   .     S
C362   C363    1.407   .     S
C362   H376    1.153   .     S
C363   C364    1.408   .     D
C363   H377    1.154   .     S
C364   C365    1.406   .     S
C364   C367    1.451   .     S
C365   C366    1.407   .     D
C365   H378    1.153   .     S
C366   H379    1.154   .     S
C367   N368    1.307   .     D
C367   H380    1.153   .     S
N368   C369    1.459   1_556 S
C369   N368    1.459   1_554 S
C369   C370    1.406   .     S
C369   C374    1.407   .     D
C370   C371    1.407   .     D
C370   H381    1.155   1_554 S
C371   C372    1.412   .     S
C371   H382    1.153   .     S
C372   C373    1.406   .     D
C373   C374    1.405   .     S
C373   H383    1.155   .     S
C374   O375    1.323   .     S
O375   H384    1.123   .     S
H381   C370    1.155   1_556 S
C385   C1      1.549   1_455 S
C385   C49     1.549   1_545 S
C385   C97     1.549   1_554 S
C385   C145    1.549   1_444 S
C387   C337    1.549   1_545 S
C387   C241    1.549   1_545 S
C388   C313    1.549   1_455 S
C388   C265    1.549   1_455 S
