data_181
_audit_creation_date              2023-09-08
_audit_creation_method            'Materials Studio'
_symmetry_space_group_name_H-M    'P1'
_symmetry_Int_Tables_number       1
_symmetry_cell_setting            triclinic
loop_
_symmetry_equiv_pos_as_xyz
  x,y,z
_cell_length_a                    29.6012
_cell_length_b                    29.6012
_cell_length_c                    8.0200
_cell_angle_alpha                 90.0000
_cell_angle_beta                  90.0000
_cell_angle_gamma                 120.0000
loop_
_atom_site_label
_atom_site_type_symbol
_atom_site_fract_x
_atom_site_fract_y
_atom_site_fract_z
_atom_site_U_iso_or_equiv
_atom_site_adp_type
_atom_site_occupancy
H1     H     0.01349   0.17973   0.52102   0.00000  Uiso   1.00
H2     H     0.23945   0.17714   0.52117   0.00000  Uiso   1.00
H3     H     0.15293   0.00712   0.51019   0.00000  Uiso   1.00
H4     H    -0.07330   0.00962   0.51741   0.00000  Uiso   1.00
H5     H    -0.12015  -0.13958   0.52364   0.00000  Uiso   1.00
H6     H     0.04788  -0.14178   0.53276   0.00000  Uiso   1.00
H7     H     0.11599   0.32672   0.54172   0.00000  Uiso   1.00
H8     H     0.28543   0.32739   0.54554   0.00000  Uiso   1.00
H9     H    -0.18461  -0.20354   0.55266   0.00000  Uiso   1.00
H10    H    -0.18489  -0.37227   0.50220   0.00000  Uiso   1.00
H11    H     0.04625  -0.20626   0.58026   0.00000  Uiso   1.00
H12    H    -0.12349  -0.37332   0.52201   0.00000  Uiso   1.00
H13    H     0.11580   0.38986   0.53451   0.00000  Uiso   1.00
H14    H     0.28294   0.55798   0.61615   0.00000  Uiso   1.00
H15    H     0.34888   0.39170   0.53087   0.00000  Uiso   1.00
H16    H     0.34751   0.55898   0.60115   0.00000  Uiso   1.00
H17    H     0.49811   0.43825   0.50843   0.00000  Uiso   1.00
H18    H     0.66807   0.52503   0.48626   0.00000  Uiso   1.00
H19    H    -0.33370  -0.25028   0.55367   0.00000  Uiso   1.00
H20    H    -0.50338  -0.33553   0.56221   0.00000  Uiso   1.00
H21    H     0.01085   0.43530   0.51334   0.00000  Uiso   1.00
H22    H    -0.07309   0.52127   0.51092   0.00000  Uiso   1.00
H23    H     0.14611  -0.25412   0.57287   0.00000  Uiso   1.00
H24    H     0.23100  -0.33923   0.58474   0.00000  Uiso   1.00
H25    H     0.22873   0.01451   0.61453   0.00000  Uiso   1.00
H26    H     0.22774   0.01609   0.39266   0.00000  Uiso   1.00
H27    H     0.28740   0.03990   0.50052   0.00000  Uiso   1.00
H28    H     0.29624   0.16398   0.35330   0.00000  Uiso   1.00
H29    H     0.32392   0.12320   0.34200   0.00000  Uiso   1.00
H30    H     0.26417   0.10490   0.23865   0.00000  Uiso   1.00
H31    H     0.32567   0.12169   0.66992   0.00000  Uiso   1.00
H32    H     0.29750   0.16212   0.67431   0.00000  Uiso   1.00
H33    H     0.26707   0.10179   0.78214   0.00000  Uiso   1.00
H34    H    -0.14003   0.02072   0.40792   0.00000  Uiso   1.00
H35    H    -0.13829   0.01994   0.62987   0.00000  Uiso   1.00
H36    H    -0.17264   0.04619   0.52590   0.00000  Uiso   1.00
H37    H    -0.05654   0.16803   0.67933   0.00000  Uiso   1.00
H38    H    -0.12510   0.12770   0.69060   0.00000  Uiso   1.00
H39    H    -0.08389   0.10864   0.79183   0.00000  Uiso   1.00
H40    H    -0.12597   0.12831   0.35678   0.00000  Uiso   1.00
H41    H    -0.05722   0.16764   0.35950   0.00000  Uiso   1.00
H42    H    -0.08696   0.10783   0.24847   0.00000  Uiso   1.00
H43    H    -0.08848   0.45789   0.22323   0.00000  Uiso   1.00
H44    H    -0.05449   0.42239   0.21880   0.00000  Uiso   1.00
H45    H    -0.12401   0.38840   0.21930   0.00000  Uiso   1.00
H46    H    -0.08167   0.36976   0.64303   0.00000  Uiso   1.00
H47    H    -0.12791   0.33636   0.48413   0.00000  Uiso   1.00
H48    H    -0.06081   0.36497   0.44066   0.00000  Uiso   1.00
H49    H    -0.17352   0.38178   0.48868   0.00000  Uiso   1.00
H50    H    -0.13944   0.42589   0.65152   0.00000  Uiso   1.00
H51    H    -0.14516   0.44945   0.45476   0.00000  Uiso   1.00
H52    H     0.51258   0.37227   0.60845   0.00000  Uiso   1.00
H53    H     0.50521   0.37246   0.38815   0.00000  Uiso   1.00
H54    H     0.53459   0.33905   0.47818   0.00000  Uiso   1.00
H55    H     0.64861   0.45738   0.28622   0.00000  Uiso   1.00
H56    H     0.61146   0.38835   0.28408   0.00000  Uiso   1.00
H57    H     0.58476   0.42564   0.20249   0.00000  Uiso   1.00
H58    H     0.61863   0.38368   0.61988   0.00000  Uiso   1.00
H59    H     0.66288   0.45095   0.59209   0.00000  Uiso   1.00
H60    H     0.61120   0.43074   0.73703   0.00000  Uiso   1.00
H61    H     0.28466  -0.27125   0.40158   0.00000  Uiso   1.00
H62    H     0.25248  -0.24302   0.29406   0.00000  Uiso   1.00
H63    H     0.31411  -0.20257   0.38853   0.00000  Uiso   1.00
H64    H     0.22295  -0.18601   0.67494   0.00000  Uiso   1.00
H65    H     0.28024  -0.15353   0.55345   0.00000  Uiso   1.00
H66    H     0.21930  -0.18965   0.45323   0.00000  Uiso   1.00
H67    H     0.32017  -0.19617   0.71699   0.00000  Uiso   1.00
H68    H     0.26284  -0.23408   0.83639   0.00000  Uiso   1.00
H69    H     0.29193  -0.26479   0.72521   0.00000  Uiso   1.00
H70    H    -0.40576  -0.22005   0.82212   0.00000  Uiso   1.00
H71    H    -0.34634  -0.19158   0.70879   0.00000  Uiso   1.00
H72    H    -0.38539  -0.16187   0.70646   0.00000  Uiso   1.00
H73    H    -0.40853  -0.22779   0.27919   0.00000  Uiso   1.00
H74    H    -0.38814  -0.16668   0.37645   0.00000  Uiso   1.00
H75    H    -0.34800  -0.19510   0.38609   0.00000  Uiso   1.00
H76    H    -0.46856  -0.19953   0.54445   0.00000  Uiso   1.00
H77    H    -0.49521  -0.26047   0.44331   0.00000  Uiso   1.00
H78    H    -0.49403  -0.25691   0.66477   0.00000  Uiso   1.00
H79    H    -0.10176   0.04468  -0.01282   0.00000  Uiso   1.00
H80    H     0.12456   0.04238  -0.02108   0.00000  Uiso   1.00
H81    H     0.03792  -0.12774  -0.01876   0.00000  Uiso   1.00
H82    H    -0.18815  -0.12536  -0.02039   0.00000  Uiso   1.00
H83    H    -0.23392  -0.27538  -0.03384   0.00000  Uiso   1.00
H84    H    -0.06449  -0.27475  -0.02735   0.00000  Uiso   1.00
H85    H     0.00344   0.19377  -0.02882   0.00000  Uiso   1.00
H86    H     0.17120   0.19100  -0.02136   0.00000  Uiso   1.00
H87    H    -0.29697  -0.33917  -0.01037   0.00000  Uiso   1.00
H88    H    -0.29649  -0.50684  -0.08254   0.00000  Uiso   1.00
H89    H    -0.06420  -0.33778  -0.02358   0.00000  Uiso   1.00
H90    H    -0.23154  -0.50594  -0.10175   0.00000  Uiso   1.00
H91    H     0.00559   0.25854  -0.07867   0.00000  Uiso   1.00
H92    H     0.17529   0.42509  -0.01036   0.00000  Uiso   1.00
H93    H     0.23541   0.25446  -0.04728   0.00000  Uiso   1.00
H94    H     0.23673   0.42337   0.01771   0.00000  Uiso   1.00
H95    H     0.38694   0.30169  -0.05164   0.00000  Uiso   1.00
H96    H     0.55662   0.38945  -0.06920   0.00000  Uiso   1.00
H97    H    -0.44966  -0.38598   0.00791   0.00000  Uiso   1.00
H98    H    -0.61950  -0.47714   0.02483   0.00000  Uiso   1.00
H99    H    -0.09439   0.30650  -0.07516   0.00000  Uiso   1.00
H100   H    -0.17878   0.39213  -0.08506   0.00000  Uiso   1.00
H101   H     0.04139  -0.38277  -0.01513   0.00000  Uiso   1.00
H102   H     0.12518  -0.46887  -0.01195   0.00000  Uiso   1.00
H103   H     0.13819  -0.05560   0.25110   0.00000  Uiso   1.00
H104   H     0.10876  -0.11547   0.14043   0.00000  Uiso   1.00
H105   H     0.17748  -0.07591   0.14364   0.00000  Uiso   1.00
H106   H     0.13545  -0.05674  -0.29226   0.00000  Uiso   1.00
H107   H     0.17656  -0.07578  -0.19027   0.00000  Uiso   1.00
H108   H     0.10799  -0.11607  -0.17932   0.00000  Uiso   1.00
H109   H     0.22404   0.00597  -0.02599   0.00000  Uiso   1.00
H110   H     0.18969   0.03204  -0.13098   0.00000  Uiso   1.00
H111   H     0.19127   0.03147   0.09101   0.00000  Uiso   1.00
H112   H    -0.21608  -0.05006  -0.28298   0.00000  Uiso   1.00
H113   H    -0.24634  -0.11038  -0.17509   0.00000  Uiso   1.00
H114   H    -0.27461  -0.07004  -0.17022   0.00000  Uiso   1.00
H115   H    -0.21273  -0.05310   0.26047   0.00000  Uiso   1.00
H116   H    -0.27256  -0.07133   0.15780   0.00000  Uiso   1.00
H117   H    -0.24500  -0.11220   0.14597   0.00000  Uiso   1.00
H118   H    -0.23620   0.01186  -0.00088   0.00000  Uiso   1.00
H119   H    -0.17640   0.03572   0.10622   0.00000  Uiso   1.00
H120   H    -0.17767   0.03721  -0.11563   0.00000  Uiso   1.00
H121   H    -0.20004   0.27223  -0.33280   0.00000  Uiso   1.00
H122   H    -0.16722   0.24597  -0.21833   0.00000  Uiso   1.00
H123   H    -0.23594   0.21596  -0.20702   0.00000  Uiso   1.00
H124   H    -0.18809   0.28851   0.20811   0.00000  Uiso   1.00
H125   H    -0.23013   0.22600   0.12135   0.00000  Uiso   1.00
H126   H    -0.16172   0.25413   0.10343   0.00000  Uiso   1.00
H127   H    -0.27964   0.25693  -0.05186   0.00000  Uiso   1.00
H128   H    -0.24393   0.31879   0.04338   0.00000  Uiso   1.00
H129   H    -0.24778   0.31325  -0.17806   0.00000  Uiso   1.00
H130   H     0.47154   0.28004   0.20517   0.00000  Uiso   1.00
H131   H     0.40810   0.24748   0.11679   0.00000  Uiso   1.00
H132   H     0.44859   0.21951   0.10094   0.00000  Uiso   1.00
H133   H     0.45216   0.27404  -0.33483   0.00000  Uiso   1.00
H134   H     0.43777   0.21611  -0.22639   0.00000  Uiso   1.00
H135   H     0.39666   0.24307  -0.20339   0.00000  Uiso   1.00
H136   H     0.52529   0.25589  -0.09497   0.00000  Uiso   1.00
H137   H     0.54559   0.31453  -0.20554   0.00000  Uiso   1.00
H138   H     0.55280   0.31546   0.01517   0.00000  Uiso   1.00
H139   H     0.13350  -0.31756  -0.14461   0.00000  Uiso   1.00
H140   H     0.11343  -0.31212   0.05829   0.00000  Uiso   1.00
H141   H     0.18038  -0.28394   0.01240   0.00000  Uiso   1.00
H142   H     0.14031  -0.40561   0.27537   0.00000  Uiso   1.00
H143   H     0.17509  -0.33612   0.28049   0.00000  Uiso   1.00
H144   H     0.10559  -0.37084   0.27869   0.00000  Uiso   1.00
H145   H     0.22578  -0.32972   0.01729   0.00000  Uiso   1.00
H146   H     0.19665  -0.39785   0.04145   0.00000  Uiso   1.00
H147   H     0.19295  -0.37129  -0.15210   0.00000  Uiso   1.00
H148   H    -0.54292  -0.38529   0.31566   0.00000  Uiso   1.00
H149   H    -0.47805  -0.34523   0.23945   0.00000  Uiso   1.00
H150   H    -0.52108  -0.31995   0.25292   0.00000  Uiso   1.00
H151   H    -0.52025  -0.34192  -0.20366   0.00000  Uiso   1.00
H152   H    -0.50199  -0.29411  -0.04580   0.00000  Uiso   1.00
H153   H    -0.46344  -0.32338  -0.08154   0.00000  Uiso   1.00
H154   H    -0.59484  -0.34752   0.04144   0.00000  Uiso   1.00
H155   H    -0.61173  -0.40100  -0.09291   0.00000  Uiso   1.00
H156   H    -0.62057  -0.41049   0.12678   0.00000  Uiso   1.00
C157   C     0.20350   0.09206   0.51479   0.00000  Uiso   1.00
C158   C     0.20285   0.13931   0.51946   0.00000  Uiso   1.00
C159   C     0.15600   0.14059   0.52095   0.00000  Uiso   1.00
C160   C     0.10742   0.09307   0.51890   0.00000  Uiso   1.00
C161   C     0.10754   0.04514   0.51670   0.00000  Uiso   1.00
C162   C     0.15523   0.04538   0.51373   0.00000  Uiso   1.00
C163   C     0.15679   0.19045   0.52461   0.00000  Uiso   1.00
C164   C     0.05869   0.09348   0.51880   0.00000  Uiso   1.00
C165   C     0.05863   0.14142   0.51980   0.00000  Uiso   1.00
C166   C     0.01118   0.14140   0.51955   0.00000  Uiso   1.00
C167   C    -0.03723   0.09479   0.51862   0.00000  Uiso   1.00
C168   C    -0.03687   0.04749   0.51763   0.00000  Uiso   1.00
C169   C     0.01006   0.04619   0.51775   0.00000  Uiso   1.00
C170   C     0.05790  -0.00416   0.51851   0.00000  Uiso   1.00
C171   C     0.00930  -0.00360   0.51882   0.00000  Uiso   1.00
C172   C    -0.03629  -0.09348   0.52498   0.00000  Uiso   1.00
C173   C     0.01189  -0.09406   0.52622   0.00000  Uiso   1.00
C174   C    -0.08408  -0.14160   0.52761   0.00000  Uiso   1.00
C175   C     0.01023  -0.14279   0.53283   0.00000  Uiso   1.00
C176   C    -0.03696  -0.19006   0.53844   0.00000  Uiso   1.00
C177   C     0.10808   0.19068   0.52324   0.00000  Uiso   1.00
C178   C     0.15327   0.28039   0.53251   0.00000  Uiso   1.00
C179   C     0.20171   0.28036   0.53400   0.00000  Uiso   1.00
C180   C     0.15402   0.32860   0.54023   0.00000  Uiso   1.00
C181   C     0.24904   0.32883   0.54232   0.00000  Uiso   1.00
C182   C     0.24962   0.37634   0.54949   0.00000  Uiso   1.00
C183   C    -0.08547  -0.18948   0.53405   0.00000  Uiso   1.00
C184   C    -0.13548  -0.23893   0.53309   0.00000  Uiso   1.00
C185   C    -0.18309  -0.23974   0.54020   0.00000  Uiso   1.00
C186   C    -0.13572  -0.28772   0.52327   0.00000  Uiso   1.00
C187   C    -0.03768  -0.24012   0.54589   0.00000  Uiso   1.00
C188   C    -0.23147  -0.28725   0.53473   0.00000  Uiso   1.00
C189   C    -0.18316  -0.33443   0.51217   0.00000  Uiso   1.00
C190   C    -0.08656  -0.28844   0.53175   0.00000  Uiso   1.00
C191   C     0.00826  -0.24205   0.56522   0.00000  Uiso   1.00
C192   C    -0.23146  -0.33547   0.51781   0.00000  Uiso   1.00
C193   C    -0.08696  -0.33585   0.53223   0.00000  Uiso   1.00
C194   C     0.00811  -0.29010   0.56454   0.00000  Uiso   1.00
C195   C    -0.04039  -0.33804   0.54645   0.00000  Uiso   1.00
C196   C     0.20073   0.37617   0.54901   0.00000  Uiso   1.00
C197   C     0.20025   0.42550   0.56050   0.00000  Uiso   1.00
C198   C     0.15327   0.42601   0.55217   0.00000  Uiso   1.00
C199   C     0.24870   0.47402   0.58123   0.00000  Uiso   1.00
C200   C     0.29915   0.42618   0.55828   0.00000  Uiso   1.00
C201   C     0.15157   0.47296   0.56441   0.00000  Uiso   1.00
C202   C     0.24710   0.52023   0.59813   0.00000  Uiso   1.00
C203   C     0.29872   0.47450   0.57780   0.00000  Uiso   1.00
C204   C     0.34700   0.42760   0.54701   0.00000  Uiso   1.00
C205   C     0.19956   0.52097   0.58891   0.00000  Uiso   1.00
C206   C     0.34625   0.52143   0.58648   0.00000  Uiso   1.00
C207   C     0.39528   0.47517   0.55360   0.00000  Uiso   1.00
C208   C     0.39494   0.52315   0.57348   0.00000  Uiso   1.00
C209   C     0.48523   0.52064   0.54440   0.00000  Uiso   1.00
C210   C    -0.32130  -0.33280   0.54036   0.00000  Uiso   1.00
C211   C     0.05145  -0.33649   0.57190   0.00000  Uiso   1.00
C212   C     0.10605   0.51743   0.56250   0.00000  Uiso   1.00
C213   C     0.48494   0.56917   0.56177   0.00000  Uiso   1.00
C214   C     0.15461   0.56591   0.58480   0.00000  Uiso   1.00
C215   C    -0.32113  -0.38128   0.52337   0.00000  Uiso   1.00
C216   C     0.00259  -0.38483   0.55516   0.00000  Uiso   1.00
C217   C     0.53488   0.52138   0.52925   0.00000  Uiso   1.00
C218   C     0.58229   0.56989   0.53346   0.00000  Uiso   1.00
C219   C     0.53602   0.47464   0.51025   0.00000  Uiso   1.00
C220   C     0.63013   0.56999   0.51737   0.00000  Uiso   1.00
C221   C     0.58321   0.47436   0.49490   0.00000  Uiso   1.00
C222   C     0.62989   0.52272   0.49817   0.00000  Uiso   1.00
C223   C    -0.37101  -0.33368   0.55052   0.00000  Uiso   1.00
C224   C    -0.37175  -0.28663   0.55554   0.00000  Uiso   1.00
C225   C    -0.41852  -0.38222   0.55101   0.00000  Uiso   1.00
C226   C    -0.41878  -0.28566   0.55789   0.00000  Uiso   1.00
C227   C    -0.46623  -0.38191   0.56171   0.00000  Uiso   1.00
C228   C    -0.46544  -0.33387   0.56203   0.00000  Uiso   1.00
C229   C     0.05696   0.51806   0.54971   0.00000  Uiso   1.00
C230   C     0.00935   0.47160   0.52374   0.00000  Uiso   1.00
C231   C     0.05756   0.56628   0.56221   0.00000  Uiso   1.00
C232   C    -0.03833   0.47115   0.51076   0.00000  Uiso   1.00
C233   C     0.00974   0.56642   0.54761   0.00000  Uiso   1.00
C234   C    -0.03712   0.51918   0.52261   0.00000  Uiso   1.00
C235   C     0.10024  -0.33739   0.57935   0.00000  Uiso   1.00
C236   C     0.14819  -0.29018   0.57739   0.00000  Uiso   1.00
C237   C     0.09906  -0.38595   0.58124   0.00000  Uiso   1.00
C238   C     0.19612  -0.28922   0.57858   0.00000  Uiso   1.00
C239   C     0.14731  -0.38541   0.58822   0.00000  Uiso   1.00
C240   C     0.19467  -0.33748   0.58618   0.00000  Uiso   1.00
C241   C     0.25629   0.09316   0.51014   0.00000  Uiso   1.00
C242   C     0.24926   0.03790   0.50423   0.00000  Uiso   1.00
C243   C     0.28673   0.12299   0.35255   0.00000  Uiso   1.00
C244   C     0.28826   0.12125   0.66757   0.00000  Uiso   1.00
C245   C    -0.08791   0.09764   0.52022   0.00000  Uiso   1.00
C246   C    -0.13709   0.04311   0.52098   0.00000  Uiso   1.00
C247   C    -0.08832   0.12715   0.67895   0.00000  Uiso   1.00
C248   C    -0.08947   0.12701   0.36277   0.00000  Uiso   1.00
C249   C    -0.08881   0.42123   0.45852   0.00000  Uiso   1.00
C250   C    -0.08893   0.42262   0.26855   0.00000  Uiso   1.00
C251   C    -0.08959   0.37071   0.51015   0.00000  Uiso   1.00
C252   C    -0.13910   0.41982   0.51726   0.00000  Uiso   1.00
C253   C     0.58588   0.42383   0.47542   0.00000  Uiso   1.00
C254   C     0.53159   0.37457   0.48844   0.00000  Uiso   1.00
C255   C     0.60905   0.42394   0.30282   0.00000  Uiso   1.00
C256   C     0.62151   0.42219   0.61352   0.00000  Uiso   1.00
C257   C     0.24887  -0.23789   0.56656   0.00000  Uiso   1.00
C258   C     0.27652  -0.23884   0.40401   0.00000  Uiso   1.00
C259   C     0.24208  -0.18950   0.56192   0.00000  Uiso   1.00
C260   C     0.28274  -0.23311   0.71950   0.00000  Uiso   1.00
C261   C    -0.41703  -0.23258   0.55174   0.00000  Uiso   1.00
C262   C    -0.38692  -0.19981   0.70554   0.00000  Uiso   1.00
C263   C    -0.38880  -0.20402   0.38970   0.00000  Uiso   1.00
C264   C    -0.47170  -0.23814   0.55123   0.00000  Uiso   1.00
C265   C     0.08861  -0.04279  -0.01954   0.00000  Uiso   1.00
C266   C     0.08817   0.00447  -0.02007   0.00000  Uiso   1.00
C267   C     0.04119   0.00568  -0.01996   0.00000  Uiso   1.00
C268   C    -0.00741  -0.04159  -0.01956   0.00000  Uiso   1.00
C269   C    -0.00725  -0.08946  -0.01876   0.00000  Uiso   1.00
C270   C     0.04022  -0.08942  -0.01873   0.00000  Uiso   1.00
C271   C     0.04185   0.05539  -0.02090   0.00000  Uiso   1.00
C272   C    -0.05614  -0.04118  -0.01970   0.00000  Uiso   1.00
C273   C    -0.05634   0.00669  -0.01853   0.00000  Uiso   1.00
C274   C    -0.10405   0.00643  -0.01572   0.00000  Uiso   1.00
C275   C    -0.15229  -0.04027  -0.01598   0.00000  Uiso   1.00
C276   C    -0.15158  -0.08750  -0.01950   0.00000  Uiso   1.00
C277   C    -0.10470  -0.08870  -0.02052   0.00000  Uiso   1.00
C278   C    -0.05666  -0.13872  -0.01931   0.00000  Uiso   1.00
C279   C    -0.10538  -0.13850  -0.02136   0.00000  Uiso   1.00
C280   C    -0.15021  -0.22837  -0.02451   0.00000  Uiso   1.00
C281   C    -0.10179  -0.22842  -0.02201   0.00000  Uiso   1.00
C282   C    -0.19755  -0.27683  -0.02988   0.00000  Uiso   1.00
C283   C    -0.10252  -0.27664  -0.02647   0.00000  Uiso   1.00
C284   C    -0.14925  -0.32422  -0.03366   0.00000  Uiso   1.00
C285   C    -0.00674   0.05598  -0.02014   0.00000  Uiso   1.00
C286   C     0.03927   0.14587  -0.02508   0.00000  Uiso   1.00
C287   C     0.08739   0.14520  -0.02449   0.00000  Uiso   1.00
C288   C     0.04103   0.19467  -0.02933   0.00000  Uiso   1.00
C289   C     0.13523   0.19319  -0.02504   0.00000  Uiso   1.00
C290   C     0.13671   0.24111  -0.02877   0.00000  Uiso   1.00
C291   C    -0.19811  -0.32434  -0.03391   0.00000  Uiso   1.00
C292   C    -0.24772  -0.37410  -0.04033   0.00000  Uiso   1.00
C293   C    -0.29543  -0.37522  -0.02755   0.00000  Uiso   1.00
C294   C    -0.24727  -0.42240  -0.05984   0.00000  Uiso   1.00
C295   C    -0.14876  -0.37354  -0.04553   0.00000  Uiso   1.00
C296   C    -0.34390  -0.42257  -0.03485   0.00000  Uiso   1.00
C297   C    -0.29494  -0.46915  -0.06808   0.00000  Uiso   1.00
C298   C    -0.19728  -0.42205  -0.06525   0.00000  Uiso   1.00
C299   C    -0.10169  -0.37396  -0.04044   0.00000  Uiso   1.00
C300   C    -0.34344  -0.47044  -0.05585   0.00000  Uiso   1.00
C301   C    -0.19563  -0.46819  -0.08443   0.00000  Uiso   1.00
C302   C    -0.09988  -0.42078  -0.05589   0.00000  Uiso   1.00
C303   C    -0.14794  -0.46881  -0.07950   0.00000  Uiso   1.00
C304   C     0.08830   0.24189  -0.03303   0.00000  Uiso   1.00
C305   C     0.08925   0.29206  -0.03913   0.00000  Uiso   1.00
C306   C     0.04352   0.29423  -0.06119   0.00000  Uiso   1.00
C307   C     0.13814   0.34023  -0.02175   0.00000  Uiso   1.00
C308   C     0.18680   0.29035  -0.02467   0.00000  Uiso   1.00
C309   C     0.04383   0.34236  -0.06099   0.00000  Uiso   1.00
C310   C     0.13869   0.38774  -0.02251   0.00000  Uiso   1.00
C311   C     0.18712   0.33913  -0.01121   0.00000  Uiso   1.00
C312   C     0.23424   0.29076  -0.03189   0.00000  Uiso   1.00
C313   C     0.09231   0.39018  -0.04037   0.00000  Uiso   1.00
C314   C     0.23468   0.38546   0.00416   0.00000  Uiso   1.00
C315   C     0.28284   0.33797  -0.02353   0.00000  Uiso   1.00
C316   C     0.28278   0.38606  -0.00263   0.00000  Uiso   1.00
C317   C     0.37273   0.38331  -0.02874   0.00000  Uiso   1.00
C318   C    -0.43402  -0.46791  -0.02827   0.00000  Uiso   1.00
C319   C    -0.05404  -0.46497  -0.06119   0.00000  Uiso   1.00
C320   C     0.00066   0.38890  -0.07235   0.00000  Uiso   1.00
C321   C     0.37235   0.43156  -0.00944   0.00000  Uiso   1.00
C322   C     0.04951   0.43719  -0.05416   0.00000  Uiso   1.00
C323   C    -0.43347  -0.51631  -0.04734   0.00000  Uiso   1.00
C324   C    -0.10262  -0.51346  -0.08305   0.00000  Uiso   1.00
C325   C     0.42287   0.38499  -0.04068   0.00000  Uiso   1.00
C326   C     0.47011   0.43391  -0.03842   0.00000  Uiso   1.00
C327   C     0.42457   0.33850  -0.05208   0.00000  Uiso   1.00
C328   C     0.51816   0.43443  -0.05109   0.00000  Uiso   1.00
C329   C     0.47204   0.33848  -0.06149   0.00000  Uiso   1.00
C330   C     0.51837   0.38702  -0.06161   0.00000  Uiso   1.00
C331   C    -0.48411  -0.46921  -0.01479   0.00000  Uiso   1.00
C332   C    -0.48683  -0.42323   0.00369   0.00000  Uiso   1.00
C333   C    -0.53103  -0.51839  -0.01950   0.00000  Uiso   1.00
C334   C    -0.53491  -0.42426   0.01699   0.00000  Uiso   1.00
C335   C    -0.57930  -0.51956  -0.00432   0.00000  Uiso   1.00
C336   C    -0.58062  -0.47310   0.01351   0.00000  Uiso   1.00
C337   C    -0.04811   0.38988  -0.08129   0.00000  Uiso   1.00
C338   C    -0.09607   0.34283  -0.07953   0.00000  Uiso   1.00
C339   C    -0.04696   0.43847  -0.08268   0.00000  Uiso   1.00
C340   C    -0.14412   0.34188  -0.07966   0.00000  Uiso   1.00
C341   C    -0.09520   0.43793  -0.08908   0.00000  Uiso   1.00
C342   C    -0.14269   0.39001  -0.08693   0.00000  Uiso   1.00
C343   C    -0.00485  -0.46557  -0.05084   0.00000  Uiso   1.00
C344   C     0.04282  -0.41911  -0.02557   0.00000  Uiso   1.00
C345   C    -0.00544  -0.51380  -0.06343   0.00000  Uiso   1.00
C346   C     0.09050  -0.41869  -0.01289   0.00000  Uiso   1.00
C347   C     0.04235  -0.51402  -0.04840   0.00000  Uiso   1.00
C348   C     0.08923  -0.46676  -0.02393   0.00000  Uiso   1.00
C349   C     0.13932  -0.04557  -0.02075   0.00000  Uiso   1.00
C350   C     0.14089  -0.07479   0.13710   0.00000  Uiso   1.00
C351   C     0.13979  -0.07519  -0.17909   0.00000  Uiso   1.00
C352   C     0.18845   0.00899  -0.02171   0.00000  Uiso   1.00
C353   C    -0.20509  -0.04139  -0.01105   0.00000  Uiso   1.00
C354   C    -0.23716  -0.06953  -0.16827   0.00000  Uiso   1.00
C355   C    -0.23541  -0.07118   0.14677   0.00000  Uiso   1.00
C356   C    -0.19806   0.01387  -0.00511   0.00000  Uiso   1.00
C357   C    -0.19523   0.28907  -0.06460   0.00000  Uiso   1.00
C358   C    -0.19972   0.25396  -0.21370   0.00000  Uiso   1.00
C359   C    -0.19363   0.26303   0.10093   0.00000  Uiso   1.00
C360   C    -0.24395   0.29525  -0.06285   0.00000  Uiso   1.00
C361   C     0.47166   0.28611  -0.06794   0.00000  Uiso   1.00
C362   C     0.44865   0.25672   0.09772   0.00000  Uiso   1.00
C363   C     0.43767   0.25315  -0.21601   0.00000  Uiso   1.00
C364   C     0.52686   0.29381  -0.08944   0.00000  Uiso   1.00
C365   C     0.14092  -0.36880   0.04007   0.00000  Uiso   1.00
C366   C     0.14186  -0.31822  -0.01197   0.00000  Uiso   1.00
C367   C     0.14044  -0.37049   0.23006   0.00000  Uiso   1.00
C368   C     0.19144  -0.36717  -0.01714   0.00000  Uiso   1.00
C369   C    -0.53816  -0.37435   0.04614   0.00000  Uiso   1.00
C370   C    -0.51892  -0.35517   0.22376   0.00000  Uiso   1.00
C371   C    -0.50385  -0.33118  -0.07775   0.00000  Uiso   1.00
C372   C    -0.59443  -0.38435   0.02919   0.00000  Uiso   1.00
N373   N    -0.03664  -0.04771   0.52112   0.00000  Uiso   1.00
N374   N     0.10683   0.23504   0.52667   0.00000  Uiso   1.00
N375   N     0.05860  -0.04885   0.52179   0.00000  Uiso   1.00
N376   N     0.20254   0.23478   0.52963   0.00000  Uiso   1.00
N377   N     0.44096   0.47485   0.54024   0.00000  Uiso   1.00
N378   N     0.44033   0.56979   0.57640   0.00000  Uiso   1.00
N379   N     0.10522   0.47205   0.55233   0.00000  Uiso   1.00
N380   N     0.20011   0.56714   0.59845   0.00000  Uiso   1.00
N381   N    -0.27716  -0.28688   0.54532   0.00000  Uiso   1.00
N382   N    -0.27665  -0.38207   0.51162   0.00000  Uiso   1.00
N383   N    -0.04240  -0.38499   0.54286   0.00000  Uiso   1.00
N384   N     0.05379  -0.29034   0.57750   0.00000  Uiso   1.00
N385   N    -0.15112  -0.18284  -0.02370   0.00000  Uiso   1.00
N386   N    -0.00745   0.10068  -0.02201   0.00000  Uiso   1.00
N387   N    -0.05535  -0.18305  -0.01902   0.00000  Uiso   1.00
N388   N     0.08778   0.09946  -0.02245   0.00000  Uiso   1.00
N389   N     0.32849   0.33745  -0.03523   0.00000  Uiso   1.00
N390   N     0.32799   0.43247   0.00479   0.00000  Uiso   1.00
N391   N    -0.00172   0.34273  -0.07691   0.00000  Uiso   1.00
N392   N     0.09436   0.43719  -0.03836   0.00000  Uiso   1.00
N393   N    -0.38965  -0.42221  -0.02218   0.00000  Uiso   1.00
N394   N    -0.38886  -0.51691  -0.06159   0.00000  Uiso   1.00
N395   N    -0.14829  -0.51481  -0.09260   0.00000  Uiso   1.00
N396   N    -0.05338  -0.41973  -0.04781   0.00000  Uiso   1.00
loop_
_geom_bond_atom_site_label_1
_geom_bond_atom_site_label_2
_geom_bond_distance
_geom_bond_site_symmetry_2
_ccdc_geom_bond_type
H1     C166    1.102   .     S
H2     C158    1.102   .     S
H3     C162    1.100   .     S
H4     C168    1.100   .     S
H5     C174    1.099   .     S
H6     C175    1.100   .     S
H7     C180    1.099   .     S
H8     C181    1.099   .     S
H9     C185    1.099   .     S
H10    C189    1.098   .     S
H11    C191    1.100   .     S
H12    C193    1.099   .     S
H13    C198    1.099   .     S
H14    C202    1.100   .     S
H15    C204    1.099   .     S
H16    C206    1.100   .     S
H17    C219    1.100   .     S
H18    C222    1.102   .     S
H19    C224    1.102   .     S
H20    C228    1.099   .     S
H21    C230    1.101   .     S
H22    C234    1.101   .     S
H23    C236    1.100   .     S
H24    C240    1.102   .     S
H25    C242    1.100   .     S
H26    C242    1.101   .     S
H27    C242    1.101   .     S
H28    C243    1.100   .     S
H29    C243    1.101   .     S
H30    C243    1.100   .     S
H31    C244    1.101   .     S
H32    C244    1.100   .     S
H33    C244    1.099   .     S
H34    C246    1.101   .     S
H35    C246    1.100   .     S
H36    C246    1.101   .     S
H37    C247    1.100   .     S
H38    C247    1.101   .     S
H39    C247    1.099   .     S
H40    C248    1.101   .     S
H41    C248    1.100   .     S
H42    C248    1.100   .     S
H43    C250    1.099   .     S
H44    C250    1.098   .     S
H45    C250    1.099   .     S
H46    C251    1.095   .     S
H47    C251    1.100   .     S
H48    C251    1.100   .     S
H49    C252    1.101   .     S
H50    C252    1.093   .     S
H51    C252    1.100   .     S
H52    C254    1.100   .     S
H53    C254    1.101   .     S
H54    C254    1.102   .     S
H55    C255    1.100   .     S
H56    C255    1.101   .     S
H57    C255    1.097   .     S
H58    C256    1.101   .     S
H59    C256    1.101   .     S
H60    C256    1.103   .     S
H61    C258    1.100   .     S
H62    C258    1.101   .     S
H63    C258    1.101   .     S
H64    C259    1.101   .     S
H65    C259    1.101   .     S
H66    C259    1.101   .     S
H67    C260    1.101   .     S
H68    C260    1.100   .     S
H69    C260    1.100   .     S
H70    C262    1.100   .     S
H71    C262    1.100   .     S
H72    C262    1.101   .     S
H73    C263    1.100   .     S
H74    C263    1.101   .     S
H75    C263    1.100   .     S
H76    C264    1.101   .     S
H77    C264    1.100   .     S
H78    C264    1.099   .     S
H79    C274    1.100   .     S
H80    C266    1.100   .     S
H81    C270    1.102   .     S
H82    C276    1.102   .     S
H83    C282    1.099   .     S
H84    C283    1.099   .     S
H85    C288    1.100   .     S
H86    C289    1.099   .     S
H87    C293    1.099   .     S
H88    C297    1.100   .     S
H89    C299    1.099   .     S
H90    C301    1.100   .     S
H91    C306    1.100   .     S
H92    C310    1.099   .     S
H93    C312    1.099   .     S
H94    C314    1.098   .     S
H95    C327    1.102   .     S
H96    C330    1.100   .     S
H97    C332    1.102   .     S
H98    C336    1.100   .     S
H99    C338    1.102   .     S
H100   C342    1.101   .     S
H101   C344    1.101   .     S
H102   C348    1.101   .     S
H103   C350    1.100   .     S
H104   C350    1.100   .     S
H105   C350    1.101   .     S
H106   C351    1.099   .     S
H107   C351    1.101   .     S
H108   C351    1.101   .     S
H109   C352    1.101   .     S
H110   C352    1.100   .     S
H111   C352    1.101   .     S
H112   C354    1.099   .     S
H113   C354    1.100   .     S
H114   C354    1.101   .     S
H115   C355    1.100   .     S
H116   C355    1.101   .     S
H117   C355    1.100   .     S
H118   C356    1.101   .     S
H119   C356    1.101   .     S
H120   C356    1.100   .     S
H121   C358    1.100   .     S
H122   C358    1.100   .     S
H123   C358    1.101   .     S
H124   C359    1.100   .     S
H125   C359    1.101   .     S
H126   C359    1.100   .     S
H127   C360    1.101   .     S
H128   C360    1.100   .     S
H129   C360    1.100   .     S
H130   C362    1.100   .     S
H131   C362    1.100   .     S
H132   C362    1.101   .     S
H133   C363    1.100   .     S
H134   C363    1.101   .     S
H135   C363    1.100   .     S
H136   C364    1.101   .     S
H137   C364    1.100   .     S
H138   C364    1.101   .     S
H139   C366    1.095   .     S
H140   C366    1.100   .     S
H141   C366    1.100   .     S
H142   C367    1.099   .     S
H143   C367    1.099   .     S
H144   C367    1.098   .     S
H145   C368    1.101   .     S
H146   C368    1.100   .     S
H147   C368    1.093   .     S
H148   C370    1.100   .     S
H149   C370    1.100   .     S
H150   C370    1.101   .     S
H151   C371    1.096   .     S
H152   C371    1.101   .     S
H153   C371    1.100   .     S
H154   C372    1.101   .     S
H155   C372    1.101   .     S
H156   C372    1.101   .     S
C157   C158    1.409   .     S
C157   C162    1.406   .     D
C157   C241    1.547   .     S
C158   C159    1.406   .     D
C159   C160    1.423   .     S
C159   C163    1.465   .     S
C160   C161    1.421   .     D
C160   C164    1.449   .     S
C161   C162    1.408   .     S
C161   C170    1.464   .     S
C163   C177    1.445   .     S
C163   N376    1.334   .     D
C164   C165    1.420   .     S
C164   C169    1.420   .     D
C165   C166    1.404   .     D
C165   C177    1.461   .     S
C166   C167    1.407   .     S
C167   C168    1.406   .     D
C167   C245    1.544   .     S
C168   C169    1.409   .     S
C169   C171    1.463   .     S
C170   C171    1.447   .     S
C170   N375    1.334   .     D
C171   N373    1.334   .     D
C172   C173    1.435   .     S
C172   C174    1.420   .     D
C172   N373    1.360   .     S
C173   C175    1.420   .     D
C173   N375    1.361   .     S
C174   C183    1.398   .     S
C175   C176    1.399   .     S
C176   C183    1.445   .     D
C176   C187    1.473   .     S
C177   N374    1.332   .     D
C178   C179    1.434   .     D
C178   C180    1.417   .     S
C178   N374    1.360   .     S
C179   C181    1.420   .     S
C179   N376    1.362   .     S
C180   C196    1.397   .     D
C181   C182    1.399   .     D
C182   C196    1.445   .     S
C182   C200    1.472   .     S
C183   C184    1.472   .     S
C184   C185    1.399   .     D
C184   C186    1.443   .     S
C185   C188    1.420   .     S
C186   C189    1.396   .     D
C186   C190    1.468   .     S
C187   C190    1.443   .     D
C187   C191    1.398   .     S
C188   C192    1.434   .     S
C188   N381    1.361   .     D
C189   C192    1.415   .     S
C190   C193    1.398   .     S
C191   C194    1.420   .     D
C192   N382    1.360   .     D
C193   C195    1.417   .     D
C194   C195    1.435   .     S
C194   N384    1.360   .     S
C195   N383    1.361   .     S
C196   C197    1.470   .     S
C197   C198    1.400   .     S
C197   C199    1.445   .     D
C198   C201    1.419   .     D
C199   C202    1.399   .     S
C199   C203    1.474   .     S
C200   C203    1.445   .     S
C200   C204    1.399   .     D
C201   C205    1.434   .     S
C201   N379    1.362   .     S
C202   C205    1.420   .     D
C203   C206    1.400   .     D
C204   C207    1.420   .     S
C205   N380    1.361   .     S
C206   C208    1.420   .     S
C207   C208    1.434   .     S
C207   N377    1.361   .     D
C208   N378    1.363   .     D
C209   C213    1.448   .     D
C209   C217    1.464   .     S
C209   N377    1.334   .     S
C210   C215    1.444   .     S
C210   C223    1.461   .     D
C210   N381    1.334   .     S
C211   C216    1.445   .     S
C211   C235    1.459   .     S
C211   N384    1.334   .     D
C212   C214    1.447   .     S
C212   C229    1.466   .     S
C212   N379    1.334   .     D
C213   C227    1.447   1_665 S
C213   N378    1.335   .     S
C214   C239    1.561   1_565 S
C214   N380    1.334   .     D
C215   C220    1.443   1_445 D
C215   N382    1.332   .     S
C216   C233    1.561   1_545 S
C216   N383    1.333   .     D
C217   C218    1.420   .     S
C217   C219    1.409   .     D
C218   C220    1.421   .     S
C218   C225    1.437   1_665 D
C219   C221    1.406   .     S
C220   C215    1.443   1_665 D
C220   C222    1.404   .     S
C221   C222    1.408   .     D
C221   C253    1.545   .     S
C223   C224    1.404   .     S
C223   C225    1.422   .     S
C224   C226    1.407   .     D
C225   C218    1.437   1_445 D
C225   C227    1.419   .     S
C226   C228    1.405   .     S
C226   C261    1.547   .     S
C227   C213    1.447   1_445 S
C227   C228    1.410   .     D
C229   C230    1.408   .     D
C229   C231    1.422   .     S
C230   C232    1.409   .     S
C231   C233    1.422   .     D
C231   C237    1.340   1_565 S
C232   C234    1.407   .     D
C232   C249    1.544   .     S
C233   C216    1.561   1_565 S
C233   C234    1.407   .     S
C235   C236    1.409   .     D
C235   C237    1.420   .     S
C236   C238    1.405   .     S
C237   C231    1.340   1_545 S
C237   C239    1.421   .     D
C238   C240    1.409   .     D
C238   C257    1.544   .     S
C239   C214    1.561   1_545 S
C239   C240    1.411   .     S
C241   C242    1.543   .     S
C241   C243    1.547   .     S
C241   C244    1.547   .     S
C245   C246    1.541   .     S
C245   C247    1.547   .     S
C245   C248    1.547   .     S
C249   C250    1.524   .     S
C249   C251    1.541   .     S
C249   C252    1.542   .     S
C253   C254    1.542   .     S
C253   C255    1.544   .     S
C253   C256    1.547   .     S
C257   C258    1.547   .     S
C257   C259    1.543   .     S
C257   C260    1.545   .     S
C261   C262    1.547   .     S
C261   C263    1.548   .     S
C261   C264    1.543   .     S
C265   C266    1.406   .     D
C265   C270    1.407   .     S
C265   C349    1.544   .     S
C266   C267    1.409   .     S
C267   C268    1.419   .     S
C267   C271    1.462   .     D
C268   C269    1.419   .     S
C268   C272    1.449   .     D
C269   C270    1.405   .     D
C269   C278    1.460   .     S
C271   C285    1.447   .     S
C271   N388    1.333   .     S
C272   C273    1.420   .     S
C272   C277    1.422   .     S
C273   C274    1.409   .     S
C273   C285    1.464   .     D
C274   C275    1.406   .     D
C275   C276    1.409   .     S
C275   C353    1.547   .     S
C276   C277    1.406   .     D
C277   C279    1.464   .     S
C278   C279    1.446   .     D
C278   N387    1.332   .     S
C279   N385    1.334   .     S
C280   C281    1.434   .     S
C280   C282    1.419   .     S
C280   N385    1.361   .     D
C281   C283    1.417   .     S
C281   N387    1.359   .     D
C282   C291    1.399   .     D
C283   C284    1.397   .     D
C284   C291    1.445   .     S
C284   C295    1.470   .     S
C285   N386    1.334   .     S
C286   C287    1.434   .     S
C286   C288    1.420   .     S
C286   N386    1.361   .     D
C287   C289    1.418   .     S
C287   N388    1.360   .     D
C288   C304    1.399   .     D
C289   C290    1.397   .     D
C290   C304    1.445   .     S
C290   C308    1.471   .     S
C291   C292    1.472   .     S
C292   C293    1.400   .     D
C292   C294    1.445   .     S
C293   C296    1.420   .     S
C294   C297    1.399   .     D
C294   C298    1.475   .     S
C295   C298    1.445   .     D
C295   C299    1.400   .     S
C296   C300    1.434   .     D
C296   N393    1.363   .     S
C297   C300    1.420   .     S
C298   C301    1.399   .     S
C299   C302    1.419   .     D
C300   N394    1.361   .     S
C301   C303    1.421   .     D
C302   C303    1.435   .     S
C302   N396    1.363   .     S
C303   N395    1.361   .     S
C304   C305    1.472   .     S
C305   C306    1.398   .     D
C305   C307    1.443   .     S
C306   C309    1.420   .     S
C307   C310    1.398   .     D
C307   C311    1.469   .     S
C308   C311    1.443   .     S
C308   C312    1.399   .     D
C309   C313    1.435   .     D
C309   N391    1.360   .     S
C310   C313    1.418   .     S
C311   C314    1.395   .     D
C312   C315    1.420   .     S
C313   N392    1.362   .     S
C314   C316    1.416   .     S
C315   C316    1.434   .     D
C315   N389    1.362   .     S
C316   N390    1.358   .     S
C317   C321    1.442   .     S
C317   C325    1.463   .     S
C317   N389    1.335   .     D
C318   C323    1.449   .     S
C318   C331    1.468   .     S
C318   N393    1.334   .     D
C319   C324    1.447   .     S
C319   C343    1.467   .     S
C319   N396    1.334   .     D
C320   C322    1.445   .     S
C320   C337    1.460   .     S
C320   N391    1.333   .     D
C321   C335    1.440   1_665 S
C321   N390    1.332   .     D
C322   C347    1.562   1_565 S
C322   N392    1.334   .     D
C323   C328    1.445   1_445 S
C323   N394    1.334   .     D
C324   C341    1.561   1_545 S
C324   N395    1.335   .     D
C325   C326    1.424   .     S
C325   C327    1.405   .     D
C326   C328    1.418   .     D
C326   C333    1.437   1_665 S
C327   C329    1.407   .     S
C328   C323    1.445   1_665 S
C328   C330    1.409   .     S
C329   C330    1.405   .     D
C329   C361    1.545   .     S
C331   C332    1.411   .     S
C331   C333    1.424   .     D
C332   C334    1.412   .     D
C333   C326    1.437   1_445 S
C333   C335    1.417   .     S
C334   C336    1.402   .     S
C334   C369    1.546   .     S
C335   C321    1.440   1_445 S
C335   C336    1.403   .     D
C337   C338    1.406   .     D
C337   C339    1.422   .     S
C338   C340    1.408   .     S
C339   C341    1.421   .     D
C339   C345    1.339   1_565 S
C340   C342    1.405   .     D
C340   C357    1.543   .     S
C341   C324    1.561   1_565 S
C341   C342    1.412   .     S
C343   C344    1.408   .     S
C343   C345    1.423   .     D
C344   C346    1.409   .     D
C345   C339    1.339   1_545 S
C345   C347    1.423   .     S
C346   C348    1.407   .     S
C346   C365    1.544   .     S
C347   C322    1.562   1_545 S
C347   C348    1.407   .     D
C349   C350    1.547   .     S
C349   C351    1.547   .     S
C349   C352    1.541   .     S
C353   C354    1.547   .     S
C353   C355    1.547   .     S
C353   C356    1.543   .     S
C357   C358    1.546   .     S
C357   C359    1.548   .     S
C357   C360    1.542   .     S
C361   C362    1.547   .     S
C361   C363    1.547   .     S
C361   C364    1.542   .     S
C365   C366    1.541   .     S
C365   C367    1.524   .     S
C365   C368    1.542   .     S
C369   C370    1.534   .     S
C369   C371    1.534   .     S
C369   C372    1.545   .     S
