data_19
_audit_creation_date              2023-09-08
_audit_creation_method            'Materials Studio'
_symmetry_space_group_name_H-M    'P1'
_symmetry_Int_Tables_number       1
_symmetry_cell_setting            triclinic
loop_
_symmetry_equiv_pos_as_xyz
  x,y,z
_cell_length_a                    43.9032
_cell_length_b                    23.5003
_cell_length_c                    21.3781
_cell_angle_alpha                 90.0000
_cell_angle_beta                  90.0000
_cell_angle_gamma                 90.0000
loop_
_atom_site_label
_atom_site_type_symbol
_atom_site_fract_x
_atom_site_fract_y
_atom_site_fract_z
_atom_site_U_iso_or_equiv
_atom_site_adp_type
_atom_site_occupancy
C1     C     0.42181   0.57214   0.69657   0.00000  Uiso   1.00
C2     C     0.57819   0.42786   0.19657   0.00000  Uiso   1.00
C3     C     0.42181   0.42786   0.19657   0.00000  Uiso   1.00
C4     C     0.57819   0.57214   0.69657   0.00000  Uiso   1.00
C5     C     0.39887   0.56956   0.74154   0.00000  Uiso   1.00
C6     C     0.60113   0.43044   0.24154   0.00000  Uiso   1.00
C7     C     0.39887   0.43044   0.24154   0.00000  Uiso   1.00
C8     C     0.60113   0.56956   0.74154   0.00000  Uiso   1.00
C9     C     0.29256   0.59198   0.85791   0.00000  Uiso   1.00
C10    C     0.70744   0.40802   0.35791   0.00000  Uiso   1.00
C11    C     0.29256   0.40802   0.35791   0.00000  Uiso   1.00
C12    C     0.70744   0.59198   0.85791   0.00000  Uiso   1.00
C13    C     0.26984   0.59254   0.90345   0.00000  Uiso   1.00
C14    C     0.73016   0.40746   0.40345   0.00000  Uiso   1.00
C15    C     0.26984   0.40746   0.40345   0.00000  Uiso   1.00
C16    C     0.73016   0.59254   0.90345   0.00000  Uiso   1.00
C17    C     0.08106   0.66619   0.47858   0.00000  Uiso   1.00
C18    C     0.91894   0.33381   0.97858   0.00000  Uiso   1.00
C19    C     0.08106   0.33381   0.97858   0.00000  Uiso   1.00
C20    C     0.91894   0.66619   0.47858   0.00000  Uiso   1.00
C21    C     0.10364   0.62444   0.48136   0.00000  Uiso   1.00
C22    C     0.89636   0.37556   0.98136   0.00000  Uiso   1.00
C23    C     0.10364   0.37556   0.98136   0.00000  Uiso   1.00
C24    C     0.89636   0.62444   0.48136   0.00000  Uiso   1.00
C25    C     0.18048   0.46941   0.43631   0.00000  Uiso   1.00
C26    C     0.81952   0.53059   0.93631   0.00000  Uiso   1.00
C27    C     0.18048   0.53059   0.93631   0.00000  Uiso   1.00
C28    C     0.81952   0.46941   0.43631   0.00000  Uiso   1.00
C29    C     0.20152   0.42490   0.43440   0.00000  Uiso   1.00
C30    C     0.79848   0.57510   0.93440   0.00000  Uiso   1.00
C31    C     0.20152   0.57510   0.93440   0.00000  Uiso   1.00
C32    C     0.79848   0.42490   0.43440   0.00000  Uiso   1.00
H33    H     0.60354   0.68621   0.61344   0.00000  Uiso   1.00
H34    H     0.39646   0.31379   0.11344   0.00000  Uiso   1.00
H35    H     0.60354   0.31379   0.11344   0.00000  Uiso   1.00
H36    H     0.39646   0.68621   0.61344   0.00000  Uiso   1.00
H37    H     0.64401   0.68160   0.69262   0.00000  Uiso   1.00
H38    H     0.35599   0.31840   0.19262   0.00000  Uiso   1.00
H39    H     0.64401   0.31840   0.19262   0.00000  Uiso   1.00
H40    H     0.35599   0.68160   0.69262   0.00000  Uiso   1.00
H41    H     0.69361   0.73372   0.84832   0.00000  Uiso   1.00
H42    H     0.30639   0.26628   0.34832   0.00000  Uiso   1.00
H43    H     0.69361   0.26628   0.34832   0.00000  Uiso   1.00
H44    H     0.30639   0.73372   0.84832   0.00000  Uiso   1.00
H45    H     0.73230   0.73540   0.93056   0.00000  Uiso   1.00
H46    H     0.26770   0.26460   0.43056   0.00000  Uiso   1.00
H47    H     0.73230   0.26460   0.43056   0.00000  Uiso   1.00
H48    H     0.26770   0.73540   0.93056   0.00000  Uiso   1.00
H49    H     0.90179   0.73861   0.61180   0.00000  Uiso   1.00
H50    H     0.09821   0.26139   0.11180   0.00000  Uiso   1.00
H51    H     0.90179   0.26139   0.11180   0.00000  Uiso   1.00
H52    H     0.09821   0.73861   0.61180   0.00000  Uiso   1.00
H53    H     0.86208   0.66530   0.61685   0.00000  Uiso   1.00
H54    H     0.13792   0.33470   0.11685   0.00000  Uiso   1.00
H55    H     0.86208   0.33470   0.11685   0.00000  Uiso   1.00
H56    H     0.13792   0.66530   0.61685   0.00000  Uiso   1.00
H57    H     0.81974   0.49318   0.59286   0.00000  Uiso   1.00
H58    H     0.18026   0.50682   0.09286   0.00000  Uiso   1.00
H59    H     0.81974   0.50682   0.09286   0.00000  Uiso   1.00
H60    H     0.18026   0.49318   0.59286   0.00000  Uiso   1.00
H61    H     0.78348   0.41578   0.59014   0.00000  Uiso   1.00
H62    H     0.21652   0.58422   0.09014   0.00000  Uiso   1.00
H63    H     0.78348   0.58422   0.09014   0.00000  Uiso   1.00
H64    H     0.21652   0.41578   0.59014   0.00000  Uiso   1.00
C65    C     0.39723   0.34651   0.14906   0.00000  Uiso   1.00
C66    C     0.60277   0.65349   0.64906   0.00000  Uiso   1.00
C67    C     0.39723   0.65349   0.64906   0.00000  Uiso   1.00
C68    C     0.60277   0.34651   0.14906   0.00000  Uiso   1.00
C69    C     0.37429   0.34910   0.19406   0.00000  Uiso   1.00
C70    C     0.62571   0.65090   0.69406   0.00000  Uiso   1.00
C71    C     0.37429   0.65090   0.69406   0.00000  Uiso   1.00
C72    C     0.62571   0.34910   0.19406   0.00000  Uiso   1.00
C73    C     0.29587   0.30564   0.36305   0.00000  Uiso   1.00
C74    C     0.70413   0.69436   0.86305   0.00000  Uiso   1.00
C75    C     0.29587   0.69436   0.86305   0.00000  Uiso   1.00
C76    C     0.70413   0.30564   0.36305   0.00000  Uiso   1.00
C77    C     0.27349   0.30493   0.40928   0.00000  Uiso   1.00
C78    C     0.72651   0.69507   0.90928   0.00000  Uiso   1.00
C79    C     0.27349   0.69507   0.90928   0.00000  Uiso   1.00
C80    C     0.72651   0.30493   0.40928   0.00000  Uiso   1.00
C81    C     0.08179   0.95734   0.97575   0.00000  Uiso   1.00
C82    C     0.91821   0.04266   0.47575   0.00000  Uiso   1.00
C83    C     0.08179   0.04266   0.47575   0.00000  Uiso   1.00
C84    C     0.91821   0.95734   0.97575   0.00000  Uiso   1.00
C85    C     0.10404   0.91499   0.97860   0.00000  Uiso   1.00
C86    C     0.89596   0.08501   0.47860   0.00000  Uiso   1.00
C87    C     0.10404   0.08501   0.47860   0.00000  Uiso   1.00
C88    C     0.89596   0.91499   0.97860   0.00000  Uiso   1.00
C89    C     0.18464   0.76571   0.93321   0.00000  Uiso   1.00
C90    C     0.81536   0.23429   0.43321   0.00000  Uiso   1.00
C91    C     0.18464   0.23429   0.43321   0.00000  Uiso   1.00
C92    C     0.81536   0.76571   0.93321   0.00000  Uiso   1.00
C93    C     0.20571   0.72121   0.93179   0.00000  Uiso   1.00
C94    C     0.79429   0.27879   0.43179   0.00000  Uiso   1.00
C95    C     0.20571   0.27879   0.43179   0.00000  Uiso   1.00
C96    C     0.79429   0.72121   0.93179   0.00000  Uiso   1.00
H97    H     0.55989   0.45859   0.19783   0.00000  Uiso   1.00
H98    H     0.44011   0.54141   0.69783   0.00000  Uiso   1.00
H99    H     0.55989   0.54141   0.69783   0.00000  Uiso   1.00
H100   H     0.44011   0.45859   0.19783   0.00000  Uiso   1.00
H101   H     0.60015   0.46290   0.27736   0.00000  Uiso   1.00
H102   H     0.39985   0.53710   0.77736   0.00000  Uiso   1.00
H103   H     0.60015   0.53710   0.77736   0.00000  Uiso   1.00
H104   H     0.39985   0.46290   0.27736   0.00000  Uiso   1.00
H105   H     0.70023   0.44828   0.33851   0.00000  Uiso   1.00
H106   H     0.29977   0.55172   0.83851   0.00000  Uiso   1.00
H107   H     0.70023   0.55172   0.83851   0.00000  Uiso   1.00
H108   H     0.29977   0.44828   0.33851   0.00000  Uiso   1.00
H109   H     0.73882   0.44788   0.41973   0.00000  Uiso   1.00
H110   H     0.26118   0.55212   0.91973   0.00000  Uiso   1.00
H111   H     0.73882   0.55212   0.91973   0.00000  Uiso   1.00
H112   H     0.26118   0.44788   0.41973   0.00000  Uiso   1.00
H113   H     0.90378   0.02377   0.11398   0.00000  Uiso   1.00
H114   H     0.09622   0.97623   0.61398   0.00000  Uiso   1.00
H115   H     0.90378   0.97623   0.61398   0.00000  Uiso   1.00
H116   H     0.09622   0.02377   0.11398   0.00000  Uiso   1.00
H117   H     0.86474   0.94915   0.11938   0.00000  Uiso   1.00
H118   H     0.13526   0.05085   0.61938   0.00000  Uiso   1.00
H119   H     0.86474   0.05085   0.61938   0.00000  Uiso   1.00
H120   H     0.13526   0.94915   0.11938   0.00000  Uiso   1.00
H121   H     0.82775   0.77106   0.08967   0.00000  Uiso   1.00
H122   H     0.17225   0.22894   0.58967   0.00000  Uiso   1.00
H123   H     0.82775   0.22894   0.58967   0.00000  Uiso   1.00
H124   H     0.17225   0.77106   0.08967   0.00000  Uiso   1.00
H125   H     0.79137   0.69313   0.08765   0.00000  Uiso   1.00
H126   H     0.20863   0.30687   0.58765   0.00000  Uiso   1.00
H127   H     0.79137   0.30687   0.58765   0.00000  Uiso   1.00
H128   H     0.20863   0.69313   0.08765   0.00000  Uiso   1.00
C129   C     0.35418   0.38815   0.68086   0.00000  Uiso   1.00
C130   C     0.64582   0.61185   0.18086   0.00000  Uiso   1.00
C131   C     0.35418   0.61185   0.18086   0.00000  Uiso   1.00
C132   C     0.64582   0.38815   0.68086   0.00000  Uiso   1.00
C133   C     0.14822   0.42038   0.03560   0.00000  Uiso   1.00
C134   C     0.85178   0.57962   0.53560   0.00000  Uiso   1.00
C135   C     0.14822   0.57962   0.53560   0.00000  Uiso   1.00
C136   C     0.85178   0.42038   0.03560   0.00000  Uiso   1.00
C137   C     0.43595   0.60724   0.53822   0.00000  Uiso   1.00
C138   C     0.56405   0.39276   0.03822   0.00000  Uiso   1.00
C139   C     0.43595   0.39276   0.03822   0.00000  Uiso   1.00
C140   C     0.56405   0.60724   0.53822   0.00000  Uiso   1.00
C141   C     0.44485   0.61530   0.60085   0.00000  Uiso   1.00
C142   C     0.55515   0.38470   0.10085   0.00000  Uiso   1.00
C143   C     0.44485   0.38470   0.10085   0.00000  Uiso   1.00
C144   C     0.55515   0.61530   0.60085   0.00000  Uiso   1.00
C145   C     0.42101   0.61381   0.64974   0.00000  Uiso   1.00
C146   C     0.57899   0.38619   0.14974   0.00000  Uiso   1.00
C147   C     0.42101   0.38619   0.14974   0.00000  Uiso   1.00
C148   C     0.57899   0.61381   0.64974   0.00000  Uiso   1.00
C149   C     0.37482   0.60858   0.74039   0.00000  Uiso   1.00
C150   C     0.62518   0.39142   0.24039   0.00000  Uiso   1.00
C151   C     0.37482   0.39142   0.24039   0.00000  Uiso   1.00
C152   C     0.62518   0.60858   0.74039   0.00000  Uiso   1.00
N153   N     0.33023   0.64395   0.79340   0.00000  Uiso   1.00
N154   N     0.66977   0.35605   0.29340   0.00000  Uiso   1.00
N155   N     0.33023   0.35605   0.29340   0.00000  Uiso   1.00
N156   N     0.66977   0.64395   0.79340   0.00000  Uiso   1.00
C157   C     0.30601   0.64297   0.83810   0.00000  Uiso   1.00
C158   C     0.69399   0.35703   0.33810   0.00000  Uiso   1.00
C159   C     0.30601   0.35703   0.33810   0.00000  Uiso   1.00
C160   C     0.69399   0.64297   0.83810   0.00000  Uiso   1.00
C161   C     0.25943   0.64427   0.92943   0.00000  Uiso   1.00
C162   C     0.74057   0.35573   0.42943   0.00000  Uiso   1.00
C163   C     0.25943   0.35573   0.42943   0.00000  Uiso   1.00
C164   C     0.74057   0.64427   0.92943   0.00000  Uiso   1.00
C165   C     0.59424   0.58925   0.51779   0.00000  Uiso   1.00
C166   C     0.40576   0.41075   0.01779   0.00000  Uiso   1.00
C167   C     0.59424   0.41075   0.01779   0.00000  Uiso   1.00
C168   C     0.40576   0.58925   0.51779   0.00000  Uiso   1.00
H169   H     0.61307   0.57926   0.42641   0.00000  Uiso   1.00
H170   H     0.38693   0.42074   0.92641   0.00000  Uiso   1.00
H171   H     0.61307   0.42074   0.92641   0.00000  Uiso   1.00
H172   H     0.38693   0.57926   0.42641   0.00000  Uiso   1.00
C173   C     0.97539   0.26556   0.03083   0.00000  Uiso   1.00
C174   C     0.02461   0.73444   0.53083   0.00000  Uiso   1.00
C175   C     0.97539   0.73444   0.53083   0.00000  Uiso   1.00
C176   C     0.02461   0.26556   0.03083   0.00000  Uiso   1.00
C177   C     0.98505   0.32326   0.04714   0.00000  Uiso   1.00
C178   C     0.01495   0.67674   0.54714   0.00000  Uiso   1.00
C179   C     0.98505   0.67674   0.54714   0.00000  Uiso   1.00
C180   C     0.01495   0.32326   0.04714   0.00000  Uiso   1.00
C181   C     0.92107   0.29244   0.02557   0.00000  Uiso   1.00
C182   C     0.07893   0.70756   0.52557   0.00000  Uiso   1.00
C183   C     0.92107   0.70756   0.52557   0.00000  Uiso   1.00
C184   C     0.07893   0.29244   0.02557   0.00000  Uiso   1.00
C185   C     0.87562   0.37642   0.03120   0.00000  Uiso   1.00
C186   C     0.12438   0.62358   0.53120   0.00000  Uiso   1.00
C187   C     0.87562   0.62358   0.53120   0.00000  Uiso   1.00
C188   C     0.12438   0.37642   0.03120   0.00000  Uiso   1.00
N189   N     0.84853   0.45864   0.99223   0.00000  Uiso   1.00
N190   N     0.15147   0.54136   0.49223   0.00000  Uiso   1.00
N191   N     0.84853   0.54136   0.49223   0.00000  Uiso   1.00
N192   N     0.15147   0.45864   0.99223   0.00000  Uiso   1.00
C193   C     0.82663   0.50390   0.99267   0.00000  Uiso   1.00
C194   C     0.17337   0.49610   0.49267   0.00000  Uiso   1.00
C195   C     0.82663   0.49610   0.49267   0.00000  Uiso   1.00
C196   C     0.17337   0.50390   0.99267   0.00000  Uiso   1.00
C197   C     0.78344   0.59332   0.98904   0.00000  Uiso   1.00
C198   C     0.21656   0.40668   0.48904   0.00000  Uiso   1.00
C199   C     0.78344   0.40668   0.48904   0.00000  Uiso   1.00
C200   C     0.21656   0.59332   0.98904   0.00000  Uiso   1.00
C201   C     0.05500   0.24819   0.02310   0.00000  Uiso   1.00
C202   C     0.94500   0.75181   0.52310   0.00000  Uiso   1.00
C203   C     0.05500   0.75181   0.52310   0.00000  Uiso   1.00
C204   C     0.94500   0.24819   0.02310   0.00000  Uiso   1.00
H205   H     0.97076   0.35941   0.05781   0.00000  Uiso   1.00
H206   H     0.02924   0.64059   0.55781   0.00000  Uiso   1.00
H207   H     0.97076   0.64059   0.55781   0.00000  Uiso   1.00
H208   H     0.02924   0.35941   0.05781   0.00000  Uiso   1.00
H209   H     0.35673   0.42096   0.64572   0.00000  Uiso   1.00
H210   H     0.64327   0.57904   0.14572   0.00000  Uiso   1.00
H211   H     0.35673   0.57904   0.14572   0.00000  Uiso   1.00
H212   H     0.64327   0.42096   0.64572   0.00000  Uiso   1.00
H213   H     0.16334   0.41921   0.07536   0.00000  Uiso   1.00
H214   H     0.83666   0.58079   0.57536   0.00000  Uiso   1.00
H215   H     0.16334   0.58079   0.57536   0.00000  Uiso   1.00
H216   H     0.83666   0.41921   0.07536   0.00000  Uiso   1.00
C217   C     0.39678   0.65689   0.32662   0.00000  Uiso   1.00
C218   C     0.60322   0.34311   0.82662   0.00000  Uiso   1.00
C219   C     0.39678   0.34311   0.82662   0.00000  Uiso   1.00
C220   C     0.60322   0.65689   0.32662   0.00000  Uiso   1.00
C221   C     0.37475   0.65495   0.27964   0.00000  Uiso   1.00
C222   C     0.62525   0.34505   0.77964   0.00000  Uiso   1.00
C223   C     0.37475   0.34505   0.77964   0.00000  Uiso   1.00
C224   C     0.62525   0.65495   0.27964   0.00000  Uiso   1.00
C225   C     0.29380   0.69643   0.11504   0.00000  Uiso   1.00
C226   C     0.70620   0.30357   0.61504   0.00000  Uiso   1.00
C227   C     0.29380   0.30357   0.61504   0.00000  Uiso   1.00
C228   C     0.70620   0.69643   0.11504   0.00000  Uiso   1.00
C229   C     0.27111   0.69663   0.06938   0.00000  Uiso   1.00
C230   C     0.72889   0.30337   0.56938   0.00000  Uiso   1.00
C231   C     0.27111   0.30337   0.56938   0.00000  Uiso   1.00
C232   C     0.72889   0.69663   0.06938   0.00000  Uiso   1.00
C233   C     0.09837   0.00642   0.57599   0.00000  Uiso   1.00
C234   C     0.90163   0.99358   0.07599   0.00000  Uiso   1.00
C235   C     0.09837   0.99358   0.07599   0.00000  Uiso   1.00
C236   C     0.90163   0.00642   0.57599   0.00000  Uiso   1.00
C237   C     0.12051   0.04887   0.57901   0.00000  Uiso   1.00
C238   C     0.87949   0.95113   0.07901   0.00000  Uiso   1.00
C239   C     0.12051   0.95113   0.07901   0.00000  Uiso   1.00
C240   C     0.87949   0.04887   0.57901   0.00000  Uiso   1.00
C241   C     0.18212   0.24114   0.54549   0.00000  Uiso   1.00
C242   C     0.81788   0.75886   0.04549   0.00000  Uiso   1.00
C243   C     0.18212   0.75886   0.04549   0.00000  Uiso   1.00
C244   C     0.81788   0.24114   0.54549   0.00000  Uiso   1.00
C245   C     0.20300   0.28585   0.54420   0.00000  Uiso   1.00
C246   C     0.79700   0.71415   0.04420   0.00000  Uiso   1.00
C247   C     0.20300   0.71415   0.04420   0.00000  Uiso   1.00
C248   C     0.79700   0.28585   0.54420   0.00000  Uiso   1.00
H249   H     0.55658   0.55193   0.27349   0.00000  Uiso   1.00
H250   H     0.44342   0.44807   0.77349   0.00000  Uiso   1.00
H251   H     0.55658   0.44807   0.77349   0.00000  Uiso   1.00
H252   H     0.44342   0.55193   0.27349   0.00000  Uiso   1.00
H253   H     0.59497   0.54931   0.19031   0.00000  Uiso   1.00
H254   H     0.40503   0.45069   0.69031   0.00000  Uiso   1.00
H255   H     0.59497   0.45069   0.69031   0.00000  Uiso   1.00
H256   H     0.40503   0.54931   0.19031   0.00000  Uiso   1.00
H257   H     0.69107   0.55462   0.11782   0.00000  Uiso   1.00
H258   H     0.30893   0.44538   0.61782   0.00000  Uiso   1.00
H259   H     0.69107   0.44538   0.61782   0.00000  Uiso   1.00
H260   H     0.30893   0.55462   0.11782   0.00000  Uiso   1.00
H261   H     0.72994   0.55460   0.03726   0.00000  Uiso   1.00
H262   H     0.27006   0.44540   0.53726   0.00000  Uiso   1.00
H263   H     0.72994   0.44540   0.53726   0.00000  Uiso   1.00
H264   H     0.27006   0.55460   0.03726   0.00000  Uiso   1.00
H265   H     0.93320   0.04056   0.43573   0.00000  Uiso   1.00
H266   H     0.06680   0.95944   0.93573   0.00000  Uiso   1.00
H267   H     0.93320   0.95944   0.93573   0.00000  Uiso   1.00
H268   H     0.06680   0.04056   0.43573   0.00000  Uiso   1.00
H269   H     0.89402   0.11531   0.44071   0.00000  Uiso   1.00
H270   H     0.10598   0.88469   0.94071   0.00000  Uiso   1.00
H271   H     0.89402   0.88469   0.94071   0.00000  Uiso   1.00
H272   H     0.10598   0.11531   0.44071   0.00000  Uiso   1.00
H273   H     0.82301   0.21518   0.39004   0.00000  Uiso   1.00
H274   H     0.17699   0.78482   0.89004   0.00000  Uiso   1.00
H275   H     0.82301   0.78482   0.89004   0.00000  Uiso   1.00
H276   H     0.17699   0.21518   0.39004   0.00000  Uiso   1.00
H277   H     0.78672   0.29412   0.38679   0.00000  Uiso   1.00
H278   H     0.21328   0.70588   0.88679   0.00000  Uiso   1.00
H279   H     0.78672   0.70588   0.88679   0.00000  Uiso   1.00
H280   H     0.21328   0.29412   0.38679   0.00000  Uiso   1.00
C281   C     0.42433   0.41910   0.77545   0.00000  Uiso   1.00
C282   C     0.57567   0.58090   0.27545   0.00000  Uiso   1.00
C283   C     0.42433   0.58090   0.27545   0.00000  Uiso   1.00
C284   C     0.57567   0.41910   0.77545   0.00000  Uiso   1.00
C285   C     0.40246   0.42072   0.72833   0.00000  Uiso   1.00
C286   C     0.59754   0.57928   0.22833   0.00000  Uiso   1.00
C287   C     0.40246   0.57928   0.22833   0.00000  Uiso   1.00
C288   C     0.59754   0.42072   0.72833   0.00000  Uiso   1.00
C289   C     0.29871   0.40539   0.60453   0.00000  Uiso   1.00
C290   C     0.70129   0.59461   0.10453   0.00000  Uiso   1.00
C291   C     0.29871   0.59461   0.10453   0.00000  Uiso   1.00
C292   C     0.70129   0.40539   0.60453   0.00000  Uiso   1.00
C293   C     0.27591   0.40544   0.55930   0.00000  Uiso   1.00
C294   C     0.72409   0.59456   0.05930   0.00000  Uiso   1.00
C295   C     0.27591   0.59456   0.05930   0.00000  Uiso   1.00
C296   C     0.72409   0.40544   0.55930   0.00000  Uiso   1.00
C297   C     0.09966   0.29311   0.07519   0.00000  Uiso   1.00
C298   C     0.90034   0.70689   0.57519   0.00000  Uiso   1.00
C299   C     0.09966   0.70689   0.57519   0.00000  Uiso   1.00
C300   C     0.90034   0.29311   0.07519   0.00000  Uiso   1.00
C301   C     0.12220   0.33482   0.07801   0.00000  Uiso   1.00
C302   C     0.87780   0.66518   0.57801   0.00000  Uiso   1.00
C303   C     0.12220   0.66518   0.57801   0.00000  Uiso   1.00
C304   C     0.87780   0.33482   0.07801   0.00000  Uiso   1.00
C305   C     0.18668   0.52402   0.04801   0.00000  Uiso   1.00
C306   C     0.81332   0.47598   0.54801   0.00000  Uiso   1.00
C307   C     0.18668   0.47598   0.54801   0.00000  Uiso   1.00
C308   C     0.81332   0.52402   0.04801   0.00000  Uiso   1.00
C309   C     0.20767   0.56855   0.04628   0.00000  Uiso   1.00
C310   C     0.79233   0.43145   0.54628   0.00000  Uiso   1.00
C311   C     0.20767   0.43145   0.54628   0.00000  Uiso   1.00
C312   C     0.79233   0.56855   0.04628   0.00000  Uiso   1.00
H313   H     0.60546   0.31261   0.86428   0.00000  Uiso   1.00
H314   H     0.39454   0.68739   0.36428   0.00000  Uiso   1.00
H315   H     0.60546   0.68739   0.36428   0.00000  Uiso   1.00
H316   H     0.39454   0.31261   0.86428   0.00000  Uiso   1.00
H317   H     0.64440   0.31626   0.78174   0.00000  Uiso   1.00
H318   H     0.35560   0.68374   0.28174   0.00000  Uiso   1.00
H319   H     0.64440   0.68374   0.28174   0.00000  Uiso   1.00
H320   H     0.35560   0.31626   0.78174   0.00000  Uiso   1.00
H321   H     0.69883   0.26394   0.63579   0.00000  Uiso   1.00
H322   H     0.30117   0.73606   0.13579   0.00000  Uiso   1.00
H323   H     0.69883   0.73606   0.13579   0.00000  Uiso   1.00
H324   H     0.30117   0.26394   0.63579   0.00000  Uiso   1.00
H325   H     0.73791   0.26275   0.55460   0.00000  Uiso   1.00
H326   H     0.26209   0.73725   0.05460   0.00000  Uiso   1.00
H327   H     0.73791   0.73725   0.05460   0.00000  Uiso   1.00
H328   H     0.26209   0.26275   0.55460   0.00000  Uiso   1.00
H329   H     0.93478   0.33360   0.93990   0.00000  Uiso   1.00
H330   H     0.06522   0.66640   0.43990   0.00000  Uiso   1.00
H331   H     0.93478   0.66640   0.43990   0.00000  Uiso   1.00
H332   H     0.06522   0.33360   0.93990   0.00000  Uiso   1.00
H333   H     0.89507   0.40731   0.94481   0.00000  Uiso   1.00
H334   H     0.10493   0.59269   0.44481   0.00000  Uiso   1.00
H335   H     0.89507   0.59269   0.44481   0.00000  Uiso   1.00
H336   H     0.10493   0.40731   0.94481   0.00000  Uiso   1.00
H337   H     0.83051   0.51667   0.89381   0.00000  Uiso   1.00
H338   H     0.16949   0.48333   0.39381   0.00000  Uiso   1.00
H339   H     0.83051   0.48333   0.39381   0.00000  Uiso   1.00
H340   H     0.16949   0.51667   0.89381   0.00000  Uiso   1.00
H341   H     0.79396   0.59554   0.89007   0.00000  Uiso   1.00
H342   H     0.20604   0.40446   0.39007   0.00000  Uiso   1.00
H343   H     0.79396   0.40446   0.39007   0.00000  Uiso   1.00
H344   H     0.20604   0.59554   0.89007   0.00000  Uiso   1.00
C345   C     0.35053   0.39581   0.28755   0.00000  Uiso   1.00
C346   C     0.64947   0.60419   0.78755   0.00000  Uiso   1.00
C347   C     0.35053   0.60419   0.78755   0.00000  Uiso   1.00
C348   C     0.64947   0.39581   0.28755   0.00000  Uiso   1.00
C349   C     0.14675   0.86641   0.03517   0.00000  Uiso   1.00
C350   C     0.85325   0.13359   0.53517   0.00000  Uiso   1.00
C351   C     0.14675   0.13359   0.53517   0.00000  Uiso   1.00
C352   C     0.85325   0.86641   0.03517   0.00000  Uiso   1.00
C353   C     0.43597   0.60972   0.43694   0.00000  Uiso   1.00
C354   C     0.56403   0.39028   0.93694   0.00000  Uiso   1.00
C355   C     0.43597   0.39028   0.93694   0.00000  Uiso   1.00
C356   C     0.56403   0.60972   0.43694   0.00000  Uiso   1.00
C357   C     0.44496   0.62080   0.37494   0.00000  Uiso   1.00
C358   C     0.55504   0.37920   0.87494   0.00000  Uiso   1.00
C359   C     0.44496   0.37920   0.87494   0.00000  Uiso   1.00
C360   C     0.55504   0.62080   0.37494   0.00000  Uiso   1.00
C361   C     0.42160   0.61954   0.32505   0.00000  Uiso   1.00
C362   C     0.57840   0.38046   0.82505   0.00000  Uiso   1.00
C363   C     0.42160   0.38046   0.82505   0.00000  Uiso   1.00
C364   C     0.57840   0.61954   0.32505   0.00000  Uiso   1.00
C365   C     0.37738   0.61585   0.23028   0.00000  Uiso   1.00
C366   C     0.62262   0.38415   0.73028   0.00000  Uiso   1.00
C367   C     0.37738   0.38415   0.73028   0.00000  Uiso   1.00
C368   C     0.62262   0.61585   0.23028   0.00000  Uiso   1.00
N369   N     0.33177   0.64769   0.17808   0.00000  Uiso   1.00
N370   N     0.66823   0.35231   0.67808   0.00000  Uiso   1.00
N371   N     0.33177   0.35231   0.67808   0.00000  Uiso   1.00
N372   N     0.66823   0.64769   0.17808   0.00000  Uiso   1.00
C373   C     0.30803   0.64579   0.13228   0.00000  Uiso   1.00
C374   C     0.69197   0.35421   0.63228   0.00000  Uiso   1.00
C375   C     0.30803   0.35421   0.63228   0.00000  Uiso   1.00
C376   C     0.69197   0.64579   0.13228   0.00000  Uiso   1.00
C377   C     0.26097   0.64533   0.04197   0.00000  Uiso   1.00
C378   C     0.73903   0.35467   0.54197   0.00000  Uiso   1.00
C379   C     0.26097   0.35467   0.54197   0.00000  Uiso   1.00
C380   C     0.73903   0.64533   0.04197   0.00000  Uiso   1.00
C381   C     0.59421   0.59066   0.45619   0.00000  Uiso   1.00
C382   C     0.40579   0.40934   0.95619   0.00000  Uiso   1.00
C383   C     0.59421   0.40934   0.95619   0.00000  Uiso   1.00
C384   C     0.40579   0.59066   0.45619   0.00000  Uiso   1.00
H385   H     0.61312   0.57653   0.54686   0.00000  Uiso   1.00
H386   H     0.38688   0.42347   0.04686   0.00000  Uiso   1.00
H387   H     0.61312   0.42347   0.04686   0.00000  Uiso   1.00
H388   H     0.38688   0.57653   0.54686   0.00000  Uiso   1.00
C389   C     0.97541   0.02359   0.02986   0.00000  Uiso   1.00
C390   C     0.02459   0.97641   0.52986   0.00000  Uiso   1.00
C391   C     0.97541   0.97641   0.52986   0.00000  Uiso   1.00
C392   C     0.02459   0.02359   0.02986   0.00000  Uiso   1.00
C393   C     0.98505   0.96563   0.04508   0.00000  Uiso   1.00
C394   C     0.01495   0.03437   0.54508   0.00000  Uiso   1.00
C395   C     0.98505   0.03437   0.54508   0.00000  Uiso   1.00
C396   C     0.01495   0.96563   0.04508   0.00000  Uiso   1.00
C397   C     0.92118   0.99672   0.02453   0.00000  Uiso   1.00
C398   C     0.07882   0.00328   0.52453   0.00000  Uiso   1.00
C399   C     0.92118   0.00328   0.52453   0.00000  Uiso   1.00
C400   C     0.07882   0.99672   0.02453   0.00000  Uiso   1.00
C401   C     0.87648   0.91143   0.03043   0.00000  Uiso   1.00
C402   C     0.12352   0.08857   0.53043   0.00000  Uiso   1.00
C403   C     0.87648   0.08857   0.53043   0.00000  Uiso   1.00
C404   C     0.12352   0.91143   0.03043   0.00000  Uiso   1.00
N405   N     0.84822   0.83166   0.98906   0.00000  Uiso   1.00
N406   N     0.15178   0.16834   0.48906   0.00000  Uiso   1.00
N407   N     0.84822   0.16834   0.48906   0.00000  Uiso   1.00
N408   N     0.15178   0.83166   0.98906   0.00000  Uiso   1.00
C409   C     0.82669   0.78583   0.98990   0.00000  Uiso   1.00
C410   C     0.17331   0.21417   0.48990   0.00000  Uiso   1.00
C411   C     0.82669   0.21417   0.48990   0.00000  Uiso   1.00
C412   C     0.17331   0.78583   0.98990   0.00000  Uiso   1.00
C413   C     0.78356   0.69636   0.98764   0.00000  Uiso   1.00
C414   C     0.21644   0.30364   0.48764   0.00000  Uiso   1.00
C415   C     0.78356   0.30364   0.48764   0.00000  Uiso   1.00
C416   C     0.21644   0.69636   0.98764   0.00000  Uiso   1.00
C417   C     0.05497   0.04104   0.02238   0.00000  Uiso   1.00
C418   C     0.94503   0.95896   0.52238   0.00000  Uiso   1.00
C419   C     0.05497   0.95896   0.52238   0.00000  Uiso   1.00
C420   C     0.94503   0.04104   0.02238   0.00000  Uiso   1.00
H421   H     0.97076   0.92930   0.05492   0.00000  Uiso   1.00
H422   H     0.02924   0.07070   0.55492   0.00000  Uiso   1.00
H423   H     0.97076   0.07070   0.55492   0.00000  Uiso   1.00
H424   H     0.02924   0.92930   0.05492   0.00000  Uiso   1.00
H425   H     0.35071   0.43187   0.31909   0.00000  Uiso   1.00
H426   H     0.64929   0.56813   0.81909   0.00000  Uiso   1.00
H427   H     0.35071   0.56813   0.81909   0.00000  Uiso   1.00
H428   H     0.64929   0.43187   0.31909   0.00000  Uiso   1.00
H429   H     0.16007   0.86386   0.07756   0.00000  Uiso   1.00
H430   H     0.83993   0.13614   0.57756   0.00000  Uiso   1.00
H431   H     0.16007   0.13614   0.57756   0.00000  Uiso   1.00
H432   H     0.83993   0.86386   0.07756   0.00000  Uiso   1.00
C433   C     0.76175   0.64491   0.98694   0.00000  Uiso   1.00
C434   C     0.23825   0.35509   0.48694   0.00000  Uiso   1.00
C435   C     0.76175   0.35509   0.48694   0.00000  Uiso   1.00
C436   C     0.23825   0.64491   0.98694   0.00000  Uiso   1.00
N437   N     0.95332   0.14460   0.02441   0.00000  Uiso   1.00
N438   N     0.04668   0.85540   0.52441   0.00000  Uiso   1.00
N439   N     0.95332   0.85540   0.52441   0.00000  Uiso   1.00
N440   N     0.04668   0.14460   0.02441   0.00000  Uiso   1.00
H441   H     0.97489   0.14457   0.04346   0.00000  Uiso   1.00
H442   H     0.02511   0.85543   0.54346   0.00000  Uiso   1.00
H443   H     0.97489   0.85543   0.54346   0.00000  Uiso   1.00
H444   H     0.02511   0.14457   0.04346   0.00000  Uiso   1.00
N445   N     0.45326   0.61925   0.48792   0.00000  Uiso   1.00
N446   N     0.54674   0.38075   0.98792   0.00000  Uiso   1.00
N447   N     0.45326   0.38075   0.98792   0.00000  Uiso   1.00
N448   N     0.54674   0.61925   0.48792   0.00000  Uiso   1.00
C449   C     0.47527   0.62467   0.61908   0.00000  Uiso   1.00
C450   C     0.52473   0.37533   0.11908   0.00000  Uiso   1.00
C451   C     0.47527   0.37533   0.11908   0.00000  Uiso   1.00
C452   C     0.52473   0.62467   0.61908   0.00000  Uiso   1.00
C453   C     0.48438   0.64277   0.67772   0.00000  Uiso   1.00
C454   C     0.51562   0.35723   0.17772   0.00000  Uiso   1.00
C455   C     0.48438   0.35723   0.17772   0.00000  Uiso   1.00
C456   C     0.51562   0.64277   0.67772   0.00000  Uiso   1.00
C457   C     0.47530   0.63235   0.35797   0.00000  Uiso   1.00
C458   C     0.52470   0.36765   0.85797   0.00000  Uiso   1.00
C459   C     0.47530   0.36765   0.85797   0.00000  Uiso   1.00
C460   C     0.52470   0.63235   0.35797   0.00000  Uiso   1.00
C461   C     0.48440   0.65444   0.30099   0.00000  Uiso   1.00
C462   C     0.51560   0.34556   0.80099   0.00000  Uiso   1.00
C463   C     0.48440   0.34556   0.80099   0.00000  Uiso   1.00
C464   C     0.51560   0.65444   0.30099   0.00000  Uiso   1.00
H465   H     0.46997   0.66858   0.26319   0.00000  Uiso   1.00
H466   H     0.53003   0.33142   0.76319   0.00000  Uiso   1.00
H467   H     0.46997   0.33142   0.76319   0.00000  Uiso   1.00
H468   H     0.53003   0.66858   0.26319   0.00000  Uiso   1.00
H469   H     0.46996   0.65452   0.71650   0.00000  Uiso   1.00
H470   H     0.53004   0.34548   0.21650   0.00000  Uiso   1.00
H471   H     0.46996   0.34548   0.21650   0.00000  Uiso   1.00
H472   H     0.53004   0.65452   0.71650   0.00000  Uiso   1.00
C473   C     0.06395   0.80897   0.51374   0.00000  Uiso   1.00
C474   C     0.93605   0.19103   0.01374   0.00000  Uiso   1.00
C475   C     0.06395   0.19103   0.01374   0.00000  Uiso   1.00
C476   C     0.93605   0.80897   0.51374   0.00000  Uiso   1.00
C477   C     0.09277   0.82608   0.49605   0.00000  Uiso   1.00
C478   C     0.90723   0.17392   0.99605   0.00000  Uiso   1.00
C479   C     0.09277   0.17392   0.99605   0.00000  Uiso   1.00
C480   C     0.90723   0.82608   0.49605   0.00000  Uiso   1.00
C481   C     0.06395   0.90179   0.51350   0.00000  Uiso   1.00
C482   C     0.93605   0.09821   0.01350   0.00000  Uiso   1.00
C483   C     0.06395   0.09821   0.01350   0.00000  Uiso   1.00
C484   C     0.93605   0.90179   0.51350   0.00000  Uiso   1.00
C485   C     0.09277   0.88466   0.49597   0.00000  Uiso   1.00
C486   C     0.90723   0.11534   0.99597   0.00000  Uiso   1.00
C487   C     0.09277   0.11534   0.99597   0.00000  Uiso   1.00
C488   C     0.90723   0.88466   0.49597   0.00000  Uiso   1.00
H489   H     0.11184   0.79903   0.48477   0.00000  Uiso   1.00
H490   H     0.88816   0.20097   0.98477   0.00000  Uiso   1.00
H491   H     0.11184   0.20097   0.98477   0.00000  Uiso   1.00
H492   H     0.88816   0.79903   0.48477   0.00000  Uiso   1.00
H493   H     0.11184   0.91172   0.48464   0.00000  Uiso   1.00
H494   H     0.88816   0.08828   0.98464   0.00000  Uiso   1.00
H495   H     0.11184   0.08828   0.98464   0.00000  Uiso   1.00
H496   H     0.88816   0.91172   0.48464   0.00000  Uiso   1.00
N497   N     0.50000   0.61918   0.39225   0.00000  Uiso   1.00
N498   N     0.50000   0.38082   0.89225   0.00000  Uiso   1.00
H499   H     0.50000   0.59724   0.43430   0.00000  Uiso   1.00
H500   H     0.50000   0.40276   0.93430   0.00000  Uiso   1.00
N501   N     0.50000   0.61369   0.58392   0.00000  Uiso   1.00
N502   N     0.50000   0.38631   0.08392   0.00000  Uiso   1.00
H503   H     0.50000   0.59511   0.53998   0.00000  Uiso   1.00
H504   H     0.50000   0.40489   0.03998   0.00000  Uiso   1.00
N505   N     0.00000   0.76751   0.52112   0.00000  Uiso   1.00
N506   N     0.00000   0.23249   0.02112   0.00000  Uiso   1.00
N507   N     0.00000   0.94320   0.52073   0.00000  Uiso   1.00
N508   N     0.00000   0.05680   0.02073   0.00000  Uiso   1.00
loop_
_geom_bond_atom_site_label_1
_geom_bond_atom_site_label_2
_geom_bond_distance
_geom_bond_site_symmetry_2
_ccdc_geom_bond_type
C1     C5      1.394   .     D
C1     H98     1.081   .     S
C1     C145    1.401   .     S
C2     C6      1.394   .     D
C2     H97     1.081   .     S
C2     C146    1.401   .     S
C3     C7      1.394   .     D
C3     H100    1.081   .     S
C3     C147    1.401   .     S
C4     C8      1.394   .     D
C4     H99     1.081   .     S
C4     C148    1.401   .     S
C5     H102    1.082   .     S
C5     C149    1.399   .     S
C6     H101    1.082   .     S
C6     C150    1.399   .     S
C7     H104    1.082   .     S
C7     C151    1.399   .     S
C8     H103    1.082   .     S
C8     C152    1.399   .     S
C9     C13     1.394   .     D
C9     H106    1.080   .     S
C9     C157    1.401   .     S
C10    C14     1.394   .     D
C10    H105    1.080   .     S
C10    C158    1.401   .     S
C11    C15     1.394   .     D
C11    H108    1.080   .     S
C11    C159    1.401   .     S
C12    C16     1.394   .     D
C12    H107    1.080   .     S
C12    C160    1.401   .     S
C13    H110    1.081   .     S
C13    C161    1.413   .     S
C14    H109    1.081   .     S
C14    C162    1.413   .     S
C15    H112    1.081   .     S
C15    C163    1.413   .     S
C16    H111    1.081   .     S
C16    C164    1.413   .     S
C17    C21     1.396   .     S
C17    C182    1.401   .     D
C17    H330    1.080   .     S
C18    C22     1.396   .     S
C18    C181    1.401   1_556 D
C18    H329    1.080   .     S
C19    C23     1.396   .     S
C19    C184    1.401   1_556 D
C19    H332    1.080   .     S
C20    C24     1.396   .     S
C20    C183    1.401   .     D
C20    H331    1.080   .     S
C21    C186    1.402   .     D
C21    H334    1.082   .     S
C22    C185    1.402   1_556 D
C22    H333    1.082   .     S
C23    C188    1.402   1_556 D
C23    H336    1.082   .     S
C24    C187    1.402   .     D
C24    H335    1.082   .     S
C25    C29     1.396   .     S
C25    C194    1.394   .     D
C25    H338    1.079   .     S
C26    C30     1.396   .     S
C26    C193    1.394   .     D
C26    H337    1.080   .     S
C27    C31     1.396   .     S
C27    C196    1.394   .     D
C27    H340    1.079   .     S
C28    C32     1.396   .     S
C28    C195    1.394   .     D
C28    H339    1.079   .     S
C29    C198    1.408   .     D
C29    H342    1.081   .     S
C30    C197    1.408   .     D
C30    H341    1.081   .     S
C31    C200    1.408   .     D
C31    H344    1.081   .     S
C32    C199    1.408   .     D
C32    H343    1.081   .     S
H33    C66     1.083   .     S
H34    C65     1.083   .     S
H35    C68     1.083   .     S
H36    C67     1.083   .     S
H37    C70     1.080   .     S
H38    C69     1.080   .     S
H39    C72     1.080   .     S
H40    C71     1.080   .     S
H41    C74     1.081   .     S
H42    C73     1.081   .     S
H43    C76     1.081   .     S
H44    C75     1.081   .     S
H45    C78     1.082   .     S
H46    C77     1.082   .     S
H47    C80     1.082   .     S
H48    C79     1.082   .     S
H49    C298    1.083   .     S
H50    C297    1.083   .     S
H51    C300    1.083   .     S
H52    C299    1.083   .     S
H53    C302    1.080   .     S
H54    C301    1.080   .     S
H55    C304    1.080   .     S
H56    C303    1.080   .     S
H57    C306    1.078   .     S
H58    C305    1.078   .     S
H59    C308    1.078   .     S
H60    C307    1.078   .     S
H61    C310    1.080   .     S
H62    C309    1.080   .     S
H63    C312    1.080   .     S
H64    C311    1.080   .     S
C65    C69     1.394   .     S
C65    C147    1.400   .     D
C66    C70     1.394   .     S
C66    C148    1.400   .     D
C67    C71     1.394   .     S
C67    C145    1.400   .     D
C68    C72     1.394   .     S
C68    C146    1.400   .     D
C69    C151    1.404   .     D
C70    C152    1.404   .     D
C71    C149    1.404   .     D
C72    C150    1.404   .     D
C73    C77     1.394   .     S
C73    C159    1.393   .     D
C74    C78     1.394   .     S
C74    C160    1.393   .     D
C75    C79     1.394   .     S
C75    C157    1.393   .     D
C76    C80     1.394   .     S
C76    C158    1.393   .     D
C77    C163    1.411   .     D
C78    C164    1.411   .     D
C79    C161    1.411   .     D
C80    C162    1.411   .     D
C81    C85     1.396   .     S
C81    H266    1.081   .     S
C81    C400    1.400   1_556 D
C82    C86     1.396   .     S
C82    H265    1.081   .     S
C82    C399    1.400   .     D
C83    C87     1.396   .     S
C83    H268    1.081   .     S
C83    C398    1.400   .     D
C84    C88     1.396   .     S
C84    H267    1.081   .     S
C84    C397    1.400   1_556 D
C85    H270    1.082   .     S
C85    C404    1.402   1_556 D
C86    H269    1.082   .     S
C86    C403    1.402   .     D
C87    H272    1.082   .     S
C87    C402    1.402   .     D
C88    H271    1.082   .     S
C88    C401    1.402   1_556 D
C89    C93     1.397   .     D
C89    H274    1.080   .     S
C89    C412    1.393   .     S
C90    C94     1.397   .     D
C90    H273    1.080   .     S
C90    C411    1.393   .     S
C91    C95     1.397   .     D
C91    H276    1.080   .     S
C91    C410    1.393   .     S
C92    C96     1.397   .     D
C92    H275    1.080   .     S
C92    C409    1.393   .     S
C93    H278    1.080   .     S
C93    C416    1.410   .     S
C94    H277    1.080   .     S
C94    C415    1.410   .     S
C95    H280    1.080   .     S
C95    C414    1.410   .     S
C96    H279    1.080   .     S
C96    C413    1.410   .     S
H113   C234    1.083   1_545 S
H114   C233    1.083   1_565 S
H115   C236    1.083   1_565 S
H116   C235    1.083   1_545 S
H117   C238    1.080   .     S
H118   C237    1.080   .     S
H119   C240    1.080   .     S
H120   C239    1.080   .     S
H121   C242    1.078   .     S
H122   C241    1.078   .     S
H123   C244    1.078   .     S
H124   C243    1.078   .     S
H125   C246    1.081   .     S
H126   C245    1.081   .     S
H127   C248    1.081   .     S
H128   C247    1.081   .     S
C129   H209    1.082   .     S
C129   C367    1.471   .     S
C129   N371    1.297   .     D
C130   H210    1.082   .     S
C130   C368    1.471   .     S
C130   N372    1.297   .     D
C131   H211    1.082   .     S
C131   C365    1.471   .     S
C131   N369    1.297   .     D
C132   H212    1.082   .     S
C132   C366    1.471   .     S
C132   N370    1.297   .     D
C133   C188    1.474   .     S
C133   N192    1.299   1_554 D
C133   H213    1.079   .     S
C134   C187    1.474   .     S
C134   N191    1.299   .     D
C134   H214    1.079   .     S
C135   C186    1.474   .     S
C135   N190    1.299   .     D
C135   H215    1.079   .     S
C136   C185    1.474   .     S
C136   N189    1.299   1_554 D
C136   H216    1.079   .     S
C137   C141    1.408   .     S
C137   C168    1.458   .     S
C137   N445    1.347   .     D
C138   C142    1.408   .     S
C138   C167    1.458   .     S
C138   N446    1.347   1_554 D
C139   C143    1.408   .     S
C139   C166    1.458   .     S
C139   N447    1.347   1_554 D
C140   C144    1.408   .     S
C140   C165    1.458   .     S
C140   N448    1.347   .     D
C141   C145    1.480   .     S
C141   C449    1.409   .     D
C142   C146    1.480   .     S
C142   C450    1.409   .     D
C143   C147    1.480   .     S
C143   C451    1.409   .     D
C144   C148    1.480   .     S
C144   C452    1.409   .     D
C149   C347    1.471   .     S
C150   C348    1.471   .     S
C151   C345    1.471   .     S
C152   C346    1.471   .     S
N153   C157    1.430   .     S
N153   C347    1.297   .     D
N154   C158    1.430   .     S
N154   C348    1.297   .     D
N155   C159    1.430   .     S
N155   C345    1.297   .     D
N156   C160    1.430   .     S
N156   C346    1.297   .     D
C161   C436    1.542   .     S
C162   C435    1.542   .     S
C163   C434    1.542   .     S
C164   C433    1.542   .     S
C165   C381    1.317   .     D
C165   H385    1.078   .     S
C166   C382    1.317   1_554 D
C166   H386    1.078   .     S
C167   C383    1.317   1_554 D
C167   H387    1.078   .     S
C168   C384    1.317   .     D
C168   H388    1.078   .     S
H169   C381    1.078   .     S
H170   C382    1.078   .     S
H171   C383    1.078   .     S
H172   C384    1.078   .     S
C173   C177    1.463   .     S
C173   C204    1.405   .     S
C173   N506    1.347   1_655 D
C174   C178    1.463   .     S
C174   C203    1.405   .     D
C174   N505    1.347   .     S
C175   C179    1.463   .     S
C175   C202    1.405   .     S
C175   N505    1.347   1_655 D
C176   C180    1.463   .     S
C176   C201    1.405   .     D
C176   N506    1.347   .     S
C177   C180    1.313   1_655 D
C177   H205    1.080   .     S
C178   C179    1.313   1_455 D
C178   H206    1.080   .     S
C179   C178    1.313   1_655 D
C179   H207    1.080   .     S
C180   C177    1.313   1_455 D
C180   H208    1.080   .     S
C181   C18     1.401   1_554 D
C181   C204    1.479   .     S
C181   C300    1.398   .     S
C182   C203    1.479   .     S
C182   C299    1.398   .     S
C183   C202    1.479   .     S
C183   C298    1.398   .     S
C184   C19     1.401   1_554 D
C184   C201    1.479   .     S
C184   C297    1.398   .     S
C185   C22     1.402   1_554 D
C185   C304    1.402   .     S
C186   C303    1.402   .     S
C187   C302    1.402   .     S
C188   C23     1.402   1_554 D
C188   C301    1.402   .     S
N189   C136    1.299   1_556 D
N189   C193    1.434   .     S
N190   C194    1.434   .     S
N191   C195    1.434   .     S
N192   C133    1.299   1_556 D
N192   C196    1.434   .     S
C193   C308    1.402   1_556 S
C194   C307    1.402   .     S
C195   C306    1.402   .     S
C196   C305    1.402   1_556 S
C197   C312    1.410   1_556 S
C197   C433    1.542   .     S
C198   C311    1.410   .     S
C198   C434    1.542   .     S
C199   C310    1.410   .     S
C199   C435    1.542   .     S
C200   C309    1.410   1_556 S
C200   C436    1.542   .     S
C201   C475    1.414   .     S
C202   C476    1.414   .     D
C203   C473    1.414   .     S
C204   C474    1.414   .     D
C217   C221    1.395   .     D
C217   H314    1.082   .     S
C217   C361    1.400   .     S
C218   C222    1.395   .     S
C218   H313    1.082   .     S
C218   C362    1.400   .     D
C219   C223    1.395   .     S
C219   H316    1.082   .     S
C219   C363    1.400   .     D
C220   C224    1.395   .     D
C220   H315    1.082   .     S
C220   C364    1.400   .     S
C221   H318    1.080   .     S
C221   C365    1.404   .     S
C222   H317    1.080   .     S
C222   C366    1.404   .     D
C223   H320    1.080   .     S
C223   C367    1.404   .     D
C224   H319    1.080   .     S
C224   C368    1.404   .     S
C225   C229    1.395   .     D
C225   H322    1.081   .     S
C225   C373    1.394   .     S
C226   C230    1.395   .     D
C226   H321    1.081   .     S
C226   C374    1.394   .     S
C227   C231    1.395   .     D
C227   H324    1.081   .     S
C227   C375    1.394   .     S
C228   C232    1.395   .     D
C228   H323    1.081   .     S
C228   C376    1.394   .     S
C229   H326    1.081   .     S
C229   C377    1.412   .     S
C230   H325    1.081   .     S
C230   C378    1.412   .     S
C231   H328    1.081   .     S
C231   C379    1.412   .     S
C232   H327    1.081   .     S
C232   C380    1.412   .     S
C233   H114    1.083   1_545 S
C233   C237    1.394   .     D
C233   C398    1.397   .     S
C234   H113    1.083   1_565 S
C234   C238    1.394   .     D
C234   C397    1.397   .     S
C235   H116    1.083   1_565 S
C235   C239    1.394   .     D
C235   C400    1.397   .     S
C236   H115    1.083   1_545 S
C236   C240    1.394   .     D
C236   C399    1.397   .     S
C237   C402    1.402   .     S
C238   C401    1.402   .     S
C239   C404    1.402   .     S
C240   C403    1.402   .     S
C241   C245    1.395   .     S
C241   C410    1.401   .     D
C242   C246    1.395   .     S
C242   C409    1.401   1_554 D
C243   C247    1.395   .     S
C243   C412    1.401   1_554 D
C244   C248    1.395   .     S
C244   C411    1.401   .     D
C245   C414    1.409   .     D
C246   C413    1.409   1_554 D
C247   C416    1.409   1_554 D
C248   C415    1.409   .     D
H249   C282    1.081   .     S
H250   C281    1.081   .     S
H251   C284    1.081   .     S
H252   C283    1.081   .     S
H253   C286    1.081   .     S
H254   C285    1.081   .     S
H255   C288    1.081   .     S
H256   C287    1.081   .     S
H257   C290    1.079   .     S
H258   C289    1.079   .     S
H259   C292    1.079   .     S
H260   C291    1.079   .     S
H261   C294    1.082   .     S
H262   C293    1.082   .     S
H263   C296    1.082   .     S
H264   C295    1.082   .     S
C281   C285    1.392   .     D
C281   C363    1.401   .     S
C282   C286    1.392   .     S
C282   C364    1.401   .     D
C283   C287    1.392   .     S
C283   C361    1.401   .     D
C284   C288    1.392   .     D
C284   C362    1.401   .     S
C285   C367    1.397   .     S
C286   C368    1.397   .     D
C287   C365    1.397   .     D
C288   C366    1.397   .     S
C289   C293    1.392   .     S
C289   C375    1.402   .     D
C290   C294    1.392   .     S
C290   C376    1.402   .     D
C291   C295    1.392   .     S
C291   C373    1.402   .     D
C292   C296    1.392   .     S
C292   C374    1.402   .     D
C293   C379    1.411   .     D
C294   C380    1.411   .     D
C295   C377    1.411   .     D
C296   C378    1.411   .     D
C297   C301    1.394   .     D
C298   C302    1.394   .     D
C299   C303    1.394   .     D
C300   C304    1.394   .     D
C305   C196    1.402   1_554 S
C305   C309    1.395   .     D
C306   C310    1.395   .     D
C307   C311    1.395   .     D
C308   C193    1.402   1_554 S
C308   C312    1.395   .     D
C309   C200    1.410   1_554 S
C312   C197    1.410   1_554 S
C345   H425    1.083   .     S
C346   H426    1.083   .     S
C347   H427    1.083   .     S
C348   H428    1.083   .     S
C349   C404    1.473   .     S
C349   N408    1.299   1_554 D
C349   H429    1.080   .     S
C350   C403    1.473   .     S
C350   N407    1.299   .     D
C350   H430    1.080   .     S
C351   C402    1.473   .     S
C351   N406    1.299   .     D
C351   H431    1.080   .     S
C352   C401    1.473   .     S
C352   N405    1.299   1_554 D
C352   H432    1.080   .     S
C353   C357    1.407   .     D
C353   C384    1.458   .     S
C353   N445    1.347   .     S
C354   C358    1.407   .     D
C354   C383    1.458   .     S
C354   N446    1.347   .     S
C355   C359    1.407   .     D
C355   C382    1.458   .     S
C355   N447    1.347   .     S
C356   C360    1.407   .     D
C356   C381    1.458   .     S
C356   N448    1.347   .     S
C357   C361    1.480   .     S
C357   C457    1.407   .     S
C358   C362    1.480   .     S
C358   C458    1.407   .     S
C359   C363    1.480   .     S
C359   C459    1.407   .     S
C360   C364    1.480   .     S
C360   C460    1.407   .     S
N369   C373    1.431   .     S
N370   C374    1.431   .     S
N371   C375    1.431   .     S
N372   C376    1.431   .     S
C377   C436    1.542   1_554 S
C378   C435    1.542   .     S
C379   C434    1.542   .     S
C380   C433    1.542   1_554 S
C382   C166    1.317   1_556 D
C383   C167    1.317   1_556 D
C389   C393    1.463   1_545 S
C389   C420    1.405   .     S
C389   N508    1.346   1_655 D
C390   C394    1.463   1_565 S
C390   C419    1.405   .     D
C390   N507    1.346   .     S
C391   C395    1.463   1_565 S
C391   C418    1.405   .     S
C391   N507    1.346   1_655 D
C392   C396    1.463   1_545 S
C392   C417    1.405   .     D
C392   N508    1.346   .     S
C393   C389    1.463   1_565 S
C393   C396    1.313   1_655 D
C393   H421    1.080   .     S
C394   C390    1.463   1_545 S
C394   C395    1.313   1_455 D
C394   H422    1.080   .     S
C395   C394    1.313   1_655 D
C395   C391    1.463   1_545 S
C395   H423    1.080   .     S
C396   C393    1.313   1_455 D
C396   C392    1.463   1_565 S
C396   H424    1.080   .     S
C397   C84     1.400   1_554 D
C397   C420    1.478   1_565 S
C398   C419    1.478   1_545 S
C399   C418    1.478   1_545 S
C400   C81     1.400   1_554 D
C400   C417    1.478   1_565 S
C401   C88     1.402   1_554 D
C404   C85     1.402   1_554 D
N405   C352    1.299   1_556 D
N405   C409    1.433   .     S
N406   C410    1.433   .     S
N407   C411    1.433   .     S
N408   C349    1.299   1_556 D
N408   C412    1.433   .     S
C409   C242    1.401   1_556 D
C412   C243    1.401   1_556 D
C413   C246    1.409   1_556 D
C413   C433    1.542   .     S
C414   C434    1.542   .     S
C415   C435    1.542   .     S
C416   C247    1.409   1_556 D
C416   C436    1.542   .     S
C417   C400    1.478   1_545 S
C417   C483    1.413   .     S
C418   C399    1.478   1_565 S
C418   C484    1.413   .     D
C419   C398    1.478   1_565 S
C419   C481    1.413   .     S
C420   C397    1.478   1_545 S
C420   C482    1.413   .     D
C433   C380    1.542   1_556 S
C436   C377    1.542   1_556 S
N437   H441    1.031   .     S
N437   C474    1.348   .     S
N437   C482    1.348   .     S
N438   H442    1.031   .     S
N438   C473    1.348   .     S
N438   C481    1.348   .     S
N439   H443    1.031   .     S
N439   C476    1.348   .     S
N439   C484    1.348   .     S
N440   H444    1.031   .     S
N440   C475    1.348   .     S
N440   C483    1.348   .     S
N446   C138    1.347   1_556 D
N447   C139    1.347   1_556 D
C449   C453    1.383   .     S
C449   N501    1.345   .     S
C450   C454    1.383   .     S
C450   N502    1.345   .     S
C451   C455    1.383   .     S
C451   N502    1.345   .     S
C452   C456    1.383   .     S
C452   N501    1.345   .     S
C453   C456    1.372   .     D
C453   H469    1.079   .     S
C454   C455    1.372   .     D
C454   H470    1.079   .     S
C455   H471    1.079   .     S
C456   H472    1.079   .     S
C457   C461    1.383   .     D
C457   N497    1.345   .     S
C458   C462    1.383   .     D
C458   N498    1.345   .     S
C459   C463    1.383   .     D
C459   N498    1.345   .     S
C460   C464    1.383   .     D
C460   N497    1.345   .     S
C461   C464    1.370   .     S
C461   H465    1.079   .     S
C462   C463    1.370   .     S
C462   H466    1.079   .     S
C463   H467    1.079   .     S
C464   H468    1.079   .     S
C473   C477    1.380   .     D
C474   C478    1.380   1_554 S
C475   C479    1.380   1_554 D
C476   C480    1.380   .     S
C477   C485    1.377   .     S
C477   H489    1.079   .     S
C478   C474    1.380   1_556 S
C478   C486    1.377   .     D
C478   H490    1.079   .     S
C479   C475    1.380   1_556 D
C479   C487    1.377   .     S
C479   H491    1.079   .     S
C480   C488    1.377   .     D
C480   H492    1.079   .     S
C481   C485    1.380   .     D
C482   C486    1.380   1_554 S
C483   C487    1.380   1_554 D
C484   C488    1.380   .     S
C485   H493    1.079   .     S
C486   C482    1.380   1_556 S
C486   H494    1.079   .     S
C487   C483    1.380   1_556 D
C487   H495    1.079   .     S
C488   H496    1.079   .     S
N497   H499    1.036   .     S
N498   H500    1.036   .     S
N501   H503    1.036   .     S
N502   H504    1.036   .     S
N505   C175    1.347   1_455 D
N506   C173    1.347   1_455 D
N507   C391    1.346   1_455 D
N508   C389    1.346   1_455 D
