data_191
_audit_creation_date              2023-09-08
_audit_creation_method            'Materials Studio'
_symmetry_space_group_name_H-M    'P1'
_symmetry_Int_Tables_number       1
_symmetry_cell_setting            triclinic
loop_
_symmetry_equiv_pos_as_xyz
  x,y,z
_cell_length_a                    50.3000
_cell_length_b                    50.3000
_cell_length_c                    3.9000
_cell_angle_alpha                 90.0000
_cell_angle_beta                  90.0000
_cell_angle_gamma                 90.0000
loop_
_atom_site_label
_atom_site_type_symbol
_atom_site_fract_x
_atom_site_fract_y
_atom_site_fract_z
_atom_site_U_iso_or_equiv
_atom_site_adp_type
_atom_site_occupancy
C1     C    -0.52459  -0.36180   0.26972   0.00000  Uiso   1.00
C2     C    -0.54397  -0.34243   0.26946   0.00000  Uiso   1.00
C3     C    -0.53664  -0.38587   0.38492   0.00000  Uiso   1.00
C4     C    -0.56804  -0.35447   0.38446   0.00000  Uiso   1.00
N5     N    -0.56385  -0.38168   0.43397   0.00000  Uiso   1.00
C6     C    -0.53655  -0.43263   0.55969   0.00000  Uiso   1.00
C7     C    -0.52446  -0.45696   0.67390   0.00000  Uiso   1.00
C8     C    -0.54367  -0.47619   0.67297   0.00000  Uiso   1.00
C9     C    -0.56798  -0.46409   0.55841   0.00000  Uiso   1.00
N10    N    -0.56385  -0.43678   0.51397   0.00000  Uiso   1.00
C11    C    -0.61472  -0.46398   0.38259   0.00000  Uiso   1.00
C12    C    -0.63877  -0.47602   0.26649   0.00000  Uiso   1.00
C13    C    -0.65815  -0.45664   0.26618   0.00000  Uiso   1.00
C14    C    -0.64613  -0.43258   0.38208   0.00000  Uiso   1.00
N15    N    -0.61893  -0.43677   0.43223   0.00000  Uiso   1.00
C16    C    -0.64628  -0.38582   0.55690   0.00000  Uiso   1.00
C17    C    -0.65841  -0.36149   0.67059   0.00000  Uiso   1.00
C18    C    -0.63918  -0.34227   0.67156   0.00000  Uiso   1.00
C19    C    -0.61483  -0.35437   0.55823   0.00000  Uiso   1.00
N20    N    -0.61896  -0.38168   0.51297   0.00000  Uiso   1.00
Cu21   Cu   -0.59140  -0.40923   0.47436   0.00000  Uiso   1.00
C22    C    -0.66027  -0.40908   0.46974   0.00000  Uiso   1.00
C23    C    -0.59122  -0.47810   0.47097   0.00000  Uiso   1.00
C24    C    -0.52253  -0.40938   0.47318   0.00000  Uiso   1.00
C25    C    -0.59157  -0.34036   0.47208   0.00000  Uiso   1.00
H26    H    -0.67894  -0.45953   0.19326   0.00000  Uiso   1.00
H27    H    -0.64165  -0.49681   0.19387   0.00000  Uiso   1.00
H28    H    -0.54078  -0.49701   0.74487   0.00000  Uiso   1.00
H29    H    -0.50366  -0.45984   0.74692   0.00000  Uiso   1.00
H30    H    -0.50378  -0.35891   0.19769   0.00000  Uiso   1.00
H31    H    -0.54107  -0.32163   0.19715   0.00000  Uiso   1.00
H32    H    -0.64208  -0.32146   0.74400   0.00000  Uiso   1.00
H33    H    -0.67924  -0.35860   0.74182   0.00000  Uiso   1.00
C34    C    -0.49286  -0.40931   0.47413   0.00000  Uiso   1.00
C35    C    -0.47821  -0.43018   0.31990   0.00000  Uiso   1.00
C36    C    -0.47828  -0.38838   0.62815   0.00000  Uiso   1.00
C37    C    -0.45052  -0.43004   0.32251   0.00000  Uiso   1.00
H38    H    -0.48857  -0.44647   0.18813   0.00000  Uiso   1.00
C39    C    -0.45059  -0.38844   0.62646   0.00000  Uiso   1.00
H40    H    -0.48871  -0.37207   0.75877   0.00000  Uiso   1.00
C41    C    -0.43630  -0.40924   0.47479   0.00000  Uiso   1.00
H42    H    -0.43865  -0.44581   0.20151   0.00000  Uiso   1.00
H43    H    -0.43880  -0.37263   0.74754   0.00000  Uiso   1.00
B44    B    -0.40656  -0.40924   0.47505   0.00000  Uiso   1.00
O45    O    -0.39089  -0.42980   0.34526   0.00000  Uiso   1.00
O46    O    -0.39087  -0.38871   0.60505   0.00000  Uiso   1.00
C47    C    -0.36469  -0.42187   0.39595   0.00000  Uiso   1.00
C48    C    -0.36468  -0.39667   0.55449   0.00000  Uiso   1.00
C49    C    -0.34141  -0.43570   0.30862   0.00000  Uiso   1.00
C50    C    -0.34138  -0.38287   0.64172   0.00000  Uiso   1.00
C51    C    -0.31812  -0.42189   0.39574   0.00000  Uiso   1.00
H52    H    -0.34142  -0.45523   0.18374   0.00000  Uiso   1.00
C53    C    -0.31811  -0.39669   0.55431   0.00000  Uiso   1.00
H54    H    -0.34137  -0.36334   0.76646   0.00000  Uiso   1.00
O55    O    -0.29194  -0.42984   0.34479   0.00000  Uiso   1.00
O56    O    -0.29191  -0.38876   0.60467   0.00000  Uiso   1.00
B57    B    -0.27624  -0.40930   0.47449   0.00000  Uiso   1.00
C58    C    -0.24649  -0.40928   0.47379   0.00000  Uiso   1.00
C59    C    -0.23222  -0.43003   0.32105   0.00000  Uiso   1.00
C60    C    -0.23227  -0.38847   0.62597   0.00000  Uiso   1.00
C61    C    -0.20453  -0.43007   0.31821   0.00000  Uiso   1.00
H62    H    -0.24403  -0.44584   0.19995   0.00000  Uiso   1.00
C63    C    -0.20458  -0.38831   0.62754   0.00000  Uiso   1.00
H64    H    -0.24412  -0.37273   0.74774   0.00000  Uiso   1.00
C65    C    -0.18994  -0.40915   0.47228   0.00000  Uiso   1.00
H66    H    -0.19412  -0.44634   0.18659   0.00000  Uiso   1.00
H67    H    -0.19421  -0.37202   0.75926   0.00000  Uiso   1.00
C68    C    -0.59129  -0.50777   0.47121   0.00000  Uiso   1.00
C69    C    -0.61223  -0.52237   0.62456   0.00000  Uiso   1.00
C70    C    -0.57041  -0.52240   0.31690   0.00000  Uiso   1.00
C71    C    -0.61216  -0.55006   0.62215   0.00000  Uiso   1.00
H72    H    -0.62856  -0.51197   0.75521   0.00000  Uiso   1.00
C73    C    -0.57054  -0.55009   0.31869   0.00000  Uiso   1.00
H74    H    -0.55410  -0.51202   0.18574   0.00000  Uiso   1.00
C75    C    -0.59136  -0.56433   0.47033   0.00000  Uiso   1.00
H76    H    -0.62798  -0.56188   0.74272   0.00000  Uiso   1.00
H77    H    -0.55476  -0.56193   0.19759   0.00000  Uiso   1.00
B78    B    -0.59136  -0.59407   0.46990   0.00000  Uiso   1.00
O79    O    -0.61190  -0.60976   0.59964   0.00000  Uiso   1.00
O80    O    -0.57082  -0.60974   0.33987   0.00000  Uiso   1.00
C81    C    -0.60396  -0.63595   0.54879   0.00000  Uiso   1.00
C82    C    -0.57876  -0.63594   0.39028   0.00000  Uiso   1.00
C83    C    -0.61777  -0.65924   0.63590   0.00000  Uiso   1.00
C84    C    -0.56494  -0.65922   0.30287   0.00000  Uiso   1.00
C85    C    -0.60396  -0.68252   0.54851   0.00000  Uiso   1.00
H86    H    -0.63730  -0.65924   0.76072   0.00000  Uiso   1.00
C87    C    -0.57875  -0.68251   0.38997   0.00000  Uiso   1.00
H88    H    -0.54541  -0.65922   0.17808   0.00000  Uiso   1.00
O89    O    -0.61189  -0.70871   0.59915   0.00000  Uiso   1.00
O90    O    -0.57081  -0.70870   0.33931   0.00000  Uiso   1.00
B91    B    -0.59135  -0.72439   0.46923   0.00000  Uiso   1.00
C92    C    -0.59134  -0.75414   0.46946   0.00000  Uiso   1.00
C93    C    -0.61211  -0.76840   0.62203   0.00000  Uiso   1.00
C94    C    -0.57055  -0.76837   0.31705   0.00000  Uiso   1.00
C95    C    -0.61218  -0.79609   0.62456   0.00000  Uiso   1.00
H96    H    -0.62790  -0.75658   0.74321   0.00000  Uiso   1.00
C97    C    -0.57043  -0.79606   0.31513   0.00000  Uiso   1.00
H98    H    -0.55480  -0.75653   0.19536   0.00000  Uiso   1.00
C99    C    -0.59127  -0.81069   0.47033   0.00000  Uiso   1.00
H100   H    -0.62846  -0.80649   0.75608   0.00000  Uiso   1.00
H101   H    -0.55415  -0.80644   0.18318   0.00000  Uiso   1.00
C102   C    -0.68994  -0.40917   0.46954   0.00000  Uiso   1.00
C103   C    -0.70457  -0.38833   0.31446   0.00000  Uiso   1.00
C104   C    -0.70453  -0.43010   0.62333   0.00000  Uiso   1.00
C105   C    -0.73226  -0.38848   0.31592   0.00000  Uiso   1.00
H106   H    -0.69420  -0.37203   0.18297   0.00000  Uiso   1.00
C107   C    -0.73222  -0.43006   0.62046   0.00000  Uiso   1.00
H108   H    -0.69413  -0.44639   0.75472   0.00000  Uiso   1.00
C109   C    -0.74649  -0.40930   0.46792   0.00000  Uiso   1.00
H110   H    -0.74411  -0.37274   0.19426   0.00000  Uiso   1.00
H111   H    -0.74403  -0.44587   0.74133   0.00000  Uiso   1.00
B112   B    -0.77624  -0.40931   0.46728   0.00000  Uiso   1.00
O113   O    -0.79191  -0.38876   0.33718   0.00000  Uiso   1.00
O114   O    -0.79194  -0.42985   0.59697   0.00000  Uiso   1.00
C115   C    -0.81811  -0.39670   0.38756   0.00000  Uiso   1.00
C116   C    -0.81812  -0.42190   0.54608   0.00000  Uiso   1.00
C117   C    -0.84138  -0.38287   0.30023   0.00000  Uiso   1.00
C118   C    -0.84141  -0.43570   0.63321   0.00000  Uiso   1.00
C119   C    -0.86467  -0.39668   0.38738   0.00000  Uiso   1.00
H120   H    -0.84137  -0.36334   0.17546   0.00000  Uiso   1.00
C121   C    -0.86469  -0.42188   0.54587   0.00000  Uiso   1.00
H122   H    -0.84142  -0.45524   0.75800   0.00000  Uiso   1.00
O123   O    -0.89086  -0.38872   0.33679   0.00000  Uiso   1.00
O124   O    -0.89089  -0.42981   0.59649   0.00000  Uiso   1.00
B125   B    -0.90656  -0.40925   0.46669   0.00000  Uiso   1.00
C126   C    -0.93630  -0.40925   0.46690   0.00000  Uiso   1.00
C127   C    -0.95060  -0.38845   0.31541   0.00000  Uiso   1.00
C128   C    -0.95051  -0.43007   0.61900   0.00000  Uiso   1.00
C129   C    -0.97828  -0.38838   0.31379   0.00000  Uiso   1.00
H130   H    -0.93880  -0.37263   0.19441   0.00000  Uiso   1.00
C131   C    -0.97821  -0.43020   0.62164   0.00000  Uiso   1.00
H132   H    -0.93864  -0.44584   0.73979   0.00000  Uiso   1.00
C133   C    -0.99286  -0.40932   0.46767   0.00000  Uiso   1.00
H134   H    -0.98871  -0.37206   0.18336   0.00000  Uiso   1.00
H135   H    -0.98856  -0.44651   0.75323   0.00000  Uiso   1.00
C136   C    -0.59149  -0.31069   0.47264   0.00000  Uiso   1.00
C137   C    -0.57058  -0.29611   0.62703   0.00000  Uiso   1.00
C138   C    -0.61232  -0.29604   0.31764   0.00000  Uiso   1.00
C139   C    -0.57063  -0.26842   0.62487   0.00000  Uiso   1.00
H140   H    -0.55430  -0.30653   0.75836   0.00000  Uiso   1.00
C141   C    -0.61219  -0.26835   0.31992   0.00000  Uiso   1.00
H142   H    -0.62861  -0.30640   0.18556   0.00000  Uiso   1.00
C143   C    -0.59139  -0.25413   0.47251   0.00000  Uiso   1.00
H144   H    -0.55483  -0.25662   0.74623   0.00000  Uiso   1.00
H145   H    -0.62793  -0.25649   0.19841   0.00000  Uiso   1.00
B146   B    -0.59139  -0.22439   0.47256   0.00000  Uiso   1.00
O147   O    -0.57086  -0.20870   0.60259   0.00000  Uiso   1.00
O148   O    -0.61194  -0.20871   0.34274   0.00000  Uiso   1.00
C149   C    -0.57881  -0.18251   0.55205   0.00000  Uiso   1.00
C150   C    -0.60401  -0.18252   0.39351   0.00000  Uiso   1.00
C151   C    -0.56500  -0.15923   0.63933   0.00000  Uiso   1.00
C152   C    -0.61783  -0.15923   0.30628   0.00000  Uiso   1.00
C153   C    -0.57882  -0.13595   0.55208   0.00000  Uiso   1.00
H154   H    -0.54547  -0.15923   0.76410   0.00000  Uiso   1.00
C155   C    -0.60402  -0.13595   0.39356   0.00000  Uiso   1.00
H156   H    -0.63736  -0.15923   0.18146   0.00000  Uiso   1.00
O157   O    -0.57088  -0.10975   0.60269   0.00000  Uiso   1.00
O158   O    -0.61196  -0.10975   0.34292   0.00000  Uiso   1.00
B159   B    -0.59142  -0.09407   0.47277   0.00000  Uiso   1.00
C160   C    -0.59142  -0.06432   0.47277   0.00000  Uiso   1.00
C161   C    -0.57062  -0.05004   0.62436   0.00000  Uiso   1.00
C162   C    -0.61225  -0.05011   0.32095   0.00000  Uiso   1.00
C163   C    -0.57057  -0.02235   0.62638   0.00000  Uiso   1.00
H164   H    -0.55480  -0.06184   0.74513   0.00000  Uiso   1.00
C165   C    -0.61239  -0.02242   0.31877   0.00000  Uiso   1.00
H166   H    -0.62802  -0.06197   0.20008   0.00000  Uiso   1.00
C167   C    -0.59152  -0.00776   0.47285   0.00000  Uiso   1.00
H168   H    -0.55425  -0.01193   0.75695   0.00000  Uiso   1.00
H169   H    -0.62871  -0.01206   0.18754   0.00000  Uiso   1.00
C170   C    -0.16027  -0.40906   0.47210   0.00000  Uiso   1.00
C171   C    -0.14628  -0.38580   0.38521   0.00000  Uiso   1.00
C172   C    -0.14613  -0.43258   0.55938   0.00000  Uiso   1.00
C173   C    -0.15841  -0.36147   0.27177   0.00000  Uiso   1.00
N174   N    -0.11896  -0.38166   0.42926   0.00000  Uiso   1.00
C175   C    -0.15815  -0.45665   0.67485   0.00000  Uiso   1.00
N176   N    -0.11893  -0.43677   0.50908   0.00000  Uiso   1.00
C177   C    -0.13918  -0.34224   0.27121   0.00000  Uiso   1.00
H178   H    -0.17924  -0.35857   0.20059   0.00000  Uiso   1.00
C179   C    -0.11483  -0.35435   0.38444   0.00000  Uiso   1.00
C180   C    -0.13878  -0.47602   0.67410   0.00000  Uiso   1.00
H181   H    -0.17894  -0.45954   0.74800   0.00000  Uiso   1.00
C182   C    -0.11473  -0.46398   0.55823   0.00000  Uiso   1.00
H183   H    -0.14208  -0.32142   0.19931   0.00000  Uiso   1.00
C184   C    -0.09157  -0.34035   0.47085   0.00000  Uiso   1.00
H185   H    -0.14166  -0.49683   0.74641   0.00000  Uiso   1.00
C186   C    -0.09123  -0.47810   0.46974   0.00000  Uiso   1.00
C187   C    -0.06804  -0.35448   0.55818   0.00000  Uiso   1.00
C188   C    -0.06799  -0.46408   0.38241   0.00000  Uiso   1.00
C189   C    -0.04397  -0.34245   0.67328   0.00000  Uiso   1.00
N190   N    -0.06386  -0.38168   0.50818   0.00000  Uiso   1.00
C191   C    -0.04368  -0.47617   0.26764   0.00000  Uiso   1.00
N192   N    -0.06385  -0.43677   0.42731   0.00000  Uiso   1.00
C193   C    -0.02459  -0.36182   0.67256   0.00000  Uiso   1.00
H194   H    -0.04107  -0.32165   0.74613   0.00000  Uiso   1.00
C195   C    -0.03664  -0.38588   0.55710   0.00000  Uiso   1.00
C196   C    -0.02446  -0.45694   0.26715   0.00000  Uiso   1.00
H197   H    -0.04080  -0.49699   0.19544   0.00000  Uiso   1.00
C198   C    -0.03655  -0.43263   0.38174   0.00000  Uiso   1.00
H199   H    -0.00378  -0.35893   0.74467   0.00000  Uiso   1.00
C200   C    -0.02253  -0.40938   0.46864   0.00000  Uiso   1.00
H201   H    -0.00366  -0.45982   0.19433   0.00000  Uiso   1.00
Cu202  Cu   -0.09140  -0.40922   0.46738   0.00000  Uiso   1.00
C203   C    -0.59121  -0.84035   0.47021   0.00000  Uiso   1.00
C204   C    -0.56795  -0.85437   0.55674   0.00000  Uiso   1.00
C205   C    -0.61474  -0.85447   0.38305   0.00000  Uiso   1.00
C206   C    -0.54361  -0.84227   0.67010   0.00000  Uiso   1.00
N207   N    -0.56383  -0.88168   0.51213   0.00000  Uiso   1.00
C208   C    -0.63881  -0.84243   0.26808   0.00000  Uiso   1.00
N209   N    -0.61894  -0.88167   0.43323   0.00000  Uiso   1.00
C210   C    -0.52439  -0.86151   0.66997   0.00000  Uiso   1.00
H211   H    -0.54070  -0.82145   0.74185   0.00000  Uiso   1.00
C212   C    -0.53652  -0.88583   0.55649   0.00000  Uiso   1.00
C213   C    -0.65821  -0.86179   0.26923   0.00000  Uiso   1.00
H214   H    -0.64170  -0.82164   0.19508   0.00000  Uiso   1.00
C215   C    -0.64616  -0.88585   0.38467   0.00000  Uiso   1.00
H216   H    -0.50356  -0.85862   0.74162   0.00000  Uiso   1.00
C217   C    -0.52253  -0.90909   0.46946   0.00000  Uiso   1.00
H218   H    -0.67902  -0.85889   0.19762   0.00000  Uiso   1.00
C219   C    -0.66027  -0.90936   0.47303   0.00000  Uiso   1.00
C220   C    -0.53667  -0.93260   0.38200   0.00000  Uiso   1.00
C221   C    -0.64626  -0.93261   0.55972   0.00000  Uiso   1.00
C222   C    -0.52466  -0.95667   0.26633   0.00000  Uiso   1.00
N223   N    -0.56388  -0.93678   0.43254   0.00000  Uiso   1.00
C224   C    -0.65836  -0.95693   0.67415   0.00000  Uiso   1.00
N225   N    -0.61895  -0.93676   0.51436   0.00000  Uiso   1.00
C226   C    -0.54404  -0.97605   0.26744   0.00000  Uiso   1.00
H227   H    -0.50389  -0.95957   0.19282   0.00000  Uiso   1.00
C228   C    -0.56808  -0.96399   0.38356   0.00000  Uiso   1.00
C229   C    -0.63913  -0.97616   0.67400   0.00000  Uiso   1.00
H230   H    -0.67917  -0.95980   0.74664   0.00000  Uiso   1.00
C231   C    -0.61482  -0.96407   0.55941   0.00000  Uiso   1.00
H232   H    -0.54116  -0.99685   0.19528   0.00000  Uiso   1.00
C233   C    -0.59158  -0.97810   0.47223   0.00000  Uiso   1.00
H234   H    -0.64202  -0.99697   0.74638   0.00000  Uiso   1.00
Cu235  Cu   -0.59140  -0.90923   0.47413   0.00000  Uiso   1.00
C236   C    -0.09128  -0.50776   0.46913   0.00000  Uiso   1.00
C237   C    -0.11222  -0.52235   0.31549   0.00000  Uiso   1.00
C238   C    -0.07039  -0.52240   0.62318   0.00000  Uiso   1.00
C239   C    -0.11214  -0.55004   0.31741   0.00000  Uiso   1.00
H240   H    -0.12854  -0.51194   0.18503   0.00000  Uiso   1.00
C241   C    -0.07051  -0.55009   0.62090   0.00000  Uiso   1.00
H242   H    -0.05408  -0.51203   0.75454   0.00000  Uiso   1.00
C243   C    -0.09133  -0.56432   0.46900   0.00000  Uiso   1.00
H244   H    -0.12796  -0.56185   0.19662   0.00000  Uiso   1.00
H245   H    -0.05474  -0.56195   0.74177   0.00000  Uiso   1.00
B246   B    -0.09133  -0.59406   0.46903   0.00000  Uiso   1.00
O247   O    -0.11188  -0.60975   0.33921   0.00000  Uiso   1.00
O248   O    -0.07079  -0.60974   0.59895   0.00000  Uiso   1.00
C249   C    -0.10393  -0.63595   0.38990   0.00000  Uiso   1.00
C250   C    -0.07873  -0.63594   0.54841   0.00000  Uiso   1.00
C251   C    -0.11774  -0.65923   0.30269   0.00000  Uiso   1.00
C252   C    -0.06491  -0.65922   0.63574   0.00000  Uiso   1.00
C253   C    -0.10393  -0.68251   0.39005   0.00000  Uiso   1.00
H254   H    -0.13728  -0.65923   0.17792   0.00000  Uiso   1.00
C255   C    -0.07872  -0.68251   0.54859   0.00000  Uiso   1.00
H256   H    -0.04538  -0.65922   0.76056   0.00000  Uiso   1.00
O257   O    -0.11187  -0.70871   0.33962   0.00000  Uiso   1.00
O258   O    -0.07079  -0.70870   0.59946   0.00000  Uiso   1.00
B259   B    -0.09133  -0.72439   0.46972   0.00000  Uiso   1.00
C260   C    -0.09135  -0.75413   0.47018   0.00000  Uiso   1.00
C261   C    -0.11216  -0.76834   0.31779   0.00000  Uiso   1.00
C262   C    -0.07060  -0.76842   0.62277   0.00000  Uiso   1.00
C263   C    -0.11231  -0.79604   0.31592   0.00000  Uiso   1.00
H264   H    -0.12789  -0.75648   0.19613   0.00000  Uiso   1.00
C265   C    -0.07057  -0.79611   0.62536   0.00000  Uiso   1.00
H266   H    -0.05479  -0.75662   0.74400   0.00000  Uiso   1.00
C267   C    -0.09149  -0.81069   0.47110   0.00000  Uiso   1.00
H268   H    -0.12861  -0.80640   0.18403   0.00000  Uiso   1.00
H269   H    -0.05430  -0.80653   0.75695   0.00000  Uiso   1.00
C270   C    -0.09149  -0.31069   0.47064   0.00000  Uiso   1.00
C271   C    -0.11232  -0.29604   0.62579   0.00000  Uiso   1.00
C272   C    -0.07057  -0.29611   0.31638   0.00000  Uiso   1.00
C273   C    -0.11216  -0.26834   0.62392   0.00000  Uiso   1.00
H274   H    -0.12861  -0.30639   0.75769   0.00000  Uiso   1.00
C275   C    -0.07060  -0.26841   0.31895   0.00000  Uiso   1.00
H276   H    -0.05430  -0.30653   0.18482   0.00000  Uiso   1.00
C277   C    -0.09135  -0.25413   0.47156   0.00000  Uiso   1.00
H278   H    -0.12789  -0.25648   0.74559   0.00000  Uiso   1.00
H279   H    -0.05479  -0.25662   0.19772   0.00000  Uiso   1.00
B280   B    -0.09133  -0.22439   0.47203   0.00000  Uiso   1.00
O281   O    -0.11187  -0.20871   0.60213   0.00000  Uiso   1.00
O282   O    -0.07079  -0.20869   0.34228   0.00000  Uiso   1.00
C283   C    -0.10393  -0.18251   0.55169   0.00000  Uiso   1.00
C284   C    -0.07873  -0.18250   0.39315   0.00000  Uiso   1.00
C285   C    -0.11775  -0.15923   0.63905   0.00000  Uiso   1.00
C286   C    -0.06492  -0.15922   0.30600   0.00000  Uiso   1.00
C287   C    -0.10394  -0.13595   0.55185   0.00000  Uiso   1.00
H288   H    -0.13728  -0.15924   0.76382   0.00000  Uiso   1.00
C289   C    -0.07873  -0.13594   0.39333   0.00000  Uiso   1.00
H290   H    -0.04539  -0.15921   0.18118   0.00000  Uiso   1.00
O291   O    -0.11188  -0.10975   0.60256   0.00000  Uiso   1.00
O292   O    -0.07080  -0.10974   0.34282   0.00000  Uiso   1.00
B293   B    -0.09134  -0.09406   0.47272   0.00000  Uiso   1.00
C294   C    -0.09134  -0.06432   0.47277   0.00000  Uiso   1.00
C295   C    -0.11215  -0.05004   0.62433   0.00000  Uiso   1.00
C296   C    -0.07052  -0.05009   0.32087   0.00000  Uiso   1.00
C297   C    -0.11223  -0.02235   0.62628   0.00000  Uiso   1.00
H298   H    -0.12797  -0.06185   0.74513   0.00000  Uiso   1.00
C299   C    -0.07040  -0.02240   0.31859   0.00000  Uiso   1.00
H300   H    -0.05475  -0.06195   0.19997   0.00000  Uiso   1.00
C301   C    -0.09129  -0.00776   0.47267   0.00000  Uiso   1.00
H302   H    -0.12855  -0.01194   0.75674   0.00000  Uiso   1.00
H303   H    -0.05409  -0.01203   0.18721   0.00000  Uiso   1.00
C304   C    -0.09157  -0.84035   0.47090   0.00000  Uiso   1.00
C305   C    -0.11484  -0.85435   0.55731   0.00000  Uiso   1.00
C306   C    -0.06805  -0.85448   0.38356   0.00000  Uiso   1.00
C307   C    -0.13918  -0.84224   0.67051   0.00000  Uiso   1.00
N308   N    -0.11897  -0.88166   0.51249   0.00000  Uiso   1.00
C309   C    -0.04397  -0.84245   0.26846   0.00000  Uiso   1.00
N310   N    -0.06386  -0.88168   0.43354   0.00000  Uiso   1.00
C311   C    -0.15841  -0.86146   0.66995   0.00000  Uiso   1.00
H312   H    -0.14208  -0.82142   0.74241   0.00000  Uiso   1.00
C313   C    -0.14628  -0.88580   0.55654   0.00000  Uiso   1.00
C314   C    -0.02459  -0.86182   0.26918   0.00000  Uiso   1.00
H315   H    -0.04108  -0.82166   0.19562   0.00000  Uiso   1.00
C316   C    -0.03664  -0.88588   0.38464   0.00000  Uiso   1.00
H317   H    -0.17924  -0.85856   0.74115   0.00000  Uiso   1.00
C318   C    -0.16028  -0.90906   0.46964   0.00000  Uiso   1.00
H319   H    -0.00379  -0.85893   0.19710   0.00000  Uiso   1.00
C320   C    -0.02253  -0.90938   0.47315   0.00000  Uiso   1.00
C321   C    -0.14614  -0.93258   0.38236   0.00000  Uiso   1.00
C322   C    -0.03655  -0.93263   0.56003   0.00000  Uiso   1.00
C323   C    -0.15816  -0.95664   0.26687   0.00000  Uiso   1.00
N324   N    -0.11893  -0.93677   0.43264   0.00000  Uiso   1.00
C325   C    -0.02446  -0.95694   0.67464   0.00000  Uiso   1.00
N326   N    -0.06386  -0.93677   0.51444   0.00000  Uiso   1.00
C327   C    -0.13878  -0.97602   0.26764   0.00000  Uiso   1.00
H328   H    -0.17894  -0.95954   0.19374   0.00000  Uiso   1.00
C329   C    -0.11473  -0.96398   0.38351   0.00000  Uiso   1.00
C330   C    -0.04369  -0.97617   0.67413   0.00000  Uiso   1.00
H331   H    -0.00366  -0.95982   0.74749   0.00000  Uiso   1.00
C332   C    -0.06799  -0.96408   0.55933   0.00000  Uiso   1.00
H333   H    -0.14166  -0.99683   0.19533   0.00000  Uiso   1.00
C334   C    -0.09123  -0.97810   0.47203   0.00000  Uiso   1.00
H335   H    -0.04080  -0.99699   0.74636   0.00000  Uiso   1.00
C336   C    -0.49287  -0.90920   0.46926   0.00000  Uiso   1.00
C337   C    -0.47828  -0.93014   0.62282   0.00000  Uiso   1.00
C338   C    -0.47822  -0.88835   0.31441   0.00000  Uiso   1.00
C339   C    -0.45059  -0.93011   0.61997   0.00000  Uiso   1.00
H340   H    -0.48869  -0.94643   0.75408   0.00000  Uiso   1.00
C341   C    -0.45053  -0.88851   0.31590   0.00000  Uiso   1.00
H342   H    -0.48859  -0.87203   0.18308   0.00000  Uiso   1.00
C343   C    -0.43631  -0.90934   0.46767   0.00000  Uiso   1.00
H344   H    -0.43878  -0.94594   0.74074   0.00000  Uiso   1.00
H345   H    -0.43867  -0.87277   0.19446   0.00000  Uiso   1.00
B346   B    -0.40657  -0.90936   0.46708   0.00000  Uiso   1.00
O347   O    -0.39087  -0.92990   0.59682   0.00000  Uiso   1.00
O348   O    -0.39089  -0.88882   0.33697   0.00000  Uiso   1.00
C349   C    -0.36468  -0.92195   0.54597   0.00000  Uiso   1.00
C350   C    -0.36469  -0.89675   0.38741   0.00000  Uiso   1.00
C351   C    -0.34139  -0.93576   0.63323   0.00000  Uiso   1.00
C352   C    -0.34141  -0.88293   0.30010   0.00000  Uiso   1.00
C353   C    -0.31812  -0.92194   0.54600   0.00000  Uiso   1.00
H354   H    -0.34138  -0.95529   0.75810   0.00000  Uiso   1.00
C355   C    -0.31812  -0.89673   0.38741   0.00000  Uiso   1.00
H356   H    -0.34142  -0.86340   0.17533   0.00000  Uiso   1.00
O357   O    -0.29192  -0.92986   0.59690   0.00000  Uiso   1.00
O358   O    -0.29193  -0.88878   0.33700   0.00000  Uiso   1.00
B359   B    -0.27624  -0.90931   0.46718   0.00000  Uiso   1.00
C360   C    -0.24650  -0.90928   0.46787   0.00000  Uiso   1.00
C361   C    -0.23222  -0.93003   0.62064   0.00000  Uiso   1.00
C362   C    -0.23227  -0.88847   0.31569   0.00000  Uiso   1.00
C363   C    -0.20453  -0.93007   0.62354   0.00000  Uiso   1.00
H364   H    -0.24403  -0.94584   0.74169   0.00000  Uiso   1.00
C365   C    -0.20458  -0.88831   0.31418   0.00000  Uiso   1.00
H366   H    -0.24412  -0.87273   0.19387   0.00000  Uiso   1.00
C367   C    -0.18994  -0.90915   0.46949   0.00000  Uiso   1.00
H368   H    -0.19412  -0.94634   0.75518   0.00000  Uiso   1.00
H369   H    -0.19421  -0.87202   0.18249   0.00000  Uiso   1.00
C370   C    -0.68994  -0.90928   0.47397   0.00000  Uiso   1.00
C371   C    -0.70460  -0.93014   0.31951   0.00000  Uiso   1.00
C372   C    -0.70451  -0.88836   0.62823   0.00000  Uiso   1.00
C373   C    -0.73229  -0.93000   0.32218   0.00000  Uiso   1.00
H374   H    -0.69425  -0.94643   0.18759   0.00000  Uiso   1.00
C375   C    -0.73220  -0.88841   0.62656   0.00000  Uiso   1.00
H376   H    -0.69408  -0.87206   0.75903   0.00000  Uiso   1.00
C377   C    -0.74650  -0.90919   0.47469   0.00000  Uiso   1.00
H378   H    -0.74417  -0.94575   0.20108   0.00000  Uiso   1.00
H379   H    -0.74398  -0.87260   0.74790   0.00000  Uiso   1.00
B380   B    -0.77624  -0.90920   0.47500   0.00000  Uiso   1.00
O381   O    -0.79192  -0.92975   0.34523   0.00000  Uiso   1.00
O382   O    -0.79193  -0.88867   0.60500   0.00000  Uiso   1.00
C383   C    -0.81811  -0.92183   0.39597   0.00000  Uiso   1.00
C384   C    -0.81812  -0.89662   0.55449   0.00000  Uiso   1.00
C385   C    -0.84139  -0.93564   0.30874   0.00000  Uiso   1.00
C386   C    -0.84141  -0.88282   0.64172   0.00000  Uiso   1.00
C387   C    -0.86468  -0.92184   0.39597   0.00000  Uiso   1.00
H388   H    -0.84139  -0.95518   0.18395   0.00000  Uiso   1.00
C389   C    -0.86469  -0.89664   0.55446   0.00000  Uiso   1.00
H390   H    -0.84142  -0.86328   0.76646   0.00000  Uiso   1.00
O391   O    -0.89088  -0.92978   0.34528   0.00000  Uiso   1.00
O392   O    -0.89088  -0.88870   0.60500   0.00000  Uiso   1.00
B393   B    -0.90657  -0.90924   0.47508   0.00000  Uiso   1.00
C394   C    -0.93631  -0.90925   0.47485   0.00000  Uiso   1.00
C395   C    -0.95052  -0.93007   0.32274   0.00000  Uiso   1.00
C396   C    -0.95060  -0.88845   0.62633   0.00000  Uiso   1.00
C397   C    -0.97821  -0.93020   0.32015   0.00000  Uiso   1.00
H398   H    -0.93865  -0.94584   0.20195   0.00000  Uiso   1.00
C399   C    -0.97829  -0.88838   0.62797   0.00000  Uiso   1.00
H400   H    -0.93881  -0.87263   0.74731   0.00000  Uiso   1.00
C401   C    -0.99287  -0.90932   0.47413   0.00000  Uiso   1.00
H402   H    -0.98856  -0.94651   0.18856   0.00000  Uiso   1.00
H403   H    -0.98872  -0.87206   0.75841   0.00000  Uiso   1.00
Cu404  Cu   -0.09141  -0.90922   0.47433   0.00000  Uiso   1.00
loop_
_geom_bond_atom_site_label_1
_geom_bond_atom_site_label_2
_geom_bond_distance
_geom_bond_site_symmetry_2
_ccdc_geom_bond_type
C1     C2      1.378   .     D
C1     C3      1.427   .     S
C1     H30     1.093   .     S
C2     C4      1.426   .     S
C2     H31     1.093   .     S
C3     N5      1.398   .     D
C3     C24     1.421   .     S
C4     N5      1.398   .     S
C4     C25     1.422   .     D
N5     Cu21    1.966   .     S
C6     C7      1.437   .     S
C6     N10     1.400   .     S
C6     C24     1.407   .     D
C7     C8      1.367   .     D
C7     H29     1.094   .     S
C8     C9      1.437   .     S
C8     H28     1.094   .     S
C9     N10     1.400   .     D
C9     C23     1.407   .     S
N10    Cu21    1.966   .     S
C11    C12     1.427   .     S
C11    N15     1.398   .     S
C11    C23     1.421   .     D
C12    C13     1.379   .     D
C12    H27     1.093   .     S
C13    C14     1.426   .     S
C13    H26     1.093   .     S
C14    N15     1.398   .     D
C14    C22     1.421   .     S
N15    Cu21    1.966   .     S
C16    C17     1.438   .     S
C16    N20     1.400   .     S
C16    C22     1.407   .     D
C17    C18     1.368   .     D
C17    H33     1.094   .     S
C18    C19     1.437   .     S
C18    H32     1.094   .     S
C19    N20     1.400   .     D
C19    C25     1.407   .     S
N20    Cu21    1.966   .     S
C22    C102    1.492   .     S
C23    C68     1.492   .     S
C24    C34     1.492   .     S
C25    C136    1.492   .     S
C34    C35     1.417   .     D
C34    C36     1.417   .     S
C35    C37     1.393   .     S
C35    H38     1.099   .     S
C36    C39     1.393   .     D
C36    H40     1.099   .     S
C37    C41     1.400   .     D
C37    H42     1.099   .     S
C39    C41     1.400   .     S
C39    H43     1.099   .     S
C41    B44     1.496   .     S
B44    O45     1.395   .     S
B44    O46     1.395   .     S
O45    C47     1.391   .     S
O46    C48     1.391   .     S
C47    C48     1.410   .     D
C47    C49     1.404   .     S
C48    C50     1.404   .     S
C49    C51     1.404   .     D
C49    H52     1.096   .     S
C50    C53     1.403   .     D
C50    H54     1.096   .     S
C51    C53     1.410   .     S
C51    O55     1.391   .     S
C53    O56     1.391   .     S
O55    B57     1.395   .     S
O56    B57     1.395   .     S
B57    C58     1.496   .     S
C58    C59     1.400   .     S
C58    C60     1.400   .     D
C59    C61     1.393   .     D
C59    H62     1.099   .     S
C60    C63     1.393   .     S
C60    H64     1.099   .     S
C61    C65     1.417   .     S
C61    H66     1.099   .     S
C63    C65     1.417   .     D
C63    H67     1.099   .     S
C65    C170    1.492   .     S
C68    C69     1.416   .     D
C68    C70     1.417   .     S
C69    C71     1.393   .     S
C69    H72     1.099   .     S
C70    C73     1.393   .     D
C70    H74     1.099   .     S
C71    C75     1.400   .     D
C71    H76     1.099   .     S
C73    C75     1.400   .     S
C73    H77     1.099   .     S
C75    B78     1.496   .     S
B78    O79     1.395   .     S
B78    O80     1.395   .     S
O79    C81     1.391   .     S
O80    C82     1.391   .     S
C81    C82     1.410   .     D
C81    C83     1.404   .     S
C82    C84     1.404   .     S
C83    C85     1.404   .     D
C83    H86     1.096   .     S
C84    C87     1.404   .     D
C84    H88     1.096   .     S
C85    C87     1.411   .     S
C85    O89     1.391   .     S
C87    O90     1.391   .     S
O89    B91     1.395   .     S
O90    B91     1.395   .     S
B91    C92     1.496   .     S
C92    C93     1.400   .     S
C92    C94     1.400   .     D
C93    C95     1.393   .     D
C93    H96     1.099   .     S
C94    C97     1.393   .     S
C94    H98     1.099   .     S
C95    C99     1.417   .     S
C95    H100    1.099   .     S
C97    C99     1.417   .     D
C97    H101    1.099   .     S
C99    C203    1.492   .     S
C102   C103    1.416   .     S
C102   C104    1.417   .     D
C103   C105    1.393   .     D
C103   H106    1.099   .     S
C104   C107    1.393   .     S
C104   H108    1.099   .     S
C105   C109    1.400   .     S
C105   H110    1.099   .     S
C107   C109    1.400   .     D
C107   H111    1.099   .     S
C109   B112    1.496   .     S
B112   O113    1.395   .     S
B112   O114    1.395   .     S
O113   C115    1.391   .     S
O114   C116    1.390   .     S
C115   C116    1.410   .     D
C115   C117    1.404   .     S
C116   C118    1.403   .     S
C117   C119    1.404   .     D
C117   H120    1.096   .     S
C118   C121    1.404   .     D
C118   H122    1.097   .     S
C119   C121    1.410   .     S
C119   O123    1.391   .     S
C121   O124    1.391   .     S
O123   B125    1.395   .     S
O124   B125    1.395   .     S
B125   C126    1.496   .     S
C126   C127    1.400   .     D
C126   C128    1.400   .     S
C127   C129    1.392   .     S
C127   H130    1.099   .     S
C128   C131    1.393   .     D
C128   H132    1.099   .     S
C129   C133    1.417   .     D
C129   H134    1.099   .     S
C131   C133    1.417   .     S
C131   H135    1.099   .     S
C133   C200    1.492   1_455 S
C136   C137    1.417   .     D
C136   C138    1.416   .     S
C137   C139    1.393   .     S
C137   H140    1.099   .     S
C138   C141    1.393   .     D
C138   H142    1.099   .     S
C139   C143    1.400   .     D
C139   H144    1.099   .     S
C141   C143    1.400   .     S
C141   H145    1.099   .     S
C143   B146    1.496   .     S
B146   O147    1.395   .     S
B146   O148    1.395   .     S
O147   C149    1.391   .     S
O148   C150    1.391   .     S
C149   C150    1.410   .     D
C149   C151    1.403   .     S
C150   C152    1.404   .     S
C151   C153    1.404   .     D
C151   H154    1.096   .     S
C152   C155    1.403   .     D
C152   H156    1.096   .     S
C153   C155    1.410   .     S
C153   O157    1.391   .     S
C155   O158    1.391   .     S
O157   B159    1.395   .     S
O158   B159    1.395   .     S
B159   C160    1.496   .     S
C160   C161    1.400   .     S
C160   C162    1.400   .     D
C161   C163    1.393   .     D
C161   H164    1.099   .     S
C162   C165    1.393   .     S
C162   H166    1.099   .     S
C163   C167    1.417   .     S
C163   H168    1.099   .     S
C165   C167    1.417   .     D
C165   H169    1.099   .     S
C167   C233    1.492   1_565 S
C170   C171    1.407   .     D
C170   C172    1.422   .     S
C171   C173    1.437   .     S
C171   N174    1.400   .     S
C172   C175    1.426   .     S
C172   N176    1.398   .     D
C173   C177    1.368   .     D
C173   H178    1.094   .     S
N174   C179    1.400   .     D
N174   Cu202   1.966   .     S
C175   C180    1.378   .     D
C175   H181    1.094   .     S
N176   C182    1.398   .     S
N176   Cu202   1.966   .     S
C177   C179    1.437   .     S
C177   H183    1.094   .     S
C179   C184    1.407   .     S
C180   C182    1.426   .     S
C180   H185    1.094   .     S
C182   C186    1.422   .     D
C184   C187    1.422   .     D
C184   C270    1.492   .     S
C186   C188    1.407   .     S
C186   C236    1.492   .     S
C187   C189    1.426   .     S
C187   N190    1.398   .     S
C188   C191    1.437   .     S
C188   N192    1.400   .     D
C189   C193    1.378   .     D
C189   H194    1.094   .     S
N190   C195    1.398   .     D
N190   Cu202   1.966   .     S
C191   C196    1.368   .     D
C191   H197    1.094   .     S
N192   C198    1.400   .     S
N192   Cu202   1.966   .     S
C193   C195    1.426   .     S
C193   H199    1.094   .     S
C195   C200    1.421   .     S
C196   C198    1.437   .     S
C196   H201    1.094   .     S
C198   C200    1.407   .     D
C200   C133    1.492   1_655 S
C203   C204    1.407   .     D
C203   C205    1.422   .     S
C204   C206    1.437   .     S
C204   N207    1.400   .     S
C205   C208    1.426   .     S
C205   N209    1.398   .     D
C206   C210    1.368   .     D
C206   H211    1.094   .     S
N207   C212    1.400   .     D
N207   Cu235   1.966   .     S
C208   C213    1.379   .     D
C208   H214    1.094   .     S
N209   C215    1.398   .     S
N209   Cu235   1.966   .     S
C210   C212    1.437   .     S
C210   H216    1.094   .     S
C212   C217    1.407   .     S
C213   C215    1.426   .     S
C213   H218    1.093   .     S
C215   C219    1.422   .     D
C217   C220    1.421   .     D
C217   C336    1.492   .     S
C219   C221    1.407   .     S
C219   C370    1.492   .     S
C220   C222    1.426   .     S
C220   N223    1.399   .     S
C221   C224    1.437   .     S
C221   N225    1.401   .     D
C222   C226    1.379   .     D
C222   H227    1.093   .     S
N223   C228    1.398   .     D
N223   Cu235   1.965   .     S
C224   C229    1.368   .     D
C224   H230    1.094   .     S
N225   C231    1.400   .     S
N225   Cu235   1.965   .     S
C226   C228    1.427   .     S
C226   H232    1.093   .     S
C228   C233    1.421   .     S
C229   C231    1.437   .     S
C229   H234    1.094   .     S
C231   C233    1.407   .     D
C233   C167    1.492   1_545 S
C236   C237    1.417   .     D
C236   C238    1.417   .     S
C237   C239    1.393   .     S
C237   H240    1.099   .     S
C238   C241    1.393   .     D
C238   H242    1.099   .     S
C239   C243    1.400   .     D
C239   H244    1.099   .     S
C241   C243    1.400   .     S
C241   H245    1.099   .     S
C243   B246    1.496   .     S
B246   O247    1.396   .     S
B246   O248    1.395   .     S
O247   C249    1.391   .     S
O248   C250    1.391   .     S
C249   C250    1.410   .     D
C249   C251    1.403   .     S
C250   C252    1.404   .     S
C251   C253    1.403   .     D
C251   H254    1.097   .     S
C252   C255    1.404   .     D
C252   H256    1.096   .     S
C253   C255    1.411   .     S
C253   O257    1.391   .     S
C255   O258    1.391   .     S
O257   B259    1.395   .     S
O258   B259    1.395   .     S
B259   C260    1.496   .     S
C260   C261    1.400   .     S
C260   C262    1.400   .     D
C261   C263    1.393   .     D
C261   H264    1.099   .     S
C262   C265    1.393   .     S
C262   H266    1.099   .     S
C263   C267    1.416   .     S
C263   H268    1.099   .     S
C265   C267    1.417   .     D
C265   H269    1.099   .     S
C267   C304    1.492   .     S
C270   C271    1.417   .     D
C270   C272    1.417   .     S
C271   C273    1.393   .     S
C271   H274    1.099   .     S
C272   C275    1.393   .     D
C272   H276    1.099   .     S
C273   C277    1.400   .     D
C273   H278    1.099   .     S
C275   C277    1.400   .     S
C275   H279    1.099   .     S
C277   B280    1.496   .     S
B280   O281    1.395   .     S
B280   O282    1.395   .     S
O281   C283    1.391   .     S
O282   C284    1.391   .     S
C283   C284    1.410   .     D
C283   C285    1.404   .     S
C284   C286    1.403   .     S
C285   C287    1.403   .     D
C285   H288    1.096   .     S
C286   C289    1.403   .     D
C286   H290    1.096   .     S
C287   C289    1.411   .     S
C287   O291    1.391   .     S
C289   O292    1.391   .     S
O291   B293    1.395   .     S
O292   B293    1.395   .     S
B293   C294    1.496   .     S
C294   C295    1.400   .     S
C294   C296    1.400   .     D
C295   C297    1.393   .     D
C295   H298    1.099   .     S
C296   C299    1.393   .     S
C296   H300    1.099   .     S
C297   C301    1.417   .     S
C297   H302    1.099   .     S
C299   C301    1.417   .     D
C299   H303    1.099   .     S
C301   C334    1.492   1_565 S
C304   C305    1.407   .     D
C304   C306    1.422   .     S
C305   C307    1.437   .     S
C305   N308    1.400   .     S
C306   C309    1.426   .     S
C306   N310    1.398   .     D
C307   C311    1.368   .     D
C307   H312    1.094   .     S
N308   C313    1.400   .     D
N308   Cu404   1.966   .     S
C309   C314    1.378   .     D
C309   H315    1.093   .     S
N310   C316    1.398   .     S
N310   Cu404   1.966   .     S
C311   C313    1.438   .     S
C311   H317    1.094   .     S
C313   C318    1.407   .     S
C314   C316    1.426   .     S
C314   H319    1.093   .     S
C316   C320    1.421   .     D
C318   C321    1.422   .     D
C318   C367    1.492   .     S
C320   C322    1.407   .     S
C320   C401    1.492   1_655 S
C321   C323    1.426   .     S
C321   N324    1.399   .     S
C322   C325    1.437   .     S
C322   N326    1.401   .     D
C323   C327    1.379   .     D
C323   H328    1.093   .     S
N324   C329    1.398   .     D
N324   Cu404   1.965   .     S
C325   C330    1.368   .     D
C325   H331    1.094   .     S
N326   C332    1.400   .     S
N326   Cu404   1.966   .     S
C327   C329    1.426   .     S
C327   H333    1.094   .     S
C329   C334    1.422   .     S
C330   C332    1.437   .     S
C330   H335    1.094   .     S
C332   C334    1.407   .     D
C334   C301    1.492   1_545 S
C336   C337    1.417   .     D
C336   C338    1.417   .     S
C337   C339    1.393   .     S
C337   H340    1.099   .     S
C338   C341    1.393   .     D
C338   H342    1.099   .     S
C339   C343    1.400   .     D
C339   H344    1.099   .     S
C341   C343    1.400   .     S
C341   H345    1.099   .     S
C343   B346    1.496   .     S
B346   O347    1.395   .     S
B346   O348    1.395   .     S
O347   C349    1.391   .     S
O348   C350    1.391   .     S
C349   C350    1.410   .     D
C349   C351    1.404   .     S
C350   C352    1.404   .     S
C351   C353    1.403   .     D
C351   H354    1.096   .     S
C352   C355    1.404   .     D
C352   H356    1.096   .     S
C353   C355    1.411   .     S
C353   O357    1.391   .     S
C355   O358    1.391   .     S
O357   B359    1.395   .     S
O358   B359    1.395   .     S
B359   C360    1.496   .     S
C360   C361    1.400   .     D
C360   C362    1.400   .     S
C361   C363    1.393   .     S
C361   H364    1.099   .     S
C362   C365    1.393   .     D
C362   H366    1.099   .     S
C363   C367    1.417   .     D
C363   H368    1.099   .     S
C365   C367    1.417   .     S
C365   H369    1.099   .     S
C370   C371    1.417   .     D
C370   C372    1.416   .     S
C371   C373    1.393   .     S
C371   H374    1.099   .     S
C372   C375    1.393   .     D
C372   H376    1.099   .     S
C373   C377    1.400   .     D
C373   H378    1.099   .     S
C375   C377    1.400   .     S
C375   H379    1.099   .     S
C377   B380    1.496   .     S
B380   O381    1.395   .     S
B380   O382    1.395   .     S
O381   C383    1.390   .     S
O382   C384    1.391   .     S
C383   C384    1.411   .     D
C383   C385    1.403   .     S
C384   C386    1.404   .     S
C385   C387    1.404   .     D
C385   H388    1.097   .     S
C386   C389    1.404   .     D
C386   H390    1.097   .     S
C387   C389    1.410   .     S
C387   O391    1.391   .     S
C389   O392    1.391   .     S
O391   B393    1.395   .     S
O392   B393    1.395   .     S
B393   C394    1.496   .     S
C394   C395    1.400   .     D
C394   C396    1.400   .     S
C395   C397    1.393   .     S
C395   H398    1.099   .     S
C396   C399    1.393   .     D
C396   H400    1.099   .     S
C397   C401    1.417   .     D
C397   H402    1.099   .     S
C399   C401    1.417   .     S
C399   H403    1.099   .     S
C401   C320    1.492   1_455 S
