data_20
_audit_creation_date              2023-09-08
_audit_creation_method            'Materials Studio'
_symmetry_space_group_name_H-M    'P1'
_symmetry_Int_Tables_number       1
_symmetry_cell_setting            triclinic
loop_
_symmetry_equiv_pos_as_xyz
  x,y,z
_cell_length_a                    24.8910
_cell_length_b                    27.1822
_cell_length_c                    32.5284
_cell_angle_alpha                 90.0000
_cell_angle_beta                  90.0000
_cell_angle_gamma                 90.0000
loop_
_atom_site_label
_atom_site_type_symbol
_atom_site_fract_x
_atom_site_fract_y
_atom_site_fract_z
_atom_site_U_iso_or_equiv
_atom_site_adp_type
_atom_site_occupancy
H1     H     0.50000   0.77031   0.59142   0.00000  Uiso   1.00
H2     H     0.50000   0.59815   0.63424   0.00000  Uiso   1.00
H3     H     0.50000   0.65841   0.68367   0.00000  Uiso   1.00
H4     H     0.50000   0.75047   0.70592   0.00000  Uiso   1.00
H5     H     0.50000   0.88564   0.62173   0.00000  Uiso   1.00
H6     H     0.50000   0.96506   0.64677   0.00000  Uiso   1.00
H7     H     0.50000   0.91050   0.77194   0.00000  Uiso   1.00
H8     H     0.50000   0.17348   0.74346   0.00000  Uiso   1.00
C9     C     0.50000   0.55365   0.46168   0.00000  Uiso   1.00
C10    C     0.50000   0.60682   0.46066   0.00000  Uiso   1.00
C11    C     0.50000   0.64435   0.42277   0.00000  Uiso   1.00
C12    C     0.50000   0.73195   0.39943   0.00000  Uiso   1.00
C13    C     0.50000   0.71928   0.35813   0.00000  Uiso   1.00
C14    C     0.50000   0.75892   0.32659   0.00000  Uiso   1.00
N15    N     0.50000   0.80399   0.33983   0.00000  Uiso   1.00
C16    C     0.50000   0.85070   0.31968   0.00000  Uiso   1.00
C17    C     0.50000   0.85772   0.27713   0.00000  Uiso   1.00
C18    C     0.50000   0.89133   0.34529   0.00000  Uiso   1.00
C19    C     0.50000   0.90595   0.26114   0.00000  Uiso   1.00
C20    C     0.50000   0.93888   0.32973   0.00000  Uiso   1.00
C21    C     0.50000   0.94836   0.28704   0.00000  Uiso   1.00
C22    C     0.50000   0.30338   0.43014   0.00000  Uiso   1.00
C23    C     0.50000   0.33053   0.34833   0.00000  Uiso   1.00
C24    C     0.50000   0.52524   0.57370   0.00000  Uiso   1.00
H25    H     0.50000   0.71504   0.54087   0.00000  Uiso   1.00
C26    C     0.50000   0.63314   0.37945   0.00000  Uiso   1.00
H27    H     0.50000   0.46060   0.60325   0.00000  Uiso   1.00
H28    H     0.00000   0.27031   0.59142   0.00000  Uiso   1.00
H29    H     0.00000   0.09815   0.63424   0.00000  Uiso   1.00
H30    H     0.00000   0.15841   0.68367   0.00000  Uiso   1.00
H31    H     0.00000   0.25047   0.70592   0.00000  Uiso   1.00
H32    H     0.00000   0.38564   0.62173   0.00000  Uiso   1.00
H33    H     0.00000   0.46506   0.64677   0.00000  Uiso   1.00
H34    H     0.00000   0.41050   0.77194   0.00000  Uiso   1.00
H35    H     0.00000   0.67348   0.74346   0.00000  Uiso   1.00
C36    C     0.00000   0.05365   0.46168   0.00000  Uiso   1.00
C37    C     0.00000   0.10682   0.46066   0.00000  Uiso   1.00
C38    C     0.00000   0.14435   0.42277   0.00000  Uiso   1.00
C39    C     0.00000   0.23195   0.39943   0.00000  Uiso   1.00
C40    C     0.00000   0.21928   0.35813   0.00000  Uiso   1.00
C41    C     0.00000   0.25892   0.32659   0.00000  Uiso   1.00
N42    N     0.00000   0.30399   0.33983   0.00000  Uiso   1.00
C43    C     0.00000   0.35070   0.31968   0.00000  Uiso   1.00
C44    C     0.00000   0.35772   0.27713   0.00000  Uiso   1.00
C45    C     0.00000   0.39133   0.34529   0.00000  Uiso   1.00
C46    C     0.00000   0.40595   0.26114   0.00000  Uiso   1.00
C47    C     0.00000   0.43888   0.32973   0.00000  Uiso   1.00
C48    C     0.00000   0.44836   0.28704   0.00000  Uiso   1.00
C49    C     0.00000   0.80338   0.43014   0.00000  Uiso   1.00
C50    C     0.00000   0.83053   0.34833   0.00000  Uiso   1.00
C51    C     0.00000   0.02524   0.57370   0.00000  Uiso   1.00
H52    H     0.00000   0.21504   0.54087   0.00000  Uiso   1.00
C53    C     0.00000   0.13314   0.37945   0.00000  Uiso   1.00
H54    H     0.00000   0.96060   0.60325   0.00000  Uiso   1.00
H55    H     0.50000   0.22969   0.59142   0.00000  Uiso   1.00
H56    H     0.50000   0.40185   0.63424   0.00000  Uiso   1.00
H57    H     0.50000   0.34159   0.68367   0.00000  Uiso   1.00
H58    H     0.50000   0.24953   0.70592   0.00000  Uiso   1.00
H59    H     0.50000   0.11436   0.62173   0.00000  Uiso   1.00
H60    H     0.50000   0.03494   0.64677   0.00000  Uiso   1.00
H61    H     0.50000   0.08950   0.77194   0.00000  Uiso   1.00
H62    H     0.50000   0.82652   0.74346   0.00000  Uiso   1.00
C63    C     0.50000   0.44635   0.46168   0.00000  Uiso   1.00
C64    C     0.50000   0.39318   0.46066   0.00000  Uiso   1.00
C65    C     0.50000   0.35565   0.42277   0.00000  Uiso   1.00
C66    C     0.50000   0.26805   0.39943   0.00000  Uiso   1.00
C67    C     0.50000   0.28072   0.35813   0.00000  Uiso   1.00
C68    C     0.50000   0.24108   0.32659   0.00000  Uiso   1.00
N69    N     0.50000   0.19601   0.33983   0.00000  Uiso   1.00
C70    C     0.50000   0.14930   0.31968   0.00000  Uiso   1.00
C71    C     0.50000   0.14228   0.27713   0.00000  Uiso   1.00
C72    C     0.50000   0.10867   0.34529   0.00000  Uiso   1.00
C73    C     0.50000   0.09405   0.26114   0.00000  Uiso   1.00
C74    C     0.50000   0.06112   0.32973   0.00000  Uiso   1.00
C75    C     0.50000   0.05164   0.28704   0.00000  Uiso   1.00
C76    C     0.50000   0.69662   0.43014   0.00000  Uiso   1.00
C77    C     0.50000   0.66947   0.34833   0.00000  Uiso   1.00
C78    C     0.50000   0.47476   0.57370   0.00000  Uiso   1.00
H79    H     0.50000   0.28496   0.54087   0.00000  Uiso   1.00
C80    C     0.50000   0.36686   0.37945   0.00000  Uiso   1.00
H81    H     0.50000   0.53940   0.60325   0.00000  Uiso   1.00
H82    H     0.00000   0.72969   0.59142   0.00000  Uiso   1.00
H83    H     0.00000   0.90185   0.63424   0.00000  Uiso   1.00
H84    H     0.00000   0.84159   0.68367   0.00000  Uiso   1.00
H85    H     0.00000   0.74953   0.70592   0.00000  Uiso   1.00
H86    H     0.00000   0.61436   0.62173   0.00000  Uiso   1.00
H87    H     0.00000   0.53494   0.64677   0.00000  Uiso   1.00
H88    H     0.00000   0.58950   0.77194   0.00000  Uiso   1.00
H89    H     0.00000   0.32652   0.74346   0.00000  Uiso   1.00
C90    C     0.00000   0.94635   0.46168   0.00000  Uiso   1.00
C91    C     0.00000   0.89318   0.46066   0.00000  Uiso   1.00
C92    C     0.00000   0.85565   0.42277   0.00000  Uiso   1.00
C93    C     0.00000   0.76805   0.39943   0.00000  Uiso   1.00
C94    C     0.00000   0.78072   0.35813   0.00000  Uiso   1.00
C95    C     0.00000   0.74108   0.32659   0.00000  Uiso   1.00
N96    N     0.00000   0.69601   0.33983   0.00000  Uiso   1.00
C97    C     0.00000   0.64930   0.31968   0.00000  Uiso   1.00
C98    C     0.00000   0.64228   0.27713   0.00000  Uiso   1.00
C99    C     0.00000   0.60867   0.34529   0.00000  Uiso   1.00
C100   C     0.00000   0.59405   0.26114   0.00000  Uiso   1.00
C101   C     0.00000   0.56112   0.32973   0.00000  Uiso   1.00
C102   C     0.00000   0.55164   0.28704   0.00000  Uiso   1.00
C103   C     0.00000   0.19662   0.43014   0.00000  Uiso   1.00
C104   C     0.00000   0.16947   0.34833   0.00000  Uiso   1.00
C105   C     0.00000   0.97476   0.57370   0.00000  Uiso   1.00
H106   H     0.00000   0.78496   0.54087   0.00000  Uiso   1.00
C107   C     0.00000   0.86686   0.37945   0.00000  Uiso   1.00
H108   H     0.00000   0.03940   0.60325   0.00000  Uiso   1.00
H109   H     0.50000   0.77031   0.40858   0.00000  Uiso   1.00
H110   H     0.50000   0.59815   0.36576   0.00000  Uiso   1.00
H111   H     0.50000   0.65841   0.31633   0.00000  Uiso   1.00
H112   H     0.50000   0.75047   0.29408   0.00000  Uiso   1.00
H113   H     0.50000   0.88564   0.37827   0.00000  Uiso   1.00
H114   H     0.50000   0.96506   0.35323   0.00000  Uiso   1.00
H115   H     0.50000   0.91050   0.22806   0.00000  Uiso   1.00
H116   H     0.50000   0.17348   0.25654   0.00000  Uiso   1.00
C117   C     0.50000   0.55365   0.53832   0.00000  Uiso   1.00
C118   C     0.50000   0.60682   0.53934   0.00000  Uiso   1.00
C119   C     0.50000   0.64435   0.57723   0.00000  Uiso   1.00
C120   C     0.50000   0.73195   0.60057   0.00000  Uiso   1.00
C121   C     0.50000   0.71928   0.64187   0.00000  Uiso   1.00
C122   C     0.50000   0.75892   0.67341   0.00000  Uiso   1.00
N123   N     0.50000   0.80399   0.66017   0.00000  Uiso   1.00
C124   C     0.50000   0.85070   0.68032   0.00000  Uiso   1.00
C125   C     0.50000   0.85772   0.72287   0.00000  Uiso   1.00
C126   C     0.50000   0.89133   0.65471   0.00000  Uiso   1.00
C127   C     0.50000   0.90595   0.73886   0.00000  Uiso   1.00
C128   C     0.50000   0.93888   0.67027   0.00000  Uiso   1.00
C129   C     0.50000   0.94836   0.71296   0.00000  Uiso   1.00
C130   C     0.50000   0.30338   0.56986   0.00000  Uiso   1.00
C131   C     0.50000   0.33053   0.65167   0.00000  Uiso   1.00
C132   C     0.50000   0.52524   0.42630   0.00000  Uiso   1.00
H133   H     0.50000   0.71504   0.45913   0.00000  Uiso   1.00
C134   C     0.50000   0.63314   0.62055   0.00000  Uiso   1.00
H135   H     0.50000   0.46060   0.39675   0.00000  Uiso   1.00
H136   H     0.00000   0.27031   0.40858   0.00000  Uiso   1.00
H137   H     0.00000   0.09815   0.36576   0.00000  Uiso   1.00
H138   H     0.00000   0.15841   0.31633   0.00000  Uiso   1.00
H139   H     0.00000   0.25047   0.29408   0.00000  Uiso   1.00
H140   H     0.00000   0.38564   0.37827   0.00000  Uiso   1.00
H141   H     0.00000   0.46506   0.35323   0.00000  Uiso   1.00
H142   H     0.00000   0.41050   0.22806   0.00000  Uiso   1.00
H143   H     0.00000   0.67348   0.25654   0.00000  Uiso   1.00
C144   C     0.00000   0.05365   0.53832   0.00000  Uiso   1.00
C145   C     0.00000   0.10682   0.53934   0.00000  Uiso   1.00
C146   C     0.00000   0.14435   0.57723   0.00000  Uiso   1.00
C147   C     0.00000   0.23195   0.60057   0.00000  Uiso   1.00
C148   C     0.00000   0.21928   0.64187   0.00000  Uiso   1.00
C149   C     0.00000   0.25892   0.67341   0.00000  Uiso   1.00
N150   N     0.00000   0.30399   0.66017   0.00000  Uiso   1.00
C151   C     0.00000   0.35070   0.68032   0.00000  Uiso   1.00
C152   C     0.00000   0.35772   0.72287   0.00000  Uiso   1.00
C153   C     0.00000   0.39133   0.65471   0.00000  Uiso   1.00
C154   C     0.00000   0.40595   0.73886   0.00000  Uiso   1.00
C155   C     0.00000   0.43888   0.67027   0.00000  Uiso   1.00
C156   C     0.00000   0.44836   0.71296   0.00000  Uiso   1.00
C157   C     0.00000   0.80338   0.56986   0.00000  Uiso   1.00
C158   C     0.00000   0.83053   0.65167   0.00000  Uiso   1.00
C159   C     0.00000   0.02524   0.42630   0.00000  Uiso   1.00
H160   H     0.00000   0.21504   0.45913   0.00000  Uiso   1.00
C161   C     0.00000   0.13314   0.62055   0.00000  Uiso   1.00
H162   H     0.00000   0.96060   0.39675   0.00000  Uiso   1.00
H163   H     0.50000   0.22969   0.40858   0.00000  Uiso   1.00
H164   H     0.50000   0.40185   0.36576   0.00000  Uiso   1.00
H165   H     0.50000   0.34159   0.31633   0.00000  Uiso   1.00
H166   H     0.50000   0.24953   0.29408   0.00000  Uiso   1.00
H167   H     0.50000   0.11436   0.37827   0.00000  Uiso   1.00
H168   H     0.50000   0.03494   0.35323   0.00000  Uiso   1.00
H169   H     0.50000   0.08950   0.22806   0.00000  Uiso   1.00
H170   H     0.50000   0.82652   0.25654   0.00000  Uiso   1.00
C171   C     0.50000   0.44635   0.53832   0.00000  Uiso   1.00
C172   C     0.50000   0.39318   0.53934   0.00000  Uiso   1.00
C173   C     0.50000   0.35565   0.57723   0.00000  Uiso   1.00
C174   C     0.50000   0.26805   0.60057   0.00000  Uiso   1.00
C175   C     0.50000   0.28072   0.64187   0.00000  Uiso   1.00
C176   C     0.50000   0.24108   0.67341   0.00000  Uiso   1.00
N177   N     0.50000   0.19601   0.66017   0.00000  Uiso   1.00
C178   C     0.50000   0.14930   0.68032   0.00000  Uiso   1.00
C179   C     0.50000   0.14228   0.72287   0.00000  Uiso   1.00
C180   C     0.50000   0.10867   0.65471   0.00000  Uiso   1.00
C181   C     0.50000   0.09405   0.73886   0.00000  Uiso   1.00
C182   C     0.50000   0.06112   0.67027   0.00000  Uiso   1.00
C183   C     0.50000   0.05164   0.71296   0.00000  Uiso   1.00
C184   C     0.50000   0.69662   0.56986   0.00000  Uiso   1.00
C185   C     0.50000   0.66947   0.65167   0.00000  Uiso   1.00
C186   C     0.50000   0.47476   0.42630   0.00000  Uiso   1.00
H187   H     0.50000   0.28496   0.45913   0.00000  Uiso   1.00
C188   C     0.50000   0.36686   0.62055   0.00000  Uiso   1.00
H189   H     0.50000   0.53940   0.39675   0.00000  Uiso   1.00
H190   H     0.00000   0.72969   0.40858   0.00000  Uiso   1.00
H191   H     0.00000   0.90185   0.36576   0.00000  Uiso   1.00
H192   H     0.00000   0.84159   0.31633   0.00000  Uiso   1.00
H193   H     0.00000   0.74953   0.29408   0.00000  Uiso   1.00
H194   H     0.00000   0.61436   0.37827   0.00000  Uiso   1.00
H195   H     0.00000   0.53494   0.35323   0.00000  Uiso   1.00
H196   H     0.00000   0.58950   0.22806   0.00000  Uiso   1.00
H197   H     0.00000   0.32652   0.25654   0.00000  Uiso   1.00
C198   C     0.00000   0.94635   0.53832   0.00000  Uiso   1.00
C199   C     0.00000   0.89318   0.53934   0.00000  Uiso   1.00
C200   C     0.00000   0.85565   0.57723   0.00000  Uiso   1.00
C201   C     0.00000   0.76805   0.60057   0.00000  Uiso   1.00
C202   C     0.00000   0.78072   0.64187   0.00000  Uiso   1.00
C203   C     0.00000   0.74108   0.67341   0.00000  Uiso   1.00
N204   N     0.00000   0.69601   0.66017   0.00000  Uiso   1.00
C205   C     0.00000   0.64930   0.68032   0.00000  Uiso   1.00
C206   C     0.00000   0.64228   0.72287   0.00000  Uiso   1.00
C207   C     0.00000   0.60867   0.65471   0.00000  Uiso   1.00
C208   C     0.00000   0.59405   0.73886   0.00000  Uiso   1.00
C209   C     0.00000   0.56112   0.67027   0.00000  Uiso   1.00
C210   C     0.00000   0.55164   0.71296   0.00000  Uiso   1.00
C211   C     0.00000   0.19662   0.56986   0.00000  Uiso   1.00
C212   C     0.00000   0.16947   0.65167   0.00000  Uiso   1.00
C213   C     0.00000   0.97476   0.42630   0.00000  Uiso   1.00
H214   H     0.00000   0.78496   0.45913   0.00000  Uiso   1.00
C215   C     0.00000   0.86686   0.62055   0.00000  Uiso   1.00
H216   H     0.00000   0.03940   0.39675   0.00000  Uiso   1.00
H217   H     0.24008   0.00000   0.12539   0.00000  Uiso   1.00
H218   H     0.05707   0.00000   0.18073   0.00000  Uiso   1.00
H219   H     0.12937   0.00000   0.22560   0.00000  Uiso   1.00
H220   H     0.23035   0.00000   0.24082   0.00000  Uiso   1.00
H221   H     0.37393   0.00000   0.15257   0.00000  Uiso   1.00
H222   H     0.46162   0.00000   0.17714   0.00000  Uiso   1.00
H223   H     0.40314   0.00000   0.30259   0.00000  Uiso   1.00
H224   H     0.68849   0.00000   0.27510   0.00000  Uiso   1.00
C225   C     0.04965   0.00000   0.95476   0.00000  Uiso   1.00
C226   C     0.09535   0.00000   0.97895   0.00000  Uiso   1.00
C227   C     0.10145   0.00000   0.87947   0.00000  Uiso   1.00
C228   C     0.19926   0.00000   0.86290   0.00000  Uiso   1.00
C229   C     0.19045   0.00000   0.82079   0.00000  Uiso   1.00
C230   C     0.23680   0.00000   0.79208   0.00000  Uiso   1.00
N231   N     0.28486   0.00000   0.80768   0.00000  Uiso   1.00
C232   C     0.33660   0.00000   0.78847   0.00000  Uiso   1.00
C233   C     0.34505   0.00000   0.74598   0.00000  Uiso   1.00
C234   C     0.38064   0.00000   0.81453   0.00000  Uiso   1.00
C235   C     0.39779   0.00000   0.73046   0.00000  Uiso   1.00
C236   C     0.43291   0.00000   0.79934   0.00000  Uiso   1.00
C237   C     0.44368   0.00000   0.75669   0.00000  Uiso   1.00
C238   C     0.84302   0.00000   0.89093   0.00000  Uiso   1.00
C239   C     0.86237   0.00000   0.80712   0.00000  Uiso   1.00
C240   C     0.05118   0.00000   0.09000   0.00000  Uiso   1.00
H241   H     0.13387   0.00000   0.96794   0.00000  Uiso   1.00
H242   H     0.17439   0.00000   0.07993   0.00000  Uiso   1.00
C243   C     0.90535   0.00000   0.83524   0.00000  Uiso   1.00
H244   H     0.74008   0.50000   0.12539   0.00000  Uiso   1.00
H245   H     0.55707   0.50000   0.18073   0.00000  Uiso   1.00
H246   H     0.62937   0.50000   0.22560   0.00000  Uiso   1.00
H247   H     0.73035   0.50000   0.24082   0.00000  Uiso   1.00
H248   H     0.87393   0.50000   0.15257   0.00000  Uiso   1.00
H249   H     0.96162   0.50000   0.17714   0.00000  Uiso   1.00
H250   H     0.90314   0.50000   0.30259   0.00000  Uiso   1.00
H251   H     0.18849   0.50000   0.27510   0.00000  Uiso   1.00
C252   C     0.54965   0.50000   0.95476   0.00000  Uiso   1.00
C253   C     0.59535   0.50000   0.97895   0.00000  Uiso   1.00
C254   C     0.60145   0.50000   0.87947   0.00000  Uiso   1.00
C255   C     0.69926   0.50000   0.86290   0.00000  Uiso   1.00
C256   C     0.69045   0.50000   0.82079   0.00000  Uiso   1.00
C257   C     0.73680   0.50000   0.79208   0.00000  Uiso   1.00
N258   N     0.78486   0.50000   0.80768   0.00000  Uiso   1.00
C259   C     0.83660   0.50000   0.78847   0.00000  Uiso   1.00
C260   C     0.84505   0.50000   0.74598   0.00000  Uiso   1.00
C261   C     0.88064   0.50000   0.81453   0.00000  Uiso   1.00
C262   C     0.89779   0.50000   0.73046   0.00000  Uiso   1.00
C263   C     0.93291   0.50000   0.79934   0.00000  Uiso   1.00
C264   C     0.94368   0.50000   0.75669   0.00000  Uiso   1.00
C265   C     0.34302   0.50000   0.89093   0.00000  Uiso   1.00
C266   C     0.36237   0.50000   0.80712   0.00000  Uiso   1.00
C267   C     0.55118   0.50000   0.09000   0.00000  Uiso   1.00
H268   H     0.63387   0.50000   0.96794   0.00000  Uiso   1.00
H269   H     0.67439   0.50000   0.07993   0.00000  Uiso   1.00
C270   C     0.40535   0.50000   0.83524   0.00000  Uiso   1.00
H271   H     0.75992   0.00000   0.12539   0.00000  Uiso   1.00
H272   H     0.94293   0.00000   0.18073   0.00000  Uiso   1.00
H273   H     0.87063   0.00000   0.22560   0.00000  Uiso   1.00
H274   H     0.76965   0.00000   0.24082   0.00000  Uiso   1.00
H275   H     0.62607   0.00000   0.15257   0.00000  Uiso   1.00
H276   H     0.53838   0.00000   0.17714   0.00000  Uiso   1.00
H277   H     0.59686   0.00000   0.30259   0.00000  Uiso   1.00
H278   H     0.31151   0.00000   0.27510   0.00000  Uiso   1.00
C279   C     0.95035   0.00000   0.95476   0.00000  Uiso   1.00
C280   C     0.90465   0.00000   0.97895   0.00000  Uiso   1.00
C281   C     0.89855   0.00000   0.87947   0.00000  Uiso   1.00
C282   C     0.80074   0.00000   0.86290   0.00000  Uiso   1.00
C283   C     0.80955   0.00000   0.82079   0.00000  Uiso   1.00
C284   C     0.76320   0.00000   0.79208   0.00000  Uiso   1.00
N285   N     0.71514   0.00000   0.80768   0.00000  Uiso   1.00
C286   C     0.66340   0.00000   0.78847   0.00000  Uiso   1.00
C287   C     0.65495   0.00000   0.74598   0.00000  Uiso   1.00
C288   C     0.61936   0.00000   0.81453   0.00000  Uiso   1.00
C289   C     0.60221   0.00000   0.73046   0.00000  Uiso   1.00
C290   C     0.56709   0.00000   0.79934   0.00000  Uiso   1.00
C291   C     0.55632   0.00000   0.75669   0.00000  Uiso   1.00
C292   C     0.15698   0.00000   0.89093   0.00000  Uiso   1.00
C293   C     0.13763   0.00000   0.80712   0.00000  Uiso   1.00
C294   C     0.94882   0.00000   0.09000   0.00000  Uiso   1.00
H295   H     0.86613   0.00000   0.96794   0.00000  Uiso   1.00
H296   H     0.82561   0.00000   0.07993   0.00000  Uiso   1.00
C297   C     0.09465   0.00000   0.83524   0.00000  Uiso   1.00
H298   H     0.25992   0.50000   0.12539   0.00000  Uiso   1.00
H299   H     0.44293   0.50000   0.18073   0.00000  Uiso   1.00
H300   H     0.37063   0.50000   0.22560   0.00000  Uiso   1.00
H301   H     0.26965   0.50000   0.24082   0.00000  Uiso   1.00
H302   H     0.12607   0.50000   0.15257   0.00000  Uiso   1.00
H303   H     0.03838   0.50000   0.17714   0.00000  Uiso   1.00
H304   H     0.09686   0.50000   0.30259   0.00000  Uiso   1.00
H305   H     0.81151   0.50000   0.27510   0.00000  Uiso   1.00
C306   C     0.45035   0.50000   0.95476   0.00000  Uiso   1.00
C307   C     0.40465   0.50000   0.97895   0.00000  Uiso   1.00
C308   C     0.39855   0.50000   0.87947   0.00000  Uiso   1.00
C309   C     0.30074   0.50000   0.86290   0.00000  Uiso   1.00
C310   C     0.30955   0.50000   0.82079   0.00000  Uiso   1.00
C311   C     0.26320   0.50000   0.79208   0.00000  Uiso   1.00
N312   N     0.21514   0.50000   0.80768   0.00000  Uiso   1.00
C313   C     0.16340   0.50000   0.78847   0.00000  Uiso   1.00
C314   C     0.15495   0.50000   0.74598   0.00000  Uiso   1.00
C315   C     0.11936   0.50000   0.81453   0.00000  Uiso   1.00
C316   C     0.10221   0.50000   0.73046   0.00000  Uiso   1.00
C317   C     0.06709   0.50000   0.79934   0.00000  Uiso   1.00
C318   C     0.05632   0.50000   0.75669   0.00000  Uiso   1.00
C319   C     0.65698   0.50000   0.89093   0.00000  Uiso   1.00
C320   C     0.63763   0.50000   0.80712   0.00000  Uiso   1.00
C321   C     0.44882   0.50000   0.09000   0.00000  Uiso   1.00
H322   H     0.36613   0.50000   0.96794   0.00000  Uiso   1.00
H323   H     0.32561   0.50000   0.07993   0.00000  Uiso   1.00
C324   C     0.59465   0.50000   0.83524   0.00000  Uiso   1.00
H325   H     0.75992   0.00000   0.87461   0.00000  Uiso   1.00
H326   H     0.94293   0.00000   0.81927   0.00000  Uiso   1.00
H327   H     0.87063   0.00000   0.77440   0.00000  Uiso   1.00
H328   H     0.76965   0.00000   0.75918   0.00000  Uiso   1.00
H329   H     0.62607   0.00000   0.84743   0.00000  Uiso   1.00
H330   H     0.53838   0.00000   0.82286   0.00000  Uiso   1.00
H331   H     0.59686   0.00000   0.69741   0.00000  Uiso   1.00
H332   H     0.31151   0.00000   0.72490   0.00000  Uiso   1.00
C333   C     0.95035   0.00000   0.04524   0.00000  Uiso   1.00
C334   C     0.90465   0.00000   0.02105   0.00000  Uiso   1.00
C335   C     0.89855   0.00000   0.12053   0.00000  Uiso   1.00
C336   C     0.80074   0.00000   0.13710   0.00000  Uiso   1.00
C337   C     0.80955   0.00000   0.17921   0.00000  Uiso   1.00
C338   C     0.76320   0.00000   0.20792   0.00000  Uiso   1.00
N339   N     0.71514   0.00000   0.19232   0.00000  Uiso   1.00
C340   C     0.66340   0.00000   0.21153   0.00000  Uiso   1.00
C341   C     0.65495   0.00000   0.25402   0.00000  Uiso   1.00
C342   C     0.61936   0.00000   0.18547   0.00000  Uiso   1.00
C343   C     0.60221   0.00000   0.26954   0.00000  Uiso   1.00
C344   C     0.56709   0.00000   0.20066   0.00000  Uiso   1.00
C345   C     0.55632   0.00000   0.24331   0.00000  Uiso   1.00
C346   C     0.15698   0.00000   0.10907   0.00000  Uiso   1.00
C347   C     0.13763   0.00000   0.19288   0.00000  Uiso   1.00
C348   C     0.94882   0.00000   0.91000   0.00000  Uiso   1.00
H349   H     0.86613   0.00000   0.03206   0.00000  Uiso   1.00
H350   H     0.82561   0.00000   0.92007   0.00000  Uiso   1.00
C351   C     0.09465   0.00000   0.16476   0.00000  Uiso   1.00
H352   H     0.25992   0.50000   0.87461   0.00000  Uiso   1.00
H353   H     0.44293   0.50000   0.81927   0.00000  Uiso   1.00
H354   H     0.37063   0.50000   0.77440   0.00000  Uiso   1.00
H355   H     0.26965   0.50000   0.75918   0.00000  Uiso   1.00
H356   H     0.12607   0.50000   0.84743   0.00000  Uiso   1.00
H357   H     0.03838   0.50000   0.82286   0.00000  Uiso   1.00
H358   H     0.09686   0.50000   0.69741   0.00000  Uiso   1.00
H359   H     0.81151   0.50000   0.72490   0.00000  Uiso   1.00
C360   C     0.45035   0.50000   0.04524   0.00000  Uiso   1.00
C361   C     0.40465   0.50000   0.02105   0.00000  Uiso   1.00
C362   C     0.39855   0.50000   0.12053   0.00000  Uiso   1.00
C363   C     0.30074   0.50000   0.13710   0.00000  Uiso   1.00
C364   C     0.30955   0.50000   0.17921   0.00000  Uiso   1.00
C365   C     0.26320   0.50000   0.20792   0.00000  Uiso   1.00
N366   N     0.21514   0.50000   0.19232   0.00000  Uiso   1.00
C367   C     0.16340   0.50000   0.21153   0.00000  Uiso   1.00
C368   C     0.15495   0.50000   0.25402   0.00000  Uiso   1.00
C369   C     0.11936   0.50000   0.18547   0.00000  Uiso   1.00
C370   C     0.10221   0.50000   0.26954   0.00000  Uiso   1.00
C371   C     0.06709   0.50000   0.20066   0.00000  Uiso   1.00
C372   C     0.05632   0.50000   0.24331   0.00000  Uiso   1.00
C373   C     0.65698   0.50000   0.10907   0.00000  Uiso   1.00
C374   C     0.63763   0.50000   0.19288   0.00000  Uiso   1.00
C375   C     0.44882   0.50000   0.91000   0.00000  Uiso   1.00
H376   H     0.36613   0.50000   0.03206   0.00000  Uiso   1.00
H377   H     0.32561   0.50000   0.92007   0.00000  Uiso   1.00
C378   C     0.59465   0.50000   0.16476   0.00000  Uiso   1.00
H379   H     0.24008   0.00000   0.87461   0.00000  Uiso   1.00
H380   H     0.05707   0.00000   0.81927   0.00000  Uiso   1.00
H381   H     0.12937   0.00000   0.77440   0.00000  Uiso   1.00
H382   H     0.23035   0.00000   0.75918   0.00000  Uiso   1.00
H383   H     0.37393   0.00000   0.84743   0.00000  Uiso   1.00
H384   H     0.46162   0.00000   0.82286   0.00000  Uiso   1.00
H385   H     0.40314   0.00000   0.69741   0.00000  Uiso   1.00
H386   H     0.68849   0.00000   0.72490   0.00000  Uiso   1.00
C387   C     0.04965   0.00000   0.04524   0.00000  Uiso   1.00
C388   C     0.09535   0.00000   0.02105   0.00000  Uiso   1.00
C389   C     0.10145   0.00000   0.12053   0.00000  Uiso   1.00
C390   C     0.19926   0.00000   0.13710   0.00000  Uiso   1.00
C391   C     0.19045   0.00000   0.17921   0.00000  Uiso   1.00
C392   C     0.23680   0.00000   0.20792   0.00000  Uiso   1.00
N393   N     0.28486   0.00000   0.19232   0.00000  Uiso   1.00
C394   C     0.33660   0.00000   0.21153   0.00000  Uiso   1.00
C395   C     0.34505   0.00000   0.25402   0.00000  Uiso   1.00
C396   C     0.38064   0.00000   0.18547   0.00000  Uiso   1.00
C397   C     0.39779   0.00000   0.26954   0.00000  Uiso   1.00
C398   C     0.43291   0.00000   0.20066   0.00000  Uiso   1.00
C399   C     0.44368   0.00000   0.24331   0.00000  Uiso   1.00
C400   C     0.84302   0.00000   0.10907   0.00000  Uiso   1.00
C401   C     0.86237   0.00000   0.19288   0.00000  Uiso   1.00
C402   C     0.05118   0.00000   0.91000   0.00000  Uiso   1.00
H403   H     0.13387   0.00000   0.03206   0.00000  Uiso   1.00
H404   H     0.17439   0.00000   0.92007   0.00000  Uiso   1.00
C405   C     0.90535   0.00000   0.16476   0.00000  Uiso   1.00
H406   H     0.74008   0.50000   0.87461   0.00000  Uiso   1.00
H407   H     0.55707   0.50000   0.81927   0.00000  Uiso   1.00
H408   H     0.62937   0.50000   0.77440   0.00000  Uiso   1.00
H409   H     0.73035   0.50000   0.75918   0.00000  Uiso   1.00
H410   H     0.87393   0.50000   0.84743   0.00000  Uiso   1.00
H411   H     0.96162   0.50000   0.82286   0.00000  Uiso   1.00
H412   H     0.90314   0.50000   0.69741   0.00000  Uiso   1.00
H413   H     0.18849   0.50000   0.72490   0.00000  Uiso   1.00
C414   C     0.54965   0.50000   0.04524   0.00000  Uiso   1.00
C415   C     0.59535   0.50000   0.02105   0.00000  Uiso   1.00
C416   C     0.60145   0.50000   0.12053   0.00000  Uiso   1.00
C417   C     0.69926   0.50000   0.13710   0.00000  Uiso   1.00
C418   C     0.69045   0.50000   0.17921   0.00000  Uiso   1.00
C419   C     0.73680   0.50000   0.20792   0.00000  Uiso   1.00
N420   N     0.78486   0.50000   0.19232   0.00000  Uiso   1.00
C421   C     0.83660   0.50000   0.21153   0.00000  Uiso   1.00
C422   C     0.84505   0.50000   0.25402   0.00000  Uiso   1.00
C423   C     0.88064   0.50000   0.18547   0.00000  Uiso   1.00
C424   C     0.89779   0.50000   0.26954   0.00000  Uiso   1.00
C425   C     0.93291   0.50000   0.20066   0.00000  Uiso   1.00
C426   C     0.94368   0.50000   0.24331   0.00000  Uiso   1.00
C427   C     0.34302   0.50000   0.10907   0.00000  Uiso   1.00
C428   C     0.36237   0.50000   0.19288   0.00000  Uiso   1.00
C429   C     0.55118   0.50000   0.91000   0.00000  Uiso   1.00
H430   H     0.63387   0.50000   0.03206   0.00000  Uiso   1.00
H431   H     0.67439   0.50000   0.92007   0.00000  Uiso   1.00
C432   C     0.40535   0.50000   0.16476   0.00000  Uiso   1.00
C433   C     0.50000   0.00000   0.73489   0.00000  Uiso   1.00
C434   C     0.00000   0.50000   0.73489   0.00000  Uiso   1.00
C435   C     0.50000   0.00000   0.26511   0.00000  Uiso   1.00
C436   C     0.00000   0.50000   0.26511   0.00000  Uiso   1.00
C437   C     0.00000   0.00000   0.02281   0.00000  Uiso   1.00
C438   C     0.00000   0.00000   0.89126   0.00000  Uiso   1.00
H439   H     0.00000   0.00000   0.85989   0.00000  Uiso   1.00
C440   C     0.50000   0.50000   0.02281   0.00000  Uiso   1.00
C441   C     0.50000   0.50000   0.89126   0.00000  Uiso   1.00
H442   H     0.50000   0.50000   0.85989   0.00000  Uiso   1.00
C443   C     0.00000   0.00000   0.97719   0.00000  Uiso   1.00
C444   C     0.00000   0.00000   0.10874   0.00000  Uiso   1.00
H445   H     0.00000   0.00000   0.14011   0.00000  Uiso   1.00
C446   C     0.50000   0.50000   0.97719   0.00000  Uiso   1.00
C447   C     0.50000   0.50000   0.10874   0.00000  Uiso   1.00
H448   H     0.50000   0.50000   0.14011   0.00000  Uiso   1.00
C449   C     0.50000   0.47299   0.50000   0.00000  Uiso   1.00
C450   C     0.50000   0.37157   0.50000   0.00000  Uiso   1.00
H451   H     0.50000   0.33494   0.50000   0.00000  Uiso   1.00
C452   C     0.00000   0.97299   0.50000   0.00000  Uiso   1.00
C453   C     0.00000   0.87157   0.50000   0.00000  Uiso   1.00
H454   H     0.00000   0.83494   0.50000   0.00000  Uiso   1.00
C455   C     0.50000   0.52701   0.50000   0.00000  Uiso   1.00
C456   C     0.50000   0.62843   0.50000   0.00000  Uiso   1.00
H457   H     0.50000   0.66506   0.50000   0.00000  Uiso   1.00
C458   C     0.00000   0.02701   0.50000   0.00000  Uiso   1.00
C459   C     0.00000   0.12843   0.50000   0.00000  Uiso   1.00
H460   H     0.00000   0.16506   0.50000   0.00000  Uiso   1.00
loop_
_geom_bond_atom_site_label_1
_geom_bond_atom_site_label_2
_geom_bond_distance
_geom_bond_site_symmetry_2
_ccdc_geom_bond_type
H1     C120    1.084   .     S
H2     C134    1.050   .     S
H3     C185    1.083   .     S
H4     C122    1.082   .     S
H5     C126    1.084   .     S
H6     C128    1.044   .     S
H7     C127    1.083   .     S
H8     C179    1.081   .     S
C9     C10     1.446   .     S
C9     C132    1.386   .     S
C9     C455    1.442   .     D
C10    C11     1.600   .     S
C10    C456    1.408   .     D
C11    C26     1.442   .     D
C11    C76     1.441   .     S
C12    C13     1.387   .     S
C12    C76     1.386   .     D
C12    H109    1.084   .     S
C13    C14     1.488   .     S
C13    C77     1.391   .     D
C14    N15     1.299   .     D
C14    H112    1.082   .     S
N15    C16     1.429   .     S
C16    C17     1.397   .     D
C16    C18     1.383   .     S
C17    C19     1.410   .     S
C17    H170    1.081   .     S
C18    C20     1.388   .     D
C18    H113    1.084   .     S
C19    C21     1.428   .     D
C19    H115    1.083   .     S
C20    C21     1.412   .     S
C20    H114    1.044   .     S
C21    C435    1.575   1_565 S
C22    C65     1.441   .     D
C22    C66     1.386   .     S
C22    H187    1.068   .     S
C23    C67     1.391   .     S
C23    C80     1.414   .     D
C23    H165    1.083   .     S
C24    C78     1.372   .     D
C24    H81     1.035   .     S
C24    C117    1.386   .     S
H25    C184    1.068   .     S
C26    C77     1.414   .     S
C26    H110    1.050   .     S
H27    C78     1.035   .     S
H28    C147    1.084   .     S
H29    C161    1.050   .     S
H30    C212    1.083   .     S
H31    C149    1.082   .     S
H32    C153    1.084   .     S
H33    C155    1.044   .     S
H34    C154    1.083   .     S
H35    C206    1.081   .     S
C36    C37     1.446   .     S
C36    C159    1.386   .     S
C36    C458    1.442   .     D
C37    C38     1.600   .     S
C37    C459    1.408   .     D
C38    C53     1.442   .     D
C38    C103    1.441   .     S
C39    C40     1.387   .     S
C39    C103    1.386   .     D
C39    H136    1.084   .     S
C40    C41     1.488   .     S
C40    C104    1.391   .     D
C41    N42     1.299   .     D
C41    H139    1.082   .     S
N42    C43     1.429   .     S
C43    C44     1.397   .     D
C43    C45     1.383   .     S
C44    C46     1.410   .     S
C44    H197    1.081   .     S
C45    C47     1.388   .     D
C45    H140    1.084   .     S
C46    C48     1.428   .     D
C46    H142    1.083   .     S
C47    C48     1.412   .     S
C47    H141    1.044   .     S
C48    C436    1.575   .     S
C49    C92     1.441   .     D
C49    C93     1.386   .     S
C49    H214    1.068   .     S
C50    C94     1.391   .     S
C50    C107    1.414   .     D
C50    H192    1.083   .     S
C51    C105    1.372   1_545 D
C51    H108    1.035   .     S
C51    C144    1.386   .     S
H52    C211    1.068   .     S
C53    C104    1.414   .     S
C53    H137    1.050   .     S
H54    C105    1.035   .     S
H55    C174    1.084   .     S
H56    C188    1.050   .     S
H57    C131    1.083   .     S
H58    C176    1.082   .     S
H59    C180    1.084   .     S
H60    C182    1.044   .     S
H61    C181    1.083   .     S
H62    C125    1.081   .     S
C63    C64     1.446   .     S
C63    C186    1.386   .     S
C63    C449    1.442   .     D
C64    C65     1.600   .     S
C64    C450    1.408   .     D
C65    C80     1.442   .     S
C66    C67     1.387   .     D
C66    H163    1.084   .     S
C67    C68     1.488   .     S
C68    N69     1.299   .     D
C68    H166    1.082   .     S
N69    C70     1.429   .     S
C70    C71     1.397   .     D
C70    C72     1.383   .     S
C71    C73     1.410   .     S
C71    H116    1.081   .     S
C72    C74     1.388   .     D
C72    H167    1.084   .     S
C73    C75     1.428   .     D
C73    H169    1.083   .     S
C74    C75     1.412   .     S
C74    H168    1.044   .     S
C75    C435    1.575   .     S
C76    H133    1.068   .     S
C77    H111    1.083   .     S
C78    C171    1.386   .     S
H79    C130    1.068   .     S
C80    H164    1.050   .     S
H82    C201    1.084   .     S
H83    C215    1.050   .     S
H84    C158    1.083   .     S
H85    C203    1.082   .     S
H86    C207    1.084   .     S
H87    C209    1.044   .     S
H88    C208    1.083   .     S
H89    C152    1.081   .     S
C90    C91     1.446   .     S
C90    C213    1.386   .     S
C90    C452    1.442   .     D
C91    C92     1.600   .     S
C91    C453    1.408   .     D
C92    C107    1.442   .     S
C93    C94     1.387   .     D
C93    H190    1.084   .     S
C94    C95     1.488   .     S
C95    N96     1.299   .     D
C95    H193    1.082   .     S
N96    C97     1.429   .     S
C97    C98     1.397   .     D
C97    C99     1.383   .     S
C98    C100    1.410   .     S
C98    H143    1.081   .     S
C99    C101    1.388   .     D
C99    H194    1.084   .     S
C100   C102    1.428   .     D
C100   H196    1.083   .     S
C101   C102    1.412   .     S
C101   H195    1.044   .     S
C102   C436    1.575   .     S
C103   H160    1.068   .     S
C104   H138    1.083   .     S
C105   C51     1.372   1_565 D
C105   C198    1.386   .     S
H106   C157    1.068   .     S
C107   H191    1.050   .     S
C117   C118    1.446   .     D
C117   C455    1.442   .     S
C118   C119    1.600   .     S
C118   C456    1.408   .     S
C119   C134    1.442   .     D
C119   C184    1.441   .     S
C120   C121    1.387   .     S
C120   C184    1.386   .     D
C121   C122    1.488   .     S
C121   C185    1.391   .     D
C122   N123    1.299   .     D
N123   C124    1.429   .     S
C124   C125    1.397   .     D
C124   C126    1.383   .     S
C125   C127    1.410   .     S
C126   C128    1.388   .     D
C127   C129    1.428   .     D
C128   C129    1.412   .     S
C129   C433    1.575   1_565 S
C130   C173    1.441   .     S
C130   C174    1.386   .     D
C131   C175    1.391   .     D
C131   C188    1.414   .     S
C132   C186    1.372   .     D
C132   H189    1.035   .     S
C134   C185    1.414   .     S
H135   C186    1.035   .     S
C144   C145    1.446   .     D
C144   C458    1.442   .     S
C145   C146    1.600   .     S
C145   C459    1.408   .     S
C146   C161    1.442   .     D
C146   C211    1.441   .     S
C147   C148    1.387   .     S
C147   C211    1.386   .     D
C148   C149    1.488   .     S
C148   C212    1.391   .     D
C149   N150    1.299   .     D
N150   C151    1.429   .     S
C151   C152    1.397   .     D
C151   C153    1.383   .     S
C152   C154    1.410   .     S
C153   C155    1.388   .     D
C154   C156    1.428   .     D
C155   C156    1.412   .     S
C156   C434    1.575   .     S
C157   C200    1.441   .     S
C157   C201    1.386   .     D
C158   C202    1.391   .     D
C158   C215    1.414   .     S
C159   C213    1.372   1_545 D
C159   H216    1.035   .     S
C161   C212    1.414   .     S
H162   C213    1.035   .     S
C171   C172    1.446   .     D
C171   C449    1.442   .     S
C172   C173    1.600   .     S
C172   C450    1.408   .     S
C173   C188    1.442   .     D
C174   C175    1.387   .     S
C175   C176    1.488   .     S
C176   N177    1.299   .     D
N177   C178    1.429   .     S
C178   C179    1.397   .     S
C178   C180    1.383   .     D
C179   C181    1.410   .     D
C180   C182    1.388   .     S
C181   C183    1.428   .     S
C182   C183    1.412   .     D
C183   C433    1.575   .     S
C198   C199    1.446   .     D
C198   C452    1.442   .     S
C199   C200    1.600   .     S
C199   C453    1.408   .     S
C200   C215    1.442   .     D
C201   C202    1.387   .     S
C202   C203    1.488   .     S
C203   N204    1.299   .     D
N204   C205    1.429   .     S
C205   C206    1.397   .     S
C205   C207    1.383   .     D
C206   C208    1.410   .     D
C207   C209    1.388   .     S
C208   C210    1.428   .     S
C209   C210    1.412   .     D
C210   C434    1.575   .     S
C213   C159    1.372   1_565 D
H217   C390    1.085   .     S
H218   C351    1.070   .     S
H219   C347    1.084   .     S
H220   C392    1.082   .     S
H221   C396    1.083   .     S
H222   C398    1.047   .     S
H223   C397    1.083   .     S
H224   C341    1.080   .     S
C225   C226    1.383   .     S
C225   C402    1.456   .     D
C225   C443    1.435   .     S
C226   H241    1.024   .     S
C226   C388    1.369   1_556 D
C227   C292    1.432   .     S
C227   C297    1.449   .     D
C227   C402    1.597   .     S
C228   C229    1.387   .     S
C228   C292    1.392   .     D
C228   H379    1.085   .     S
C229   C230    1.484   .     S
C229   C293    1.388   .     D
C230   N231    1.299   .     D
C230   H382    1.082   .     S
N231   C232    1.431   .     S
C232   C233    1.398   .     S
C232   C234    1.386   .     D
C233   C235    1.406   .     D
C233   H332    1.080   .     S
C234   C236    1.392   .     S
C234   H383    1.083   .     S
C235   C237    1.426   .     S
C235   H385    1.083   .     S
C236   C237    1.413   .     D
C236   H384    1.047   .     S
C237   C433    1.571   .     S
C238   C281    1.432   .     D
C238   C282    1.392   .     S
C238   H350    1.042   .     S
C239   C243    1.408   .     D
C239   C283    1.388   .     S
C239   H327    1.084   .     S
C240   C387    1.456   .     D
C240   C389    1.597   .     S
C240   C444    1.412   .     S
H242   C346    1.042   .     S
C243   C281    1.449   .     S
C243   H326    1.070   .     S
H244   C417    1.085   .     S
H245   C378    1.070   .     S
H246   C374    1.084   .     S
H247   C419    1.082   .     S
H248   C423    1.083   .     S
H249   C425    1.047   .     S
H250   C424    1.083   .     S
H251   C368    1.080   .     S
C252   C253    1.383   .     S
C252   C429    1.456   .     D
C252   C446    1.435   .     S
C253   H268    1.024   .     S
C253   C415    1.369   1_556 D
C254   C319    1.432   .     S
C254   C324    1.449   .     D
C254   C429    1.597   .     S
C255   C256    1.387   .     S
C255   C319    1.392   .     D
C255   H406    1.085   .     S
C256   C257    1.484   .     S
C256   C320    1.388   .     D
C257   N258    1.299   .     D
C257   H409    1.082   .     S
N258   C259    1.431   .     S
C259   C260    1.398   .     S
C259   C261    1.386   .     D
C260   C262    1.406   .     D
C260   H359    1.080   .     S
C261   C263    1.392   .     S
C261   H410    1.083   .     S
C262   C264    1.426   .     S
C262   H412    1.083   .     S
C263   C264    1.413   .     D
C263   H411    1.047   .     S
C264   C434    1.571   1_655 S
C265   C308    1.432   .     D
C265   C309    1.392   .     S
C265   H377    1.042   .     S
C266   C270    1.408   .     D
C266   C310    1.388   .     S
C266   H354    1.084   .     S
C267   C414    1.456   .     D
C267   C416    1.597   .     S
C267   C447    1.412   .     S
H269   C373    1.042   .     S
C270   C308    1.449   .     S
C270   H353    1.070   .     S
H271   C336    1.085   .     S
H272   C405    1.070   .     S
H273   C401    1.084   .     S
H274   C338    1.082   .     S
H275   C342    1.083   .     S
H276   C344    1.047   .     S
H277   C343    1.083   .     S
H278   C395    1.080   .     S
C279   C280    1.383   .     S
C279   C348    1.456   .     S
C279   C443    1.435   1_655 D
C280   H295    1.024   .     S
C280   C334    1.369   1_556 D
C281   C348    1.597   .     S
C282   C283    1.387   .     D
C282   H325    1.085   .     S
C283   C284    1.484   .     S
C284   N285    1.299   .     D
C284   H328    1.082   .     S
N285   C286    1.431   .     S
C286   C287    1.398   .     D
C286   C288    1.386   .     S
C287   C289    1.406   .     S
C287   H386    1.080   .     S
C288   C290    1.392   .     D
C288   H329    1.083   .     S
C289   C291    1.426   .     D
C289   H331    1.083   .     S
C290   C291    1.413   .     S
C290   H330    1.047   .     S
C291   C433    1.571   .     S
C292   H404    1.042   .     S
C293   C297    1.408   .     S
C293   H381    1.084   .     S
C294   C333    1.456   .     S
C294   C335    1.597   .     S
C294   C444    1.412   1_655 D
H296   C400    1.042   .     S
C297   H380    1.070   .     S
H298   C363    1.085   .     S
H299   C432    1.070   .     S
H300   C428    1.084   .     S
H301   C365    1.082   .     S
H302   C369    1.083   .     S
H303   C371    1.047   .     S
H304   C370    1.083   .     S
H305   C422    1.080   .     S
C306   C307    1.383   .     S
C306   C375    1.456   .     S
C306   C446    1.435   .     D
C307   H322    1.024   .     S
C307   C361    1.369   1_556 D
C308   C375    1.597   .     S
C309   C310    1.387   .     D
C309   H352    1.085   .     S
C310   C311    1.484   .     S
C311   N312    1.299   .     D
C311   H355    1.082   .     S
N312   C313    1.431   .     S
C313   C314    1.398   .     D
C313   C315    1.386   .     S
C314   C316    1.406   .     S
C314   H413    1.080   .     S
C315   C317    1.392   .     D
C315   H356    1.083   .     S
C316   C318    1.426   .     D
C316   H358    1.083   .     S
C317   C318    1.413   .     S
C317   H357    1.047   .     S
C318   C434    1.571   .     S
C319   H431    1.042   .     S
C320   C324    1.408   .     S
C320   H408    1.084   .     S
C321   C360    1.456   .     S
C321   C362    1.597   .     S
C321   C447    1.412   .     D
H323   C427    1.042   .     S
C324   H407    1.070   .     S
C333   C334    1.383   .     S
C333   C437    1.435   1_655 D
C334   C280    1.369   1_554 D
C334   H349    1.024   .     S
C335   C400    1.432   .     D
C335   C405    1.449   .     S
C336   C337    1.387   .     D
C336   C400    1.392   .     S
C337   C338    1.484   .     S
C337   C401    1.388   .     S
C338   N339    1.299   .     D
N339   C340    1.431   .     S
C340   C341    1.398   .     D
C340   C342    1.386   .     S
C341   C343    1.406   .     S
C342   C344    1.392   .     D
C343   C345    1.426   .     D
C344   C345    1.413   .     S
C345   C435    1.571   .     S
C346   C389    1.432   .     D
C346   C390    1.392   .     S
C347   C351    1.408   .     D
C347   C391    1.388   .     S
C348   C438    1.412   1_655 D
C351   C389    1.449   .     S
C360   C361    1.383   .     S
C360   C440    1.435   .     D
C361   C307    1.369   1_554 D
C361   H376    1.024   .     S
C362   C427    1.432   .     D
C362   C432    1.449   .     S
C363   C364    1.387   .     D
C363   C427    1.392   .     S
C364   C365    1.484   .     S
C364   C428    1.388   .     S
C365   N366    1.299   .     D
N366   C367    1.431   .     S
C367   C368    1.398   .     D
C367   C369    1.386   .     S
C368   C370    1.406   .     S
C369   C371    1.392   .     D
C370   C372    1.426   .     D
C371   C372    1.413   .     S
C372   C436    1.571   .     S
C373   C416    1.432   .     D
C373   C417    1.392   .     S
C374   C378    1.408   .     D
C374   C418    1.388   .     S
C375   C441    1.412   .     D
C378   C416    1.449   .     S
C387   C388    1.383   .     S
C387   C437    1.435   .     S
C388   C226    1.369   1_554 D
C388   H403    1.024   .     S
C390   C391    1.387   .     D
C391   C392    1.484   .     S
C392   N393    1.299   .     D
N393   C394    1.431   .     S
C394   C395    1.398   .     D
C394   C396    1.386   .     S
C395   C397    1.406   .     S
C396   C398    1.392   .     D
C397   C399    1.426   .     D
C398   C399    1.413   .     S
C399   C435    1.571   .     S
C401   C405    1.408   .     D
C402   C438    1.412   .     S
C414   C415    1.383   .     S
C414   C440    1.435   .     S
C415   C253    1.369   1_554 D
C415   H430    1.024   .     S
C417   C418    1.387   .     D
C418   C419    1.484   .     S
C419   N420    1.299   .     D
N420   C421    1.431   .     S
C421   C422    1.398   .     D
C421   C423    1.386   .     S
C422   C424    1.406   .     S
C423   C425    1.392   .     D
C424   C426    1.426   .     D
C425   C426    1.413   .     S
C426   C436    1.571   1_655 S
C428   C432    1.408   .     D
C429   C441    1.412   .     S
C433   C129    1.575   1_545 S
C434   C264    1.571   1_455 S
C435   C21     1.575   1_545 S
C436   C426    1.571   1_455 S
C437   C333    1.435   1_455 D
C437   C443    1.484   1_554 S
C438   C348    1.412   1_455 D
C438   H439    1.020   .     S
C440   C446    1.484   1_554 S
C441   H442    1.020   .     S
C443   C279    1.435   1_455 D
C443   C437    1.484   1_556 S
C444   C294    1.412   1_455 D
C444   H445    1.020   .     S
C446   C440    1.484   1_556 S
C447   H448    1.020   .     S
C449   C455    1.468   .     S
C450   H451    0.996   .     S
C452   C458    1.468   1_565 S
C453   H454    0.996   .     S
C456   H457    0.996   .     S
C458   C452    1.468   1_545 S
C459   H460    0.996   .     S
