data_21
_audit_creation_date              2023-09-08
_audit_creation_method            'Materials Studio'
_symmetry_space_group_name_H-M    'P1'
_symmetry_Int_Tables_number       1
_symmetry_cell_setting            triclinic
loop_
_symmetry_equiv_pos_as_xyz
  x,y,z
_cell_length_a                    27.3310
_cell_length_b                    8.5430
_cell_length_c                    31.5080
_cell_angle_alpha                 90.0000
_cell_angle_beta                  90.4760
_cell_angle_gamma                 90.0000
loop_
_atom_site_label
_atom_site_type_symbol
_atom_site_fract_x
_atom_site_fract_y
_atom_site_fract_z
_atom_site_U_iso_or_equiv
_atom_site_adp_type
_atom_site_occupancy
C1     C     0.53258   0.14133   0.77789   0.00000  Uiso   1.00
C2     C     0.57972   0.19520   0.76550   0.00000  Uiso   1.00
N3     N     0.60248   0.59105   0.82516   0.00000  Uiso   1.00
C4     C     0.51122   0.23714   0.81018   0.00000  Uiso   1.00
C5     C     0.57945   0.43572   0.81254   0.00000  Uiso   1.00
C6     C     0.53386   0.37736   0.82721   0.00000  Uiso   1.00
C7     C     0.60238   0.33473   0.78262   0.00000  Uiso   1.00
C8     C     0.46810   0.89359   0.77870   0.00000  Uiso   1.00
C9     C     0.43074   0.79567   0.76071   0.00000  Uiso   1.00
C10    C     0.42741   0.60584   0.82215   0.00000  Uiso   1.00
C11    C     0.48195   0.84580   0.82050   0.00000  Uiso   1.00
C12    C     0.41080   0.65853   0.78162   0.00000  Uiso   1.00
N13    N     0.41333   0.45263   0.84354   0.00000  Uiso   1.00
C14    C     0.46190   0.70963   0.84141   0.00000  Uiso   1.00
C15    C     0.96897   0.36818   0.77932   0.00000  Uiso   1.00
C16    C     0.92001   0.32099   0.77030   0.00000  Uiso   1.00
C17    C     0.92174   0.07972   0.81723   0.00000  Uiso   1.00
C18    C     0.99213   0.26949   0.81030   0.00000  Uiso   1.00
C19    C     0.89727   0.18413   0.78878   0.00000  Uiso   1.00
N20    N     0.89823   0.92632   0.83091   0.00000  Uiso   1.00
C21    C     0.96950   0.13196   0.82880   0.00000  Uiso   1.00
C22    C     0.03345   0.61626   0.77745   0.00000  Uiso   1.00
C23    C     0.06806   0.71872   0.75771   0.00000  Uiso   1.00
N24    N     0.09103   0.05794   0.84090   0.00000  Uiso   1.00
C25    C     0.02277   0.66178   0.81997   0.00000  Uiso   1.00
C26    C     0.07522   0.90642   0.81940   0.00000  Uiso   1.00
C27    C     0.04345   0.79896   0.84016   0.00000  Uiso   1.00
C28    C     0.08838   0.85735   0.77783   0.00000  Uiso   1.00
C29    C     0.24860   0.74922   0.51888   0.00000  Uiso   1.00
C30    C     0.41001   0.69622   0.64506   0.00000  Uiso   1.00
C31    C     0.08711   0.81682   0.64102   0.00000  Uiso   1.00
C32    C     0.25774   0.75570   0.47357   0.00000  Uiso   1.00
C33    C     0.11953   0.82369   0.32753   0.00000  Uiso   1.00
C34    C     0.38071   0.65882   0.33278   0.00000  Uiso   1.00
C35    C     0.15558   0.10469   0.54343   0.00000  Uiso   1.00
C36    C     0.22888   0.93803   0.58552   0.00000  Uiso   1.00
C37    C     0.17737   0.96626   0.52512   0.00000  Uiso   1.00
C38    C     0.21827   0.88477   0.54331   0.00000  Uiso   1.00
C39    C     0.20536   0.07331   0.60498   0.00000  Uiso   1.00
C40    C     0.16989   0.16939   0.58352   0.00000  Uiso   1.00
C41    C     0.08818   0.55607   0.59782   0.00000  Uiso   1.00
C42    C     0.17294   0.42948   0.63285   0.00000  Uiso   1.00
C43    C     0.10619   0.40559   0.58435   0.00000  Uiso   1.00
C44    C     0.14950   0.33437   0.60090   0.00000  Uiso   1.00
C45    C     0.15472   0.58226   0.64640   0.00000  Uiso   1.00
C46    C     0.11139   0.65216   0.62911   0.00000  Uiso   1.00
C47    C     0.15904   0.54491   0.32805   0.00000  Uiso   1.00
C48    C     0.14771   0.48488   0.41404   0.00000  Uiso   1.00
C49    C     0.17611   0.40052   0.34650   0.00000  Uiso   1.00
C50    C     0.17259   0.36573   0.39045   0.00000  Uiso   1.00
C51    C     0.12787   0.62681   0.39487   0.00000  Uiso   1.00
C52    C     0.13402   0.66445   0.35103   0.00000  Uiso   1.00
C53    C     0.39230   0.88826   0.39208   0.00000  Uiso   1.00
C54    C     0.32011   0.07472   0.35422   0.00000  Uiso   1.00
C55    C     0.37917   0.04117   0.40933   0.00000  Uiso   1.00
C56    C     0.34246   0.14219   0.39102   0.00000  Uiso   1.00
C57    C     0.33301   0.92351   0.33729   0.00000  Uiso   1.00
C58    C     0.36950   0.82304   0.35514   0.00000  Uiso   1.00
C59    C     0.37461   0.07360   0.57783   0.00000  Uiso   1.00
C60    C     0.34763   0.93954   0.65536   0.00000  Uiso   1.00
C61    C     0.39695   0.93161   0.59332   0.00000  Uiso   1.00
C62    C     0.38385   0.85615   0.63213   0.00000  Uiso   1.00
C63    C     0.32619   0.08552   0.64031   0.00000  Uiso   1.00
C64    C     0.33811   0.15627   0.60043   0.00000  Uiso   1.00
C65    C     0.19264   0.06066   0.39183   0.00000  Uiso   1.00
C66    C     0.25167   0.06417   0.46424   0.00000  Uiso   1.00
C67    C     0.21201   0.91822   0.41066   0.00000  Uiso   1.00
C68    C     0.24133   0.91186   0.44843   0.00000  Uiso   1.00
C69    C     0.22578   0.21114   0.44773   0.00000  Uiso   1.00
C70    C     0.19619   0.21149   0.41066   0.00000  Uiso   1.00
C71    C     0.27325   0.55564   0.40749   0.00000  Uiso   1.00
C72    C     0.34212   0.37220   0.44967   0.00000  Uiso   1.00
C73    C     0.29321   0.41465   0.38855   0.00000  Uiso   1.00
C74    C     0.32625   0.31019   0.40979   0.00000  Uiso   1.00
C75    C     0.32376   0.51735   0.46755   0.00000  Uiso   1.00
C76    C     0.28488   0.61004   0.44940   0.00000  Uiso   1.00
C77    C     0.24763   0.45093   0.53987   0.00000  Uiso   1.00
C78    C     0.33288   0.46378   0.58848   0.00000  Uiso   1.00
C79    C     0.27085   0.31149   0.55608   0.00000  Uiso   1.00
C80    C     0.31330   0.31158   0.58232   0.00000  Uiso   1.00
C81    C     0.31081   0.60419   0.57094   0.00000  Uiso   1.00
C82    C     0.26769   0.60258   0.54522   0.00000  Uiso   1.00
H83    H     0.59882   0.13265   0.74084   0.00000  Uiso   1.00
H84    H     0.47526   0.20613   0.82141   0.00000  Uiso   1.00
H85    H     0.51482   0.44084   0.85156   0.00000  Uiso   1.00
H86    H     0.63832   0.36611   0.77135   0.00000  Uiso   1.00
H87    H     0.41774   0.82318   0.72914   0.00000  Uiso   1.00
H88    H     0.51024   0.91065   0.83699   0.00000  Uiso   1.00
H89    H     0.38254   0.59349   0.76544   0.00000  Uiso   1.00
H90    H     0.47476   0.68247   0.87310   0.00000  Uiso   1.00
H91    H     0.89940   0.38733   0.74728   0.00000  Uiso   1.00
H92    H     0.02919   0.29721   0.81953   0.00000  Uiso   1.00
H93    H     0.86002   0.15693   0.77952   0.00000  Uiso   1.00
H94    H     0.99013   0.06586   0.85192   0.00000  Uiso   1.00
H95    H     0.07829   0.69415   0.72535   0.00000  Uiso   1.00
H96    H     0.99633   0.59461   0.83764   0.00000  Uiso   1.00
H97    H     0.03302   0.82419   0.87248   0.00000  Uiso   1.00
H98    H     0.11428   0.92628   0.76029   0.00000  Uiso   1.00
H99    H     0.44036   0.66549   0.62504   0.00000  Uiso   1.00
H100   H     0.05376   0.84142   0.62369   0.00000  Uiso   1.00
H101   H     0.13502   0.83574   0.29635   0.00000  Uiso   1.00
H102   H     0.35885   0.63690   0.30470   0.00000  Uiso   1.00
H103   H     0.12780   0.16331   0.52475   0.00000  Uiso   1.00
H104   H     0.25698   0.87791   0.60349   0.00000  Uiso   1.00
H105   H     0.16271   0.92668   0.49501   0.00000  Uiso   1.00
H106   H     0.21685   0.10663   0.63660   0.00000  Uiso   1.00
H107   H     0.05475   0.59815   0.58308   0.00000  Uiso   1.00
H108   H     0.20645   0.38712   0.64730   0.00000  Uiso   1.00
H109   H     0.08494   0.34435   0.56054   0.00000  Uiso   1.00
H110   H     0.17499   0.64558   0.67053   0.00000  Uiso   1.00
H111   H     0.16665   0.56379   0.29484   0.00000  Uiso   1.00
H112   H     0.14333   0.46841   0.44785   0.00000  Uiso   1.00
H113   H     0.19457   0.31791   0.32609   0.00000  Uiso   1.00
H114   H     0.10976   0.71076   0.41510   0.00000  Uiso   1.00
H115   H     0.42060   0.82121   0.40798   0.00000  Uiso   1.00
H116   H     0.29133   0.13779   0.33793   0.00000  Uiso   1.00
H117   H     0.39851   0.07988   0.43748   0.00000  Uiso   1.00
H118   H     0.31353   0.88432   0.30918   0.00000  Uiso   1.00
H119   H     0.38625   0.11917   0.54748   0.00000  Uiso   1.00
H120   H     0.33587   0.89303   0.68554   0.00000  Uiso   1.00
H121   H     0.42454   0.87747   0.57371   0.00000  Uiso   1.00
H122   H     0.29952   0.14287   0.66015   0.00000  Uiso   1.00
H123   H     0.17355   0.05215   0.36195   0.00000  Uiso   1.00
H124   H     0.27769   0.07518   0.48997   0.00000  Uiso   1.00
H125   H     0.20280   0.81216   0.39490   0.00000  Uiso   1.00
H126   H     0.23343   0.32093   0.46280   0.00000  Uiso   1.00
H127   H     0.24740   0.61814   0.38833   0.00000  Uiso   1.00
H128   H     0.36927   0.30857   0.46787   0.00000  Uiso   1.00
H129   H     0.28093   0.38628   0.35683   0.00000  Uiso   1.00
H130   H     0.34146   0.55707   0.49614   0.00000  Uiso   1.00
H131   H     0.21415   0.43965   0.52166   0.00000  Uiso   1.00
H132   H     0.36710   0.47214   0.60522   0.00000  Uiso   1.00
H133   H     0.25578   0.20143   0.54685   0.00000  Uiso   1.00
H134   H     0.32936   0.71406   0.57492   0.00000  Uiso   1.00
C135   C     0.46742   0.14133   0.72211   0.00000  Uiso   1.00
C136   C     0.42028   0.19520   0.73450   0.00000  Uiso   1.00
N137   N     0.39752   0.59105   0.67484   0.00000  Uiso   1.00
C138   C     0.48878   0.23714   0.68982   0.00000  Uiso   1.00
C139   C     0.42055   0.43572   0.68746   0.00000  Uiso   1.00
C140   C     0.46614   0.37736   0.67279   0.00000  Uiso   1.00
C141   C     0.39762   0.33473   0.71738   0.00000  Uiso   1.00
C142   C     0.53190   0.89359   0.72130   0.00000  Uiso   1.00
C143   C     0.56926   0.79567   0.73929   0.00000  Uiso   1.00
C144   C     0.57259   0.60584   0.67785   0.00000  Uiso   1.00
C145   C     0.51805   0.84580   0.67950   0.00000  Uiso   1.00
C146   C     0.58920   0.65853   0.71838   0.00000  Uiso   1.00
N147   N     0.58667   0.45263   0.65646   0.00000  Uiso   1.00
C148   C     0.53810   0.70963   0.65859   0.00000  Uiso   1.00
C149   C     0.03103   0.36818   0.72068   0.00000  Uiso   1.00
C150   C     0.07999   0.32099   0.72970   0.00000  Uiso   1.00
C151   C     0.07826   0.07972   0.68277   0.00000  Uiso   1.00
C152   C     0.00787   0.26949   0.68970   0.00000  Uiso   1.00
C153   C     0.10273   0.18413   0.71122   0.00000  Uiso   1.00
N154   N     0.10177   0.92632   0.66909   0.00000  Uiso   1.00
C155   C     0.03050   0.13196   0.67120   0.00000  Uiso   1.00
C156   C     0.96655   0.61626   0.72255   0.00000  Uiso   1.00
C157   C     0.93194   0.71872   0.74229   0.00000  Uiso   1.00
N158   N     0.90897   0.05794   0.65910   0.00000  Uiso   1.00
C159   C     0.97723   0.66178   0.68003   0.00000  Uiso   1.00
C160   C     0.92478   0.90642   0.68060   0.00000  Uiso   1.00
C161   C     0.95655   0.79896   0.65984   0.00000  Uiso   1.00
C162   C     0.91162   0.85735   0.72217   0.00000  Uiso   1.00
C163   C     0.75140   0.74922   0.98112   0.00000  Uiso   1.00
C164   C     0.58999   0.69622   0.85494   0.00000  Uiso   1.00
C165   C     0.91289   0.81682   0.85898   0.00000  Uiso   1.00
C166   C     0.74226   0.75570   0.02643   0.00000  Uiso   1.00
C167   C     0.88047   0.82369   0.17247   0.00000  Uiso   1.00
C168   C     0.61929   0.65882   0.16722   0.00000  Uiso   1.00
C169   C     0.84442   0.10469   0.95657   0.00000  Uiso   1.00
C170   C     0.77112   0.93803   0.91448   0.00000  Uiso   1.00
C171   C     0.82263   0.96626   0.97488   0.00000  Uiso   1.00
C172   C     0.78173   0.88477   0.95669   0.00000  Uiso   1.00
C173   C     0.79464   0.07331   0.89502   0.00000  Uiso   1.00
C174   C     0.83011   0.16939   0.91648   0.00000  Uiso   1.00
C175   C     0.91182   0.55607   0.90218   0.00000  Uiso   1.00
C176   C     0.82706   0.42948   0.86715   0.00000  Uiso   1.00
C177   C     0.89381   0.40559   0.91565   0.00000  Uiso   1.00
C178   C     0.85050   0.33437   0.89910   0.00000  Uiso   1.00
C179   C     0.84528   0.58226   0.85360   0.00000  Uiso   1.00
C180   C     0.88861   0.65216   0.87089   0.00000  Uiso   1.00
C181   C     0.84096   0.54491   0.17195   0.00000  Uiso   1.00
C182   C     0.85229   0.48488   0.08596   0.00000  Uiso   1.00
C183   C     0.82389   0.40052   0.15350   0.00000  Uiso   1.00
C184   C     0.82741   0.36573   0.10955   0.00000  Uiso   1.00
C185   C     0.87213   0.62681   0.10513   0.00000  Uiso   1.00
C186   C     0.86598   0.66445   0.14897   0.00000  Uiso   1.00
C187   C     0.60770   0.88826   0.10792   0.00000  Uiso   1.00
C188   C     0.67989   0.07472   0.14578   0.00000  Uiso   1.00
C189   C     0.62083   0.04117   0.09067   0.00000  Uiso   1.00
C190   C     0.65754   0.14219   0.10898   0.00000  Uiso   1.00
C191   C     0.66699   0.92351   0.16271   0.00000  Uiso   1.00
C192   C     0.63050   0.82304   0.14486   0.00000  Uiso   1.00
C193   C     0.62539   0.07360   0.92217   0.00000  Uiso   1.00
C194   C     0.65237   0.93954   0.84464   0.00000  Uiso   1.00
C195   C     0.60305   0.93161   0.90668   0.00000  Uiso   1.00
C196   C     0.61615   0.85615   0.86787   0.00000  Uiso   1.00
C197   C     0.67381   0.08552   0.85969   0.00000  Uiso   1.00
C198   C     0.66189   0.15627   0.89957   0.00000  Uiso   1.00
C199   C     0.80736   0.06066   0.10817   0.00000  Uiso   1.00
C200   C     0.74833   0.06417   0.03576   0.00000  Uiso   1.00
C201   C     0.78799   0.91822   0.08934   0.00000  Uiso   1.00
C202   C     0.75867   0.91186   0.05157   0.00000  Uiso   1.00
C203   C     0.77422   0.21114   0.05227   0.00000  Uiso   1.00
C204   C     0.80381   0.21149   0.08934   0.00000  Uiso   1.00
C205   C     0.72675   0.55564   0.09251   0.00000  Uiso   1.00
C206   C     0.65788   0.37220   0.05033   0.00000  Uiso   1.00
C207   C     0.70679   0.41465   0.11145   0.00000  Uiso   1.00
C208   C     0.67375   0.31019   0.09021   0.00000  Uiso   1.00
C209   C     0.67624   0.51735   0.03245   0.00000  Uiso   1.00
C210   C     0.71512   0.61004   0.05060   0.00000  Uiso   1.00
C211   C     0.75237   0.45093   0.96013   0.00000  Uiso   1.00
C212   C     0.66712   0.46378   0.91152   0.00000  Uiso   1.00
C213   C     0.72915   0.31149   0.94392   0.00000  Uiso   1.00
C214   C     0.68670   0.31158   0.91768   0.00000  Uiso   1.00
C215   C     0.68919   0.60419   0.92906   0.00000  Uiso   1.00
C216   C     0.73231   0.60258   0.95478   0.00000  Uiso   1.00
H217   H     0.40118   0.13265   0.75916   0.00000  Uiso   1.00
H218   H     0.52474   0.20613   0.67859   0.00000  Uiso   1.00
H219   H     0.48518   0.44084   0.64844   0.00000  Uiso   1.00
H220   H     0.36168   0.36611   0.72865   0.00000  Uiso   1.00
H221   H     0.58226   0.82318   0.77086   0.00000  Uiso   1.00
H222   H     0.48976   0.91065   0.66301   0.00000  Uiso   1.00
H223   H     0.61746   0.59349   0.73456   0.00000  Uiso   1.00
H224   H     0.52524   0.68247   0.62690   0.00000  Uiso   1.00
H225   H     0.10060   0.38733   0.75272   0.00000  Uiso   1.00
H226   H     0.97081   0.29721   0.68047   0.00000  Uiso   1.00
H227   H     0.13998   0.15693   0.72048   0.00000  Uiso   1.00
H228   H     0.00987   0.06586   0.64808   0.00000  Uiso   1.00
H229   H     0.92171   0.69415   0.77465   0.00000  Uiso   1.00
H230   H     0.00367   0.59461   0.66236   0.00000  Uiso   1.00
H231   H     0.96698   0.82419   0.62752   0.00000  Uiso   1.00
H232   H     0.88572   0.92628   0.73971   0.00000  Uiso   1.00
H233   H     0.55964   0.66549   0.87496   0.00000  Uiso   1.00
H234   H     0.94624   0.84142   0.87631   0.00000  Uiso   1.00
H235   H     0.86498   0.83574   0.20365   0.00000  Uiso   1.00
H236   H     0.64115   0.63690   0.19530   0.00000  Uiso   1.00
H237   H     0.87220   0.16331   0.97525   0.00000  Uiso   1.00
H238   H     0.74302   0.87791   0.89651   0.00000  Uiso   1.00
H239   H     0.83729   0.92668   0.00499   0.00000  Uiso   1.00
H240   H     0.78315   0.10663   0.86340   0.00000  Uiso   1.00
H241   H     0.94525   0.59815   0.91692   0.00000  Uiso   1.00
H242   H     0.79355   0.38712   0.85270   0.00000  Uiso   1.00
H243   H     0.91506   0.34435   0.93946   0.00000  Uiso   1.00
H244   H     0.82501   0.64558   0.82947   0.00000  Uiso   1.00
H245   H     0.83335   0.56379   0.20516   0.00000  Uiso   1.00
H246   H     0.85667   0.46841   0.05215   0.00000  Uiso   1.00
H247   H     0.80543   0.31791   0.17391   0.00000  Uiso   1.00
H248   H     0.89024   0.71076   0.08490   0.00000  Uiso   1.00
H249   H     0.57940   0.82121   0.09202   0.00000  Uiso   1.00
H250   H     0.70867   0.13779   0.16207   0.00000  Uiso   1.00
H251   H     0.60149   0.07988   0.06252   0.00000  Uiso   1.00
H252   H     0.68647   0.88432   0.19082   0.00000  Uiso   1.00
H253   H     0.61375   0.11917   0.95252   0.00000  Uiso   1.00
H254   H     0.66413   0.89303   0.81446   0.00000  Uiso   1.00
H255   H     0.57546   0.87747   0.92629   0.00000  Uiso   1.00
H256   H     0.70048   0.14287   0.83985   0.00000  Uiso   1.00
H257   H     0.82645   0.05215   0.13805   0.00000  Uiso   1.00
H258   H     0.72231   0.07518   0.01003   0.00000  Uiso   1.00
H259   H     0.79720   0.81216   0.10510   0.00000  Uiso   1.00
H260   H     0.76657   0.32093   0.03720   0.00000  Uiso   1.00
H261   H     0.75260   0.61814   0.11167   0.00000  Uiso   1.00
H262   H     0.63073   0.30857   0.03213   0.00000  Uiso   1.00
H263   H     0.71907   0.38628   0.14317   0.00000  Uiso   1.00
H264   H     0.65854   0.55707   0.00386   0.00000  Uiso   1.00
H265   H     0.78585   0.43965   0.97834   0.00000  Uiso   1.00
H266   H     0.63290   0.47214   0.89478   0.00000  Uiso   1.00
H267   H     0.74422   0.20143   0.95315   0.00000  Uiso   1.00
H268   H     0.67064   0.71406   0.92508   0.00000  Uiso   1.00
C269   C     0.46742   0.85867   0.22211   0.00000  Uiso   1.00
C270   C     0.42028   0.80480   0.23450   0.00000  Uiso   1.00
N271   N     0.39752   0.40895   0.17484   0.00000  Uiso   1.00
C272   C     0.48878   0.76286   0.18982   0.00000  Uiso   1.00
C273   C     0.42055   0.56428   0.18746   0.00000  Uiso   1.00
C274   C     0.46614   0.62264   0.17279   0.00000  Uiso   1.00
C275   C     0.39762   0.66527   0.21738   0.00000  Uiso   1.00
C276   C     0.53190   0.10641   0.22130   0.00000  Uiso   1.00
C277   C     0.56926   0.20433   0.23929   0.00000  Uiso   1.00
C278   C     0.57259   0.39416   0.17785   0.00000  Uiso   1.00
C279   C     0.51805   0.15420   0.17950   0.00000  Uiso   1.00
C280   C     0.58920   0.34147   0.21838   0.00000  Uiso   1.00
N281   N     0.58667   0.54737   0.15646   0.00000  Uiso   1.00
C282   C     0.53810   0.29037   0.15859   0.00000  Uiso   1.00
C283   C     0.03103   0.63182   0.22068   0.00000  Uiso   1.00
C284   C     0.07999   0.67901   0.22970   0.00000  Uiso   1.00
C285   C     0.07826   0.92028   0.18277   0.00000  Uiso   1.00
C286   C     0.00787   0.73051   0.18970   0.00000  Uiso   1.00
C287   C     0.10273   0.81587   0.21122   0.00000  Uiso   1.00
N288   N     0.10177   0.07368   0.16909   0.00000  Uiso   1.00
C289   C     0.03050   0.86804   0.17120   0.00000  Uiso   1.00
C290   C     0.96655   0.38374   0.22255   0.00000  Uiso   1.00
C291   C     0.93194   0.28128   0.24229   0.00000  Uiso   1.00
N292   N     0.90897   0.94206   0.15910   0.00000  Uiso   1.00
C293   C     0.97723   0.33822   0.18003   0.00000  Uiso   1.00
C294   C     0.92478   0.09358   0.18060   0.00000  Uiso   1.00
C295   C     0.95655   0.20104   0.15984   0.00000  Uiso   1.00
C296   C     0.91162   0.14265   0.22217   0.00000  Uiso   1.00
C297   C     0.75140   0.25078   0.48112   0.00000  Uiso   1.00
C298   C     0.58999   0.30378   0.35494   0.00000  Uiso   1.00
C299   C     0.91289   0.18318   0.35898   0.00000  Uiso   1.00
C300   C     0.74226   0.24430   0.52643   0.00000  Uiso   1.00
C301   C     0.88047   0.17631   0.67247   0.00000  Uiso   1.00
C302   C     0.61929   0.34118   0.66722   0.00000  Uiso   1.00
C303   C     0.84442   0.89531   0.45657   0.00000  Uiso   1.00
C304   C     0.77112   0.06197   0.41448   0.00000  Uiso   1.00
C305   C     0.82263   0.03374   0.47488   0.00000  Uiso   1.00
C306   C     0.78173   0.11523   0.45669   0.00000  Uiso   1.00
C307   C     0.79464   0.92669   0.39502   0.00000  Uiso   1.00
C308   C     0.83011   0.83061   0.41648   0.00000  Uiso   1.00
C309   C     0.91182   0.44393   0.40218   0.00000  Uiso   1.00
C310   C     0.82706   0.57052   0.36715   0.00000  Uiso   1.00
C311   C     0.89381   0.59441   0.41565   0.00000  Uiso   1.00
C312   C     0.85050   0.66563   0.39910   0.00000  Uiso   1.00
C313   C     0.84528   0.41774   0.35360   0.00000  Uiso   1.00
C314   C     0.88861   0.34784   0.37089   0.00000  Uiso   1.00
C315   C     0.84096   0.45509   0.67195   0.00000  Uiso   1.00
C316   C     0.85229   0.51512   0.58596   0.00000  Uiso   1.00
C317   C     0.82389   0.59948   0.65350   0.00000  Uiso   1.00
C318   C     0.82741   0.63427   0.60955   0.00000  Uiso   1.00
C319   C     0.87213   0.37319   0.60513   0.00000  Uiso   1.00
C320   C     0.86598   0.33555   0.64897   0.00000  Uiso   1.00
C321   C     0.60770   0.11174   0.60792   0.00000  Uiso   1.00
C322   C     0.67989   0.92528   0.64578   0.00000  Uiso   1.00
C323   C     0.62083   0.95883   0.59067   0.00000  Uiso   1.00
C324   C     0.65754   0.85781   0.60898   0.00000  Uiso   1.00
C325   C     0.66699   0.07649   0.66271   0.00000  Uiso   1.00
C326   C     0.63050   0.17696   0.64486   0.00000  Uiso   1.00
C327   C     0.62539   0.92640   0.42217   0.00000  Uiso   1.00
C328   C     0.65237   0.06046   0.34464   0.00000  Uiso   1.00
C329   C     0.60305   0.06839   0.40668   0.00000  Uiso   1.00
C330   C     0.61615   0.14385   0.36787   0.00000  Uiso   1.00
C331   C     0.67381   0.91448   0.35969   0.00000  Uiso   1.00
C332   C     0.66189   0.84373   0.39957   0.00000  Uiso   1.00
C333   C     0.80736   0.93934   0.60817   0.00000  Uiso   1.00
C334   C     0.74833   0.93583   0.53576   0.00000  Uiso   1.00
C335   C     0.78799   0.08178   0.58934   0.00000  Uiso   1.00
C336   C     0.75867   0.08814   0.55157   0.00000  Uiso   1.00
C337   C     0.77422   0.78886   0.55227   0.00000  Uiso   1.00
C338   C     0.80381   0.78851   0.58934   0.00000  Uiso   1.00
C339   C     0.72675   0.44436   0.59251   0.00000  Uiso   1.00
C340   C     0.65788   0.62780   0.55033   0.00000  Uiso   1.00
C341   C     0.70679   0.58535   0.61145   0.00000  Uiso   1.00
C342   C     0.67375   0.68981   0.59021   0.00000  Uiso   1.00
C343   C     0.67624   0.48265   0.53245   0.00000  Uiso   1.00
C344   C     0.71512   0.38996   0.55060   0.00000  Uiso   1.00
C345   C     0.75237   0.54907   0.46013   0.00000  Uiso   1.00
C346   C     0.66712   0.53622   0.41152   0.00000  Uiso   1.00
C347   C     0.72915   0.68851   0.44392   0.00000  Uiso   1.00
C348   C     0.68670   0.68842   0.41768   0.00000  Uiso   1.00
C349   C     0.68919   0.39581   0.42906   0.00000  Uiso   1.00
C350   C     0.73231   0.39742   0.45478   0.00000  Uiso   1.00
H351   H     0.40118   0.86735   0.25916   0.00000  Uiso   1.00
H352   H     0.52474   0.79387   0.17859   0.00000  Uiso   1.00
H353   H     0.48518   0.55916   0.14844   0.00000  Uiso   1.00
H354   H     0.36168   0.63389   0.22865   0.00000  Uiso   1.00
H355   H     0.58226   0.17682   0.27086   0.00000  Uiso   1.00
H356   H     0.48976   0.08935   0.16301   0.00000  Uiso   1.00
H357   H     0.61746   0.40651   0.23456   0.00000  Uiso   1.00
H358   H     0.52524   0.31753   0.12690   0.00000  Uiso   1.00
H359   H     0.10060   0.61267   0.25272   0.00000  Uiso   1.00
H360   H     0.97081   0.70279   0.18047   0.00000  Uiso   1.00
H361   H     0.13998   0.84307   0.22048   0.00000  Uiso   1.00
H362   H     0.00987   0.93414   0.14808   0.00000  Uiso   1.00
H363   H     0.92171   0.30585   0.27465   0.00000  Uiso   1.00
H364   H     0.00367   0.40539   0.16236   0.00000  Uiso   1.00
H365   H     0.96698   0.17581   0.12752   0.00000  Uiso   1.00
H366   H     0.88572   0.07372   0.23971   0.00000  Uiso   1.00
H367   H     0.55964   0.33451   0.37496   0.00000  Uiso   1.00
H368   H     0.94624   0.15858   0.37631   0.00000  Uiso   1.00
H369   H     0.86498   0.16426   0.70365   0.00000  Uiso   1.00
H370   H     0.64115   0.36310   0.69530   0.00000  Uiso   1.00
H371   H     0.87220   0.83669   0.47525   0.00000  Uiso   1.00
H372   H     0.74302   0.12209   0.39651   0.00000  Uiso   1.00
H373   H     0.83729   0.07332   0.50499   0.00000  Uiso   1.00
H374   H     0.78315   0.89337   0.36340   0.00000  Uiso   1.00
H375   H     0.94525   0.40185   0.41692   0.00000  Uiso   1.00
H376   H     0.79355   0.61288   0.35270   0.00000  Uiso   1.00
H377   H     0.91506   0.65565   0.43946   0.00000  Uiso   1.00
H378   H     0.82501   0.35442   0.32947   0.00000  Uiso   1.00
H379   H     0.83335   0.43621   0.70516   0.00000  Uiso   1.00
H380   H     0.85667   0.53159   0.55215   0.00000  Uiso   1.00
H381   H     0.80543   0.68209   0.67391   0.00000  Uiso   1.00
H382   H     0.89024   0.28924   0.58490   0.00000  Uiso   1.00
H383   H     0.57940   0.17879   0.59202   0.00000  Uiso   1.00
H384   H     0.70867   0.86221   0.66207   0.00000  Uiso   1.00
H385   H     0.60149   0.92012   0.56252   0.00000  Uiso   1.00
H386   H     0.68647   0.11568   0.69082   0.00000  Uiso   1.00
H387   H     0.61375   0.88083   0.45252   0.00000  Uiso   1.00
H388   H     0.66413   0.10697   0.31446   0.00000  Uiso   1.00
H389   H     0.57546   0.12253   0.42629   0.00000  Uiso   1.00
H390   H     0.70048   0.85713   0.33985   0.00000  Uiso   1.00
H391   H     0.82645   0.94785   0.63805   0.00000  Uiso   1.00
H392   H     0.72231   0.92482   0.51003   0.00000  Uiso   1.00
H393   H     0.79720   0.18784   0.60510   0.00000  Uiso   1.00
H394   H     0.76657   0.67907   0.53720   0.00000  Uiso   1.00
H395   H     0.75260   0.38186   0.61167   0.00000  Uiso   1.00
H396   H     0.63073   0.69143   0.53213   0.00000  Uiso   1.00
H397   H     0.71907   0.61372   0.64317   0.00000  Uiso   1.00
H398   H     0.65854   0.44293   0.50386   0.00000  Uiso   1.00
H399   H     0.78585   0.56035   0.47834   0.00000  Uiso   1.00
H400   H     0.63290   0.52786   0.39478   0.00000  Uiso   1.00
H401   H     0.74422   0.79857   0.45315   0.00000  Uiso   1.00
H402   H     0.67064   0.28594   0.42508   0.00000  Uiso   1.00
C403   C     0.53258   0.85867   0.27789   0.00000  Uiso   1.00
C404   C     0.57972   0.80480   0.26550   0.00000  Uiso   1.00
N405   N     0.60248   0.40895   0.32516   0.00000  Uiso   1.00
C406   C     0.51122   0.76286   0.31018   0.00000  Uiso   1.00
C407   C     0.57945   0.56428   0.31254   0.00000  Uiso   1.00
C408   C     0.53386   0.62264   0.32721   0.00000  Uiso   1.00
C409   C     0.60238   0.66527   0.28262   0.00000  Uiso   1.00
C410   C     0.46810   0.10641   0.27870   0.00000  Uiso   1.00
C411   C     0.43074   0.20433   0.26071   0.00000  Uiso   1.00
C412   C     0.42741   0.39416   0.32215   0.00000  Uiso   1.00
C413   C     0.48195   0.15420   0.32050   0.00000  Uiso   1.00
C414   C     0.41080   0.34147   0.28162   0.00000  Uiso   1.00
N415   N     0.41333   0.54737   0.34354   0.00000  Uiso   1.00
C416   C     0.46190   0.29037   0.34141   0.00000  Uiso   1.00
C417   C     0.96897   0.63182   0.27932   0.00000  Uiso   1.00
C418   C     0.92001   0.67901   0.27030   0.00000  Uiso   1.00
C419   C     0.92174   0.92028   0.31723   0.00000  Uiso   1.00
C420   C     0.99213   0.73051   0.31030   0.00000  Uiso   1.00
C421   C     0.89727   0.81587   0.28878   0.00000  Uiso   1.00
N422   N     0.89823   0.07368   0.33091   0.00000  Uiso   1.00
C423   C     0.96950   0.86804   0.32880   0.00000  Uiso   1.00
C424   C     0.03345   0.38374   0.27745   0.00000  Uiso   1.00
C425   C     0.06806   0.28128   0.25771   0.00000  Uiso   1.00
N426   N     0.09103   0.94206   0.34090   0.00000  Uiso   1.00
C427   C     0.02277   0.33822   0.31997   0.00000  Uiso   1.00
C428   C     0.07522   0.09358   0.31940   0.00000  Uiso   1.00
C429   C     0.04345   0.20104   0.34016   0.00000  Uiso   1.00
C430   C     0.08838   0.14265   0.27783   0.00000  Uiso   1.00
C431   C     0.24860   0.25078   0.01888   0.00000  Uiso   1.00
C432   C     0.41001   0.30378   0.14506   0.00000  Uiso   1.00
C433   C     0.08711   0.18318   0.14102   0.00000  Uiso   1.00
C434   C     0.25774   0.24430   0.97357   0.00000  Uiso   1.00
C435   C     0.11953   0.17631   0.82753   0.00000  Uiso   1.00
C436   C     0.38071   0.34118   0.83278   0.00000  Uiso   1.00
C437   C     0.15558   0.89531   0.04343   0.00000  Uiso   1.00
C438   C     0.22888   0.06197   0.08552   0.00000  Uiso   1.00
C439   C     0.17737   0.03374   0.02512   0.00000  Uiso   1.00
C440   C     0.21827   0.11523   0.04331   0.00000  Uiso   1.00
C441   C     0.20536   0.92669   0.10498   0.00000  Uiso   1.00
C442   C     0.16989   0.83061   0.08352   0.00000  Uiso   1.00
C443   C     0.08818   0.44393   0.09782   0.00000  Uiso   1.00
C444   C     0.17294   0.57052   0.13285   0.00000  Uiso   1.00
C445   C     0.10619   0.59441   0.08435   0.00000  Uiso   1.00
C446   C     0.14950   0.66563   0.10090   0.00000  Uiso   1.00
C447   C     0.15472   0.41774   0.14640   0.00000  Uiso   1.00
C448   C     0.11139   0.34784   0.12911   0.00000  Uiso   1.00
C449   C     0.15904   0.45509   0.82805   0.00000  Uiso   1.00
C450   C     0.14771   0.51512   0.91404   0.00000  Uiso   1.00
C451   C     0.17611   0.59948   0.84650   0.00000  Uiso   1.00
C452   C     0.17259   0.63427   0.89045   0.00000  Uiso   1.00
C453   C     0.12787   0.37319   0.89487   0.00000  Uiso   1.00
C454   C     0.13402   0.33555   0.85103   0.00000  Uiso   1.00
C455   C     0.39230   0.11174   0.89208   0.00000  Uiso   1.00
C456   C     0.32011   0.92528   0.85422   0.00000  Uiso   1.00
C457   C     0.37917   0.95883   0.90933   0.00000  Uiso   1.00
C458   C     0.34246   0.85781   0.89102   0.00000  Uiso   1.00
C459   C     0.33301   0.07649   0.83729   0.00000  Uiso   1.00
C460   C     0.36950   0.17696   0.85514   0.00000  Uiso   1.00
C461   C     0.37461   0.92640   0.07783   0.00000  Uiso   1.00
C462   C     0.34763   0.06046   0.15536   0.00000  Uiso   1.00
C463   C     0.39695   0.06839   0.09332   0.00000  Uiso   1.00
C464   C     0.38385   0.14385   0.13213   0.00000  Uiso   1.00
C465   C     0.32619   0.91448   0.14031   0.00000  Uiso   1.00
C466   C     0.33811   0.84373   0.10043   0.00000  Uiso   1.00
C467   C     0.19264   0.93934   0.89183   0.00000  Uiso   1.00
C468   C     0.25167   0.93583   0.96424   0.00000  Uiso   1.00
C469   C     0.21201   0.08178   0.91066   0.00000  Uiso   1.00
C470   C     0.24133   0.08814   0.94843   0.00000  Uiso   1.00
C471   C     0.22578   0.78886   0.94773   0.00000  Uiso   1.00
C472   C     0.19619   0.78851   0.91066   0.00000  Uiso   1.00
C473   C     0.27325   0.44436   0.90749   0.00000  Uiso   1.00
C474   C     0.34212   0.62780   0.94967   0.00000  Uiso   1.00
C475   C     0.29321   0.58535   0.88855   0.00000  Uiso   1.00
C476   C     0.32625   0.68981   0.90979   0.00000  Uiso   1.00
C477   C     0.32376   0.48265   0.96755   0.00000  Uiso   1.00
C478   C     0.28488   0.38996   0.94940   0.00000  Uiso   1.00
C479   C     0.24763   0.54907   0.03987   0.00000  Uiso   1.00
C480   C     0.33288   0.53622   0.08848   0.00000  Uiso   1.00
C481   C     0.27085   0.68851   0.05608   0.00000  Uiso   1.00
C482   C     0.31330   0.68842   0.08232   0.00000  Uiso   1.00
C483   C     0.31081   0.39581   0.07094   0.00000  Uiso   1.00
C484   C     0.26769   0.39742   0.04522   0.00000  Uiso   1.00
H485   H     0.59882   0.86735   0.24084   0.00000  Uiso   1.00
H486   H     0.47526   0.79387   0.32141   0.00000  Uiso   1.00
H487   H     0.51482   0.55916   0.35156   0.00000  Uiso   1.00
H488   H     0.63832   0.63389   0.27135   0.00000  Uiso   1.00
H489   H     0.41774   0.17682   0.22914   0.00000  Uiso   1.00
H490   H     0.51024   0.08935   0.33699   0.00000  Uiso   1.00
H491   H     0.38254   0.40651   0.26544   0.00000  Uiso   1.00
H492   H     0.47476   0.31753   0.37310   0.00000  Uiso   1.00
H493   H     0.89940   0.61267   0.24728   0.00000  Uiso   1.00
H494   H     0.02919   0.70279   0.31953   0.00000  Uiso   1.00
H495   H     0.86002   0.84307   0.27952   0.00000  Uiso   1.00
H496   H     0.99013   0.93414   0.35192   0.00000  Uiso   1.00
H497   H     0.07829   0.30585   0.22535   0.00000  Uiso   1.00
H498   H     0.99633   0.40539   0.33764   0.00000  Uiso   1.00
H499   H     0.03302   0.17581   0.37248   0.00000  Uiso   1.00
H500   H     0.11428   0.07372   0.26029   0.00000  Uiso   1.00
H501   H     0.44036   0.33451   0.12504   0.00000  Uiso   1.00
H502   H     0.05376   0.15858   0.12369   0.00000  Uiso   1.00
H503   H     0.13502   0.16426   0.79635   0.00000  Uiso   1.00
H504   H     0.35885   0.36310   0.80470   0.00000  Uiso   1.00
H505   H     0.12780   0.83669   0.02475   0.00000  Uiso   1.00
H506   H     0.25698   0.12209   0.10349   0.00000  Uiso   1.00
H507   H     0.16271   0.07332   0.99501   0.00000  Uiso   1.00
H508   H     0.21685   0.89337   0.13660   0.00000  Uiso   1.00
H509   H     0.05475   0.40185   0.08308   0.00000  Uiso   1.00
H510   H     0.20645   0.61288   0.14730   0.00000  Uiso   1.00
H511   H     0.08494   0.65565   0.06054   0.00000  Uiso   1.00
H512   H     0.17499   0.35442   0.17053   0.00000  Uiso   1.00
H513   H     0.16665   0.43621   0.79484   0.00000  Uiso   1.00
H514   H     0.14333   0.53159   0.94785   0.00000  Uiso   1.00
H515   H     0.19457   0.68209   0.82609   0.00000  Uiso   1.00
H516   H     0.10976   0.28924   0.91510   0.00000  Uiso   1.00
H517   H     0.42060   0.17879   0.90798   0.00000  Uiso   1.00
H518   H     0.29133   0.86221   0.83793   0.00000  Uiso   1.00
H519   H     0.39851   0.92012   0.93748   0.00000  Uiso   1.00
H520   H     0.31353   0.11568   0.80918   0.00000  Uiso   1.00
H521   H     0.38625   0.88083   0.04748   0.00000  Uiso   1.00
H522   H     0.33587   0.10697   0.18554   0.00000  Uiso   1.00
H523   H     0.42454   0.12253   0.07371   0.00000  Uiso   1.00
H524   H     0.29952   0.85713   0.16015   0.00000  Uiso   1.00
H525   H     0.17355   0.94785   0.86195   0.00000  Uiso   1.00
H526   H     0.27769   0.92482   0.98997   0.00000  Uiso   1.00
H527   H     0.20280   0.18784   0.89490   0.00000  Uiso   1.00
H528   H     0.23343   0.67907   0.96280   0.00000  Uiso   1.00
H529   H     0.24740   0.38186   0.88833   0.00000  Uiso   1.00
H530   H     0.36927   0.69143   0.96787   0.00000  Uiso   1.00
H531   H     0.28093   0.61372   0.85683   0.00000  Uiso   1.00
H532   H     0.34146   0.44293   0.99614   0.00000  Uiso   1.00
H533   H     0.21415   0.56035   0.02166   0.00000  Uiso   1.00
H534   H     0.36710   0.52786   0.10522   0.00000  Uiso   1.00
H535   H     0.25578   0.79857   0.04685   0.00000  Uiso   1.00
H536   H     0.32936   0.28594   0.07492   0.00000  Uiso   1.00
C537   C     0.50000   0.01687   0.75000   0.00000  Uiso   1.00
C538   C     0.50000   0.98313   0.25000   0.00000  Uiso   1.00
C539   C     0.00000   0.49202   0.75000   0.00000  Uiso   1.00
C540   C     0.00000   0.50798   0.25000   0.00000  Uiso   1.00
loop_
_geom_bond_atom_site_label_1
_geom_bond_atom_site_label_2
_geom_bond_distance
_geom_bond_site_symmetry_2
_ccdc_geom_bond_type
C1     C2      1.426   .     S
C1     C4      1.434   .     D
C1     C537    1.638   .     S
C2     C7      1.446   .     D
C2     H83     1.081   .     S
N3     C5      1.520   .     S
N3     C164    1.345   .     D
C4     C6      1.449   .     S
C4     H84     1.080   .     S
C5     C6      1.423   .     D
C5     C7      1.427   .     S
C6     H85     1.077   .     S
C7     H86     1.081   .     S
C8     C9      1.433   .     D
C8     C11     1.427   .     S
C8     C537    1.643   1_565 S
C9     C12     1.452   .     S
C9     H87     1.079   .     S
C10    C12     1.425   .     D
C10    N13     1.523   .     S
C10    C14     1.426   .     S
C11    C14     1.447   .     D
C11    H88     1.081   .     S
C12    H89     1.076   .     S
N13    C436    1.346   .     D
C14    H90     1.081   .     S
C15    C16     1.424   .     D
C15    C18     1.433   .     S
C15    C539    1.645   1_655 S
C16    C19     1.449   .     S
C16    H91     1.076   .     S
C17    C19     1.427   .     D
C17    N20     1.523   1_545 S
C17    C21     1.424   .     S
C18    C21     1.452   .     D
C18    H92     1.078   1_655 S
C19    H93     1.082   .     S
N20    C17     1.523   1_565 S
N20    C165    1.346   .     D
C21    H94     1.077   .     S
C22    C23     1.434   .     D
C22    C25     1.428   .     S
C22    C539    1.642   .     S
C23    C28     1.452   .     S
C23    H95     1.080   .     S
N24    C26     1.522   1_545 S
N24    C435    1.346   .     D
C25    C27     1.446   .     D
C25    H96     1.081   1_455 S
C26    N24     1.522   1_565 S
C26    C27     1.426   .     S
C26    C28     1.424   .     D
C27    H97     1.081   .     S
C28    H98     1.077   .     S
C29    C32     1.452   .     D
C29    C38     1.622   .     S
C29    C82     1.588   .     S
C30    C62     1.593   .     S
C30    H99     1.079   .     S
C30    N137    1.345   .     D
C31    C46     1.601   .     S
C31    H100    1.079   .     S
C31    N154    1.346   .     D
C32    C68     1.613   .     S
C32    C76     1.640   .     S
C33    C52     1.597   .     S
C33    H101    1.078   .     S
C33    N426    1.346   .     D
C34    C58     1.601   .     S
C34    H102    1.080   .     S
C34    N415    1.346   .     D
C35    C37     1.446   1_545 D
C35    C40     1.430   .     S
C35    H103    1.080   .     S
C36    C38     1.433   .     D
C36    C39     1.460   1_565 S
C36    H104    1.080   .     S
C37    C35     1.446   1_565 D
C37    C38     1.432   .     S
C37    H105    1.081   .     S
C39    C36     1.460   1_545 S
C39    C40     1.435   .     D
C39    H106    1.080   .     S
C40    C44     1.613   .     S
C41    C43     1.442   .     D
C41    C46     1.428   .     S
C41    H107    1.083   .     S
C42    C44     1.440   .     D
C42    C45     1.462   .     S
C42    H108    1.082   .     S
C43    C44     1.426   .     S
C43    H109    1.080   .     S
C45    C46     1.430   .     D
C45    H110    1.082   .     S
C47    C49     1.440   .     D
C47    C52     1.429   .     S
C47    H111    1.081   .     S
C48    C50     1.435   .     D
C48    C51     1.457   .     S
C48    H112    1.082   .     S
C49    C50     1.420   .     S
C49    H113    1.082   .     S
C50    C70     1.597   .     S
C51    C52     1.430   .     D
C51    H114    1.082   .     S
C53    C55     1.461   1_565 D
C53    C58     1.429   .     S
C53    H115    1.082   .     S
C54    C56     1.428   .     D
C54    C57     1.442   1_545 S
C54    H116    1.080   .     S
C55    C53     1.461   1_545 D
C55    C56     1.440   .     S
C55    H117    1.081   .     S
C56    C74     1.616   .     S
C57    C54     1.442   1_565 S
C57    C58     1.428   .     D
C57    H118    1.083   .     S
C59    C61     1.441   1_545 S
C59    C64     1.419   .     D
C59    H119    1.083   .     S
C60    C62     1.427   .     S
C60    C63     1.456   1_565 D
C60    H120    1.082   .     S
C61    C59     1.441   1_565 S
C61    C62     1.431   .     D
C61    H121    1.083   .     S
C63    C60     1.456   1_545 D
C63    C64     1.434   .     S
C63    H122    1.082   .     S
C64    C80     1.594   .     S
C65    C67     1.452   1_545 S
C65    C70     1.422   .     D
C65    H123    1.075   .     S
C66    C68     1.421   1_545 S
C66    C69     1.530   .     D
C66    H124    1.078   .     S
C67    C65     1.452   1_565 S
C67    C68     1.430   .     D
C67    H125    1.062   .     S
C68    C66     1.421   1_565 S
C69    C70     1.415   .     S
C69    H126    1.071   .     S
C71    C73     1.453   .     S
C71    C76     1.433   .     D
C71    H127    1.068   .     S
C72    C74     1.428   .     S
C72    C75     1.453   .     D
C72    H128    1.081   .     S
C73    C74     1.432   .     D
C73    H129    1.079   .     S
C75    C76     1.440   .     S
C75    H130    1.074   .     S
C77    C79     1.441   .     S
C77    C82     1.416   .     D
C77    H131    1.080   .     S
C78    C80     1.419   .     S
C78    C81     1.450   .     D
C78    H132    1.072   .     S
C79    C80     1.419   .     D
C79    H133    1.066   .     S
C81    C82     1.425   .     S
C81    H134    1.074   .     S
H92    C18     1.078   1_455 S
H96    C25     1.081   1_655 S
C135   C136    1.426   .     S
C135   C138    1.434   .     D
C135   C537    1.638   .     S
C136   C141    1.446   .     D
C136   H217    1.081   .     S
N137   C139    1.520   .     S
C138   C140    1.449   .     S
C138   H218    1.080   .     S
C139   C140    1.423   .     D
C139   C141    1.427   .     S
C140   H219    1.077   .     S
C141   H220    1.081   .     S
C142   C143    1.433   .     D
C142   C145    1.427   .     S
C142   C537    1.643   1_565 S
C143   C146    1.452   .     S
C143   H221    1.079   .     S
C144   C146    1.425   .     D
C144   N147    1.523   .     S
C144   C148    1.426   .     S
C145   C148    1.447   .     D
C145   H222    1.081   .     S
C146   H223    1.076   .     S
N147   C302    1.346   .     D
C148   H224    1.081   .     S
C149   C150    1.424   .     S
C149   C152    1.433   .     D
C149   C539    1.645   .     S
C150   C153    1.449   .     D
C150   H225    1.076   .     S
C151   C153    1.427   .     S
C151   N154    1.523   1_545 S
C151   C155    1.424   .     D
C152   C155    1.452   .     S
C152   H226    1.078   1_455 S
C153   H227    1.082   .     S
N154   C151    1.523   1_565 S
C155   H228    1.077   .     S
C156   C157    1.434   .     S
C156   C159    1.428   .     D
C156   C539    1.642   1_655 S
C157   C162    1.452   .     D
C157   H229    1.080   .     S
N158   C160    1.522   1_545 S
N158   C301    1.346   .     D
C159   C161    1.446   .     S
C159   H230    1.081   1_655 S
C160   N158    1.522   1_565 S
C160   C161    1.426   .     D
C160   C162    1.424   .     S
C161   H231    1.081   .     S
C162   H232    1.077   .     S
C163   C166    1.452   1_556 D
C163   C172    1.622   .     S
C163   C216    1.588   .     S
C164   C196    1.593   .     S
C164   H233    1.079   .     S
C165   C180    1.601   .     S
C165   H234    1.079   .     S
C166   C163    1.452   1_554 D
C166   C202    1.613   .     S
C166   C210    1.640   .     S
C167   C186    1.597   .     S
C167   H235    1.078   .     S
C167   N292    1.346   .     D
C168   C192    1.601   .     S
C168   H236    1.080   .     S
C168   N281    1.346   .     D
C169   C171    1.446   1_545 D
C169   C174    1.430   .     S
C169   H237    1.080   .     S
C170   C172    1.433   .     D
C170   C173    1.460   1_565 S
C170   H238    1.080   .     S
C171   C169    1.446   1_565 D
C171   C172    1.432   .     S
C171   H239    1.081   1_556 S
C173   C170    1.460   1_545 S
C173   C174    1.435   .     D
C173   H240    1.080   .     S
C174   C178    1.613   .     S
C175   C177    1.442   .     D
C175   C180    1.428   .     S
C175   H241    1.083   .     S
C176   C178    1.440   .     D
C176   C179    1.462   .     S
C176   H242    1.082   .     S
C177   C178    1.426   .     S
C177   H243    1.080   .     S
C179   C180    1.430   .     D
C179   H244    1.082   .     S
C181   C183    1.440   .     S
C181   C186    1.429   .     D
C181   H245    1.081   .     S
C182   C184    1.435   .     S
C182   C185    1.457   .     D
C182   H246    1.082   .     S
C183   C184    1.420   .     D
C183   H247    1.082   .     S
C184   C204    1.597   .     S
C185   C186    1.430   .     S
C185   H248    1.082   .     S
C187   C189    1.461   1_565 S
C187   C192    1.429   .     D
C187   H249    1.082   .     S
C188   C190    1.428   .     S
C188   C191    1.442   1_545 D
C188   H250    1.080   .     S
C189   C187    1.461   1_545 S
C189   C190    1.440   .     D
C189   H251    1.081   .     S
C190   C208    1.616   .     S
C191   C188    1.442   1_565 D
C191   C192    1.428   .     S
C191   H252    1.083   .     S
C193   C195    1.441   1_545 D
C193   C198    1.419   .     S
C193   H253    1.083   .     S
C194   C196    1.427   .     D
C194   C197    1.456   1_565 S
C194   H254    1.082   .     S
C195   C193    1.441   1_565 D
C195   C196    1.431   .     S
C195   H255    1.083   .     S
C197   C194    1.456   1_545 S
C197   C198    1.434   .     D
C197   H256    1.082   .     S
C198   C214    1.594   .     S
C199   C201    1.452   1_545 S
C199   C204    1.422   .     D
C199   H257    1.075   .     S
C200   C202    1.421   1_545 S
C200   C203    1.530   .     D
C200   H258    1.078   .     S
C201   C199    1.452   1_565 S
C201   C202    1.430   .     D
C201   H259    1.062   .     S
C202   C200    1.421   1_565 S
C203   C204    1.415   .     S
C203   H260    1.071   .     S
C205   C207    1.453   .     D
C205   C210    1.433   .     S
C205   H261    1.068   .     S
C206   C208    1.428   .     D
C206   C209    1.453   .     S
C206   H262    1.081   .     S
C207   C208    1.432   .     S
C207   H263    1.079   .     S
C209   C210    1.440   .     D
C209   H264    1.074   .     S
C211   C213    1.441   .     S
C211   C216    1.416   .     D
C211   H265    1.080   .     S
C212   C214    1.419   .     S
C212   C215    1.450   .     D
C212   H266    1.072   .     S
C213   C214    1.419   .     D
C213   H267    1.066   .     S
C215   C216    1.425   .     S
C215   H268    1.074   .     S
H226   C152    1.078   1_655 S
H230   C159    1.081   1_455 S
H239   C171    1.081   1_554 S
C269   C270    1.426   .     S
C269   C272    1.434   .     D
C269   C538    1.638   .     S
C270   C275    1.446   .     D
C270   H351    1.081   .     S
N271   C273    1.520   .     S
N271   C432    1.345   .     D
C272   C274    1.449   .     S
C272   H352    1.080   .     S
C273   C274    1.423   .     D
C273   C275    1.427   .     S
C274   H353    1.077   .     S
C275   H354    1.081   .     S
C276   C277    1.433   .     D
C276   C279    1.427   .     S
C276   C538    1.643   1_545 S
C277   C280    1.452   .     S
C277   H355    1.079   .     S
C278   C280    1.425   .     D
C278   N281    1.523   .     S
C278   C282    1.426   .     S
C279   C282    1.447   .     D
C279   H356    1.081   .     S
C280   H357    1.076   .     S
C282   H358    1.081   .     S
C283   C284    1.424   .     D
C283   C286    1.433   .     S
C283   C540    1.645   .     S
C284   C287    1.449   .     S
C284   H359    1.076   .     S
C285   C287    1.427   .     D
C285   N288    1.523   1_565 S
C285   C289    1.424   .     S
C286   C289    1.452   .     D
C286   H360    1.078   1_455 S
C287   H361    1.082   .     S
N288   C285    1.523   1_545 S
N288   C433    1.346   .     D
C289   H362    1.077   .     S
C290   C291    1.434   .     D
C290   C293    1.428   .     S
C290   C540    1.642   1_655 S
C291   C296    1.452   .     S
C291   H363    1.080   .     S
N292   C294    1.522   1_565 S
C293   C295    1.446   .     D
C293   H364    1.081   1_655 S
C294   N292    1.522   1_545 S
C294   C295    1.426   .     S
C294   C296    1.424   .     D
C295   H365    1.081   .     S
C296   H366    1.077   .     S
C297   C300    1.452   .     D
C297   C306    1.622   .     S
C297   C350    1.588   .     S
C298   C330    1.593   .     S
C298   H367    1.079   .     S
C298   N405    1.345   .     D
C299   C314    1.601   .     S
C299   H368    1.079   .     S
C299   N422    1.346   .     D
C300   C336    1.613   .     S
C300   C344    1.640   .     S
C301   C320    1.597   .     S
C301   H369    1.078   .     S
C302   C326    1.601   .     S
C302   H370    1.080   .     S
C303   C305    1.446   1_565 D
C303   C308    1.430   .     S
C303   H371    1.080   .     S
C304   C306    1.433   .     D
C304   C307    1.460   1_545 S
C304   H372    1.080   .     S
C305   C303    1.446   1_545 D
C305   C306    1.432   .     S
C305   H373    1.081   .     S
C307   C304    1.460   1_565 S
C307   C308    1.435   .     D
C307   H374    1.080   .     S
C308   C312    1.613   .     S
C309   C311    1.442   .     D
C309   C314    1.428   .     S
C309   H375    1.083   .     S
C310   C312    1.440   .     D
C310   C313    1.462   .     S
C310   H376    1.082   .     S
C311   C312    1.426   .     S
C311   H377    1.080   .     S
C313   C314    1.430   .     D
C313   H378    1.082   .     S
C315   C317    1.440   .     D
C315   C320    1.429   .     S
C315   H379    1.081   .     S
C316   C318    1.435   .     D
C316   C319    1.457   .     S
C316   H380    1.082   .     S
C317   C318    1.420   .     S
C317   H381    1.082   .     S
C318   C338    1.597   .     S
C319   C320    1.430   .     D
C319   H382    1.082   .     S
C321   C323    1.461   1_545 S
C321   C326    1.429   .     D
C321   H383    1.082   .     S
C322   C324    1.428   .     S
C322   C325    1.442   1_565 D
C322   H384    1.080   .     S
C323   C321    1.461   1_565 S
C323   C324    1.440   .     D
C323   H385    1.081   .     S
C324   C342    1.616   .     S
C325   C322    1.442   1_545 D
C325   C326    1.428   .     S
C325   H386    1.083   .     S
C327   C329    1.441   1_565 S
C327   C332    1.419   .     D
C327   H387    1.083   .     S
C328   C330    1.427   .     S
C328   C331    1.456   1_545 D
C328   H388    1.082   .     S
C329   C327    1.441   1_545 S
C329   C330    1.431   .     D
C329   H389    1.083   .     S
C331   C328    1.456   1_565 D
C331   C332    1.434   .     S
C331   H390    1.082   .     S
C332   C348    1.594   .     S
C333   C335    1.452   1_565 D
C333   C338    1.422   .     S
C333   H391    1.075   .     S
C334   C336    1.421   1_565 D
C334   C337    1.530   .     S
C334   H392    1.078   .     S
C335   C333    1.452   1_545 D
C335   C336    1.430   .     S
C335   H393    1.062   .     S
C336   C334    1.421   1_545 D
C337   C338    1.415   .     D
C337   H394    1.071   .     S
C339   C341    1.453   .     D
C339   C344    1.433   .     S
C339   H395    1.068   .     S
C340   C342    1.428   .     D
C340   C343    1.453   .     S
C340   H396    1.081   .     S
C341   C342    1.432   .     S
C341   H397    1.079   .     S
C343   C344    1.440   .     D
C343   H398    1.074   .     S
C345   C347    1.441   .     D
C345   C350    1.416   .     S
C345   H399    1.080   .     S
C346   C348    1.419   .     D
C346   C349    1.450   .     S
C346   H400    1.072   .     S
C347   C348    1.419   .     S
C347   H401    1.066   .     S
C349   C350    1.425   .     D
C349   H402    1.074   .     S
H360   C286    1.078   1_655 S
H364   C293    1.081   1_455 S
C403   C404    1.426   .     S
C403   C406    1.434   .     D
C403   C538    1.638   .     S
C404   C409    1.446   .     D
C404   H485    1.081   .     S
N405   C407    1.520   .     S
C406   C408    1.449   .     S
C406   H486    1.080   .     S
C407   C408    1.423   .     D
C407   C409    1.427   .     S
C408   H487    1.077   .     S
C409   H488    1.081   .     S
C410   C411    1.433   .     D
C410   C413    1.427   .     S
C410   C538    1.643   1_545 S
C411   C414    1.452   .     S
C411   H489    1.079   .     S
C412   C414    1.425   .     D
C412   N415    1.523   .     S
C412   C416    1.426   .     S
C413   C416    1.447   .     D
C413   H490    1.081   .     S
C414   H491    1.076   .     S
C416   H492    1.081   .     S
C417   C418    1.424   .     S
C417   C420    1.433   .     D
C417   C540    1.645   1_655 S
C418   C421    1.449   .     D
C418   H493    1.076   .     S
C419   C421    1.427   .     S
C419   N422    1.523   1_565 S
C419   C423    1.424   .     D
C420   C423    1.452   .     S
C420   H494    1.078   1_655 S
C421   H495    1.082   .     S
N422   C419    1.523   1_545 S
C423   H496    1.077   .     S
C424   C425    1.434   .     S
C424   C427    1.428   .     D
C424   C540    1.642   .     S
C425   C430    1.452   .     D
C425   H497    1.080   .     S
N426   C428    1.522   1_565 S
C427   C429    1.446   .     S
C427   H498    1.081   1_455 S
C428   N426    1.522   1_545 S
C428   C429    1.426   .     D
C428   C430    1.424   .     S
C429   H499    1.081   .     S
C430   H500    1.077   .     S
C431   C434    1.452   1_554 D
C431   C440    1.622   .     S
C431   C484    1.588   .     S
C432   C464    1.593   .     S
C432   H501    1.079   .     S
C433   C448    1.601   .     S
C433   H502    1.079   .     S
C434   C431    1.452   1_556 D
C434   C470    1.613   .     S
C434   C478    1.640   .     S
C435   C454    1.597   .     S
C435   H503    1.078   .     S
C436   C460    1.601   .     S
C436   H504    1.080   .     S
C437   C439    1.446   1_565 S
C437   C442    1.430   .     D
C437   H505    1.080   .     S
C438   C440    1.433   .     S
C438   C441    1.460   1_545 D
C438   H506    1.080   .     S
C439   C437    1.446   1_545 S
C439   C440    1.432   .     D
C439   H507    1.081   1_554 S
C441   C438    1.460   1_565 D
C441   C442    1.435   .     S
C441   H508    1.080   .     S
C442   C446    1.613   .     S
C443   C445    1.442   .     S
C443   C448    1.428   .     D
C443   H509    1.083   .     S
C444   C446    1.440   .     S
C444   C447    1.462   .     D
C444   H510    1.082   .     S
C445   C446    1.426   .     D
C445   H511    1.080   .     S
C447   C448    1.430   .     S
C447   H512    1.082   .     S
C449   C451    1.440   .     D
C449   C454    1.429   .     S
C449   H513    1.081   .     S
C450   C452    1.435   .     D
C450   C453    1.457   .     S
C450   H514    1.082   .     S
C451   C452    1.420   .     S
C451   H515    1.082   .     S
C452   C472    1.597   .     S
C453   C454    1.430   .     D
C453   H516    1.082   .     S
C455   C457    1.461   1_545 D
C455   C460    1.429   .     S
C455   H517    1.082   .     S
C456   C458    1.428   .     D
C456   C459    1.442   1_565 S
C456   H518    1.080   .     S
C457   C455    1.461   1_565 D
C457   C458    1.440   .     S
C457   H519    1.081   .     S
C458   C476    1.616   .     S
C459   C456    1.442   1_545 S
C459   C460    1.428   .     D
C459   H520    1.083   .     S
C461   C463    1.441   1_565 S
C461   C466    1.419   .     D
C461   H521    1.083   .     S
C462   C464    1.427   .     S
C462   C465    1.456   1_545 D
C462   H522    1.082   .     S
C463   C461    1.441   1_545 S
C463   C464    1.431   .     D
C463   H523    1.083   .     S
C465   C462    1.456   1_565 D
C465   C466    1.434   .     S
C465   H524    1.082   .     S
C466   C482    1.594   .     S
C467   C469    1.452   1_565 D
C467   C472    1.422   .     S
C467   H525    1.075   .     S
C468   C470    1.421   1_565 D
C468   C471    1.530   .     S
C468   H526    1.078   .     S
C469   C467    1.452   1_545 D
C469   C470    1.430   .     S
C469   H527    1.062   .     S
C470   C468    1.421   1_545 D
C471   C472    1.415   .     D
C471   H528    1.071   .     S
C473   C475    1.453   .     S
C473   C478    1.433   .     D
C473   H529    1.068   .     S
C474   C476    1.428   .     S
C474   C477    1.453   .     D
C474   H530    1.081   .     S
C475   C476    1.432   .     D
C475   H531    1.079   .     S
C477   C478    1.440   .     S
C477   H532    1.074   .     S
C479   C481    1.441   .     S
C479   C484    1.416   .     D
C479   H533    1.080   .     S
C480   C482    1.419   .     S
C480   C483    1.450   .     D
C480   H534    1.072   .     S
C481   C482    1.419   .     D
C481   H535    1.066   .     S
C483   C484    1.425   .     S
C483   H536    1.074   .     S
H494   C420    1.078   1_455 S
H498   C427    1.081   1_655 S
H507   C439    1.081   1_556 S
C537   C8      1.643   1_545 S
C537   C142    1.643   1_545 S
C538   C410    1.643   1_565 S
C538   C276    1.643   1_565 S
C539   C15     1.645   1_455 S
C539   C156    1.642   1_455 S
C540   C417    1.645   1_455 S
C540   C290    1.642   1_455 S
