data_217
_audit_creation_date              2023-09-08
_audit_creation_method            'Materials Studio'
_symmetry_space_group_name_H-M    'P1'
_symmetry_Int_Tables_number       1
_symmetry_cell_setting            triclinic
loop_
_symmetry_equiv_pos_as_xyz
  x,y,z
_cell_length_a                    40.8324
_cell_length_b                    40.8324
_cell_length_c                    40.8324
_cell_angle_alpha                 90.0000
_cell_angle_beta                  90.0000
_cell_angle_gamma                 90.0000
loop_
_atom_site_label
_atom_site_type_symbol
_atom_site_fract_x
_atom_site_fract_y
_atom_site_fract_z
_atom_site_U_iso_or_equiv
_atom_site_adp_type
_atom_site_occupancy
N1     N     0.26164   0.33294   0.94055   0.00000  Uiso   1.00
C2     C     0.24169   0.31133   0.92874   0.00000  Uiso   1.00
C3     C     0.25548   0.35301   0.96952   0.00000  Uiso   1.00
B4     B     0.27568   0.23426   0.81300   0.00000  Uiso   1.00
O5     O     0.29416   0.80436   0.74408   0.00000  Uiso   1.00
C6     C     0.62518   0.47531   0.21425   0.00000  Uiso   1.00
H7     H     0.64066   0.47901   0.19227   0.00000  Uiso   1.00
H8     H     0.61006   0.45325   0.20976   0.00000  Uiso   1.00
H9     H     0.93477   0.52155   0.74652   0.00000  Uiso   1.00
C10    C     0.25037   0.70777   0.60050   0.00000  Uiso   1.00
C11    C     0.26618   0.74511   0.65609   0.00000  Uiso   1.00
C12    C     0.22967   0.73289   0.61093   0.00000  Uiso   1.00
C13    C     0.23744   0.75155   0.63841   0.00000  Uiso   1.00
C14    C     0.27901   0.70134   0.61816   0.00000  Uiso   1.00
C15    C     0.28677   0.71978   0.64573   0.00000  Uiso   1.00
H16    H     0.21847   0.30683   0.94050   0.00000  Uiso   1.00
H17    H     0.20745   0.73820   0.59767   0.00000  Uiso   1.00
F18    F     0.21670   0.77566   0.64757   0.00000  Uiso   1.00
H19    H     0.29542   0.68204   0.61073   0.00000  Uiso   1.00
H20    H     0.30905   0.71421   0.65879   0.00000  Uiso   1.00
N21    N     0.76164   0.83294   0.44055   0.00000  Uiso   1.00
C22    C     0.74169   0.81133   0.42874   0.00000  Uiso   1.00
C23    C     0.75548   0.85301   0.46952   0.00000  Uiso   1.00
B24    B     0.77568   0.73426   0.31300   0.00000  Uiso   1.00
O25    O     0.79416   0.30436   0.24408   0.00000  Uiso   1.00
C26    C     0.12518   0.97531   0.71425   0.00000  Uiso   1.00
H27    H     0.14066   0.97901   0.69227   0.00000  Uiso   1.00
H28    H     0.11006   0.95325   0.70976   0.00000  Uiso   1.00
H29    H     0.43477   0.02155   0.24652   0.00000  Uiso   1.00
C30    C     0.75037   0.20777   0.10050   0.00000  Uiso   1.00
C31    C     0.76618   0.24511   0.15609   0.00000  Uiso   1.00
C32    C     0.72967   0.23289   0.11093   0.00000  Uiso   1.00
C33    C     0.73744   0.25155   0.13841   0.00000  Uiso   1.00
C34    C     0.77901   0.20134   0.11816   0.00000  Uiso   1.00
C35    C     0.78677   0.21978   0.14573   0.00000  Uiso   1.00
H36    H     0.71847   0.80683   0.44050   0.00000  Uiso   1.00
H37    H     0.70745   0.23820   0.09767   0.00000  Uiso   1.00
F38    F     0.71670   0.27566   0.14757   0.00000  Uiso   1.00
H39    H     0.79542   0.18204   0.11073   0.00000  Uiso   1.00
H40    H     0.80905   0.21421   0.15879   0.00000  Uiso   1.00
N41    N     0.23836   0.66706   0.44055   0.00000  Uiso   1.00
C42    C     0.25831   0.68867   0.42874   0.00000  Uiso   1.00
C43    C     0.24452   0.64699   0.46952   0.00000  Uiso   1.00
B44    B     0.22432   0.76574   0.31300   0.00000  Uiso   1.00
O45    O     0.20584   0.19564   0.24408   0.00000  Uiso   1.00
C46    C     0.87482   0.52469   0.71425   0.00000  Uiso   1.00
H47    H     0.85934   0.52099   0.69227   0.00000  Uiso   1.00
H48    H     0.88994   0.54675   0.70976   0.00000  Uiso   1.00
H49    H     0.56523   0.47845   0.24652   0.00000  Uiso   1.00
C50    C     0.24963   0.29223   0.10050   0.00000  Uiso   1.00
C51    C     0.23382   0.25489   0.15609   0.00000  Uiso   1.00
C52    C     0.27033   0.26711   0.11093   0.00000  Uiso   1.00
C53    C     0.26256   0.24845   0.13841   0.00000  Uiso   1.00
C54    C     0.22099   0.29866   0.11816   0.00000  Uiso   1.00
C55    C     0.21323   0.28022   0.14573   0.00000  Uiso   1.00
H56    H     0.28153   0.69317   0.44050   0.00000  Uiso   1.00
H57    H     0.29255   0.26180   0.09767   0.00000  Uiso   1.00
F58    F     0.28330   0.22434   0.14757   0.00000  Uiso   1.00
H59    H     0.20458   0.31796   0.11073   0.00000  Uiso   1.00
H60    H     0.19095   0.28579   0.15879   0.00000  Uiso   1.00
N61    N     0.73836   0.16706   0.94055   0.00000  Uiso   1.00
C62    C     0.75831   0.18867   0.92874   0.00000  Uiso   1.00
C63    C     0.74452   0.14699   0.96952   0.00000  Uiso   1.00
B64    B     0.72432   0.26574   0.81300   0.00000  Uiso   1.00
O65    O     0.70584   0.69564   0.74408   0.00000  Uiso   1.00
C66    C     0.37482   0.02469   0.21425   0.00000  Uiso   1.00
H67    H     0.35934   0.02099   0.19227   0.00000  Uiso   1.00
H68    H     0.38994   0.04675   0.20976   0.00000  Uiso   1.00
H69    H     0.06523   0.97845   0.74652   0.00000  Uiso   1.00
C70    C     0.74963   0.79223   0.60050   0.00000  Uiso   1.00
C71    C     0.73382   0.75489   0.65609   0.00000  Uiso   1.00
C72    C     0.77033   0.76711   0.61093   0.00000  Uiso   1.00
C73    C     0.76256   0.74845   0.63841   0.00000  Uiso   1.00
C74    C     0.72099   0.79866   0.61816   0.00000  Uiso   1.00
C75    C     0.71323   0.78022   0.64573   0.00000  Uiso   1.00
H76    H     0.78153   0.19317   0.94050   0.00000  Uiso   1.00
H77    H     0.79255   0.76180   0.59767   0.00000  Uiso   1.00
F78    F     0.78330   0.72434   0.64757   0.00000  Uiso   1.00
H79    H     0.70458   0.81796   0.61073   0.00000  Uiso   1.00
H80    H     0.69095   0.78579   0.65879   0.00000  Uiso   1.00
N81    N     0.73836   0.83294   0.55945   0.00000  Uiso   1.00
C82    C     0.75831   0.81133   0.57126   0.00000  Uiso   1.00
C83    C     0.74452   0.85301   0.53048   0.00000  Uiso   1.00
B84    B     0.72432   0.73426   0.68700   0.00000  Uiso   1.00
O85    O     0.70584   0.30436   0.75592   0.00000  Uiso   1.00
C86    C     0.37482   0.97531   0.28575   0.00000  Uiso   1.00
H87    H     0.35934   0.97901   0.30773   0.00000  Uiso   1.00
H88    H     0.38994   0.95325   0.29024   0.00000  Uiso   1.00
H89    H     0.06523   0.02155   0.75348   0.00000  Uiso   1.00
C90    C     0.74963   0.20777   0.89950   0.00000  Uiso   1.00
C91    C     0.73382   0.24511   0.84391   0.00000  Uiso   1.00
C92    C     0.77033   0.23289   0.88907   0.00000  Uiso   1.00
C93    C     0.76256   0.25155   0.86159   0.00000  Uiso   1.00
C94    C     0.72099   0.20134   0.88184   0.00000  Uiso   1.00
C95    C     0.71323   0.21978   0.85427   0.00000  Uiso   1.00
H96    H     0.78153   0.80683   0.55950   0.00000  Uiso   1.00
H97    H     0.79255   0.23820   0.90233   0.00000  Uiso   1.00
F98    F     0.78330   0.27566   0.85243   0.00000  Uiso   1.00
H99    H     0.70458   0.18204   0.88927   0.00000  Uiso   1.00
H100   H     0.69095   0.21421   0.84121   0.00000  Uiso   1.00
N101   N     0.23836   0.33294   0.05945   0.00000  Uiso   1.00
C102   C     0.25831   0.31133   0.07126   0.00000  Uiso   1.00
C103   C     0.24452   0.35301   0.03048   0.00000  Uiso   1.00
B104   B     0.22432   0.23426   0.18700   0.00000  Uiso   1.00
O105   O     0.20584   0.80436   0.25592   0.00000  Uiso   1.00
C106   C     0.87482   0.47531   0.78575   0.00000  Uiso   1.00
H107   H     0.85934   0.47901   0.80773   0.00000  Uiso   1.00
H108   H     0.88994   0.45325   0.79024   0.00000  Uiso   1.00
H109   H     0.56523   0.52155   0.25348   0.00000  Uiso   1.00
C110   C     0.24963   0.70777   0.39950   0.00000  Uiso   1.00
C111   C     0.23382   0.74511   0.34391   0.00000  Uiso   1.00
C112   C     0.27033   0.73289   0.38907   0.00000  Uiso   1.00
C113   C     0.26256   0.75155   0.36159   0.00000  Uiso   1.00
C114   C     0.22099   0.70134   0.38184   0.00000  Uiso   1.00
C115   C     0.21323   0.71978   0.35427   0.00000  Uiso   1.00
H116   H     0.28153   0.30683   0.05950   0.00000  Uiso   1.00
H117   H     0.29255   0.73820   0.40233   0.00000  Uiso   1.00
F118   F     0.28330   0.77566   0.35243   0.00000  Uiso   1.00
H119   H     0.20458   0.68204   0.38927   0.00000  Uiso   1.00
H120   H     0.19095   0.71421   0.34121   0.00000  Uiso   1.00
N121   N     0.76164   0.16706   0.05945   0.00000  Uiso   1.00
C122   C     0.74169   0.18867   0.07126   0.00000  Uiso   1.00
C123   C     0.75548   0.14699   0.03048   0.00000  Uiso   1.00
B124   B     0.77568   0.26574   0.18700   0.00000  Uiso   1.00
O125   O     0.79416   0.69564   0.25592   0.00000  Uiso   1.00
C126   C     0.12518   0.02469   0.78575   0.00000  Uiso   1.00
H127   H     0.14066   0.02099   0.80773   0.00000  Uiso   1.00
H128   H     0.11006   0.04675   0.79024   0.00000  Uiso   1.00
H129   H     0.43477   0.97845   0.25348   0.00000  Uiso   1.00
C130   C     0.75037   0.79223   0.39950   0.00000  Uiso   1.00
C131   C     0.76618   0.75489   0.34391   0.00000  Uiso   1.00
C132   C     0.72967   0.76711   0.38907   0.00000  Uiso   1.00
C133   C     0.73744   0.74845   0.36159   0.00000  Uiso   1.00
C134   C     0.77901   0.79866   0.38184   0.00000  Uiso   1.00
C135   C     0.78677   0.78022   0.35427   0.00000  Uiso   1.00
H136   H     0.71847   0.19317   0.05950   0.00000  Uiso   1.00
H137   H     0.70745   0.76180   0.40233   0.00000  Uiso   1.00
F138   F     0.71670   0.72434   0.35243   0.00000  Uiso   1.00
H139   H     0.79542   0.81796   0.38927   0.00000  Uiso   1.00
H140   H     0.80905   0.78579   0.34121   0.00000  Uiso   1.00
N141   N     0.26164   0.66706   0.55945   0.00000  Uiso   1.00
C142   C     0.24169   0.68867   0.57126   0.00000  Uiso   1.00
C143   C     0.25548   0.64699   0.53048   0.00000  Uiso   1.00
B144   B     0.27568   0.76574   0.68700   0.00000  Uiso   1.00
O145   O     0.29416   0.19564   0.75592   0.00000  Uiso   1.00
C146   C     0.62518   0.52469   0.28575   0.00000  Uiso   1.00
H147   H     0.64066   0.52099   0.30773   0.00000  Uiso   1.00
H148   H     0.61006   0.54675   0.29024   0.00000  Uiso   1.00
H149   H     0.93477   0.47845   0.75348   0.00000  Uiso   1.00
C150   C     0.25037   0.29223   0.89950   0.00000  Uiso   1.00
C151   C     0.26618   0.25489   0.84391   0.00000  Uiso   1.00
C152   C     0.22967   0.26711   0.88907   0.00000  Uiso   1.00
C153   C     0.23744   0.24845   0.86159   0.00000  Uiso   1.00
C154   C     0.27901   0.29866   0.88184   0.00000  Uiso   1.00
C155   C     0.28677   0.28022   0.85427   0.00000  Uiso   1.00
H156   H     0.21847   0.69317   0.55950   0.00000  Uiso   1.00
H157   H     0.20745   0.26180   0.90233   0.00000  Uiso   1.00
F158   F     0.21670   0.22434   0.85243   0.00000  Uiso   1.00
H159   H     0.29542   0.31796   0.88927   0.00000  Uiso   1.00
H160   H     0.30905   0.28579   0.84121   0.00000  Uiso   1.00
N161   N     0.94055   0.26164   0.33294   0.00000  Uiso   1.00
C162   C     0.92874   0.24169   0.31133   0.00000  Uiso   1.00
C163   C     0.96952   0.25548   0.35301   0.00000  Uiso   1.00
B164   B     0.81300   0.27568   0.23426   0.00000  Uiso   1.00
O165   O     0.74408   0.29416   0.80436   0.00000  Uiso   1.00
C166   C     0.21425   0.62518   0.47531   0.00000  Uiso   1.00
H167   H     0.19227   0.64066   0.47901   0.00000  Uiso   1.00
H168   H     0.20976   0.61006   0.45325   0.00000  Uiso   1.00
H169   H     0.74652   0.93477   0.52155   0.00000  Uiso   1.00
C170   C     0.60050   0.25037   0.70777   0.00000  Uiso   1.00
C171   C     0.65609   0.26618   0.74511   0.00000  Uiso   1.00
C172   C     0.61093   0.22967   0.73289   0.00000  Uiso   1.00
C173   C     0.63841   0.23744   0.75155   0.00000  Uiso   1.00
C174   C     0.61816   0.27901   0.70134   0.00000  Uiso   1.00
C175   C     0.64573   0.28677   0.71978   0.00000  Uiso   1.00
H176   H     0.94050   0.21847   0.30683   0.00000  Uiso   1.00
H177   H     0.59767   0.20745   0.73820   0.00000  Uiso   1.00
F178   F     0.64757   0.21670   0.77566   0.00000  Uiso   1.00
H179   H     0.61073   0.29542   0.68204   0.00000  Uiso   1.00
H180   H     0.65879   0.30905   0.71421   0.00000  Uiso   1.00
N181   N     0.44055   0.76164   0.83294   0.00000  Uiso   1.00
C182   C     0.42874   0.74169   0.81133   0.00000  Uiso   1.00
C183   C     0.46952   0.75548   0.85301   0.00000  Uiso   1.00
B184   B     0.31300   0.77568   0.73426   0.00000  Uiso   1.00
O185   O     0.24408   0.79416   0.30436   0.00000  Uiso   1.00
C186   C     0.71425   0.12518   0.97531   0.00000  Uiso   1.00
H187   H     0.69227   0.14066   0.97901   0.00000  Uiso   1.00
H188   H     0.70976   0.11006   0.95325   0.00000  Uiso   1.00
H189   H     0.24652   0.43477   0.02155   0.00000  Uiso   1.00
C190   C     0.10050   0.75037   0.20777   0.00000  Uiso   1.00
C191   C     0.15609   0.76618   0.24511   0.00000  Uiso   1.00
C192   C     0.11093   0.72967   0.23289   0.00000  Uiso   1.00
C193   C     0.13841   0.73744   0.25155   0.00000  Uiso   1.00
C194   C     0.11816   0.77901   0.20134   0.00000  Uiso   1.00
C195   C     0.14573   0.78677   0.21978   0.00000  Uiso   1.00
H196   H     0.44050   0.71847   0.80683   0.00000  Uiso   1.00
H197   H     0.09767   0.70745   0.23820   0.00000  Uiso   1.00
F198   F     0.14757   0.71670   0.27566   0.00000  Uiso   1.00
H199   H     0.11073   0.79542   0.18204   0.00000  Uiso   1.00
H200   H     0.15879   0.80905   0.21421   0.00000  Uiso   1.00
N201   N     0.44055   0.23836   0.66706   0.00000  Uiso   1.00
C202   C     0.42874   0.25831   0.68867   0.00000  Uiso   1.00
C203   C     0.46952   0.24452   0.64699   0.00000  Uiso   1.00
B204   B     0.31300   0.22432   0.76574   0.00000  Uiso   1.00
O205   O     0.24408   0.20584   0.19564   0.00000  Uiso   1.00
C206   C     0.71425   0.87482   0.52469   0.00000  Uiso   1.00
H207   H     0.69227   0.85934   0.52099   0.00000  Uiso   1.00
H208   H     0.70976   0.88994   0.54675   0.00000  Uiso   1.00
H209   H     0.24652   0.56523   0.47845   0.00000  Uiso   1.00
C210   C     0.10050   0.24963   0.29223   0.00000  Uiso   1.00
C211   C     0.15609   0.23382   0.25489   0.00000  Uiso   1.00
C212   C     0.11093   0.27033   0.26711   0.00000  Uiso   1.00
C213   C     0.13841   0.26256   0.24845   0.00000  Uiso   1.00
C214   C     0.11816   0.22099   0.29866   0.00000  Uiso   1.00
C215   C     0.14573   0.21323   0.28022   0.00000  Uiso   1.00
H216   H     0.44050   0.28153   0.69317   0.00000  Uiso   1.00
H217   H     0.09767   0.29255   0.26180   0.00000  Uiso   1.00
F218   F     0.14757   0.28330   0.22434   0.00000  Uiso   1.00
H219   H     0.11073   0.20458   0.31796   0.00000  Uiso   1.00
H220   H     0.15879   0.19095   0.28579   0.00000  Uiso   1.00
N221   N     0.94055   0.73836   0.16706   0.00000  Uiso   1.00
C222   C     0.92874   0.75831   0.18867   0.00000  Uiso   1.00
C223   C     0.96952   0.74452   0.14699   0.00000  Uiso   1.00
B224   B     0.81300   0.72432   0.26574   0.00000  Uiso   1.00
O225   O     0.74408   0.70584   0.69564   0.00000  Uiso   1.00
C226   C     0.21425   0.37482   0.02469   0.00000  Uiso   1.00
H227   H     0.19227   0.35934   0.02099   0.00000  Uiso   1.00
H228   H     0.20976   0.38994   0.04675   0.00000  Uiso   1.00
H229   H     0.74652   0.06523   0.97845   0.00000  Uiso   1.00
C230   C     0.60050   0.74963   0.79223   0.00000  Uiso   1.00
C231   C     0.65609   0.73382   0.75489   0.00000  Uiso   1.00
C232   C     0.61093   0.77033   0.76711   0.00000  Uiso   1.00
C233   C     0.63841   0.76256   0.74845   0.00000  Uiso   1.00
C234   C     0.61816   0.72099   0.79866   0.00000  Uiso   1.00
C235   C     0.64573   0.71323   0.78022   0.00000  Uiso   1.00
H236   H     0.94050   0.78153   0.19317   0.00000  Uiso   1.00
H237   H     0.59767   0.79255   0.76180   0.00000  Uiso   1.00
F238   F     0.64757   0.78330   0.72434   0.00000  Uiso   1.00
H239   H     0.61073   0.70458   0.81796   0.00000  Uiso   1.00
H240   H     0.65879   0.69095   0.78579   0.00000  Uiso   1.00
N241   N     0.55945   0.73836   0.83294   0.00000  Uiso   1.00
C242   C     0.57126   0.75831   0.81133   0.00000  Uiso   1.00
C243   C     0.53048   0.74452   0.85301   0.00000  Uiso   1.00
B244   B     0.68700   0.72432   0.73426   0.00000  Uiso   1.00
O245   O     0.75592   0.70584   0.30436   0.00000  Uiso   1.00
C246   C     0.28575   0.37482   0.97531   0.00000  Uiso   1.00
H247   H     0.30773   0.35934   0.97901   0.00000  Uiso   1.00
H248   H     0.29024   0.38994   0.95325   0.00000  Uiso   1.00
H249   H     0.75348   0.06523   0.02155   0.00000  Uiso   1.00
C250   C     0.89950   0.74963   0.20777   0.00000  Uiso   1.00
C251   C     0.84391   0.73382   0.24511   0.00000  Uiso   1.00
C252   C     0.88907   0.77033   0.23289   0.00000  Uiso   1.00
C253   C     0.86159   0.76256   0.25155   0.00000  Uiso   1.00
C254   C     0.88184   0.72099   0.20134   0.00000  Uiso   1.00
C255   C     0.85427   0.71323   0.21978   0.00000  Uiso   1.00
H256   H     0.55950   0.78153   0.80683   0.00000  Uiso   1.00
H257   H     0.90233   0.79255   0.23820   0.00000  Uiso   1.00
F258   F     0.85243   0.78330   0.27566   0.00000  Uiso   1.00
H259   H     0.88927   0.70458   0.18204   0.00000  Uiso   1.00
H260   H     0.84121   0.69095   0.21421   0.00000  Uiso   1.00
N261   N     0.05945   0.23836   0.33294   0.00000  Uiso   1.00
C262   C     0.07126   0.25831   0.31133   0.00000  Uiso   1.00
C263   C     0.03048   0.24452   0.35301   0.00000  Uiso   1.00
B264   B     0.18700   0.22432   0.23426   0.00000  Uiso   1.00
O265   O     0.25592   0.20584   0.80436   0.00000  Uiso   1.00
C266   C     0.78575   0.87482   0.47531   0.00000  Uiso   1.00
H267   H     0.80773   0.85934   0.47901   0.00000  Uiso   1.00
H268   H     0.79024   0.88994   0.45325   0.00000  Uiso   1.00
H269   H     0.25348   0.56523   0.52155   0.00000  Uiso   1.00
C270   C     0.39950   0.24963   0.70777   0.00000  Uiso   1.00
C271   C     0.34391   0.23382   0.74511   0.00000  Uiso   1.00
C272   C     0.38907   0.27033   0.73289   0.00000  Uiso   1.00
C273   C     0.36159   0.26256   0.75155   0.00000  Uiso   1.00
C274   C     0.38184   0.22099   0.70134   0.00000  Uiso   1.00
C275   C     0.35427   0.21323   0.71978   0.00000  Uiso   1.00
H276   H     0.05950   0.28153   0.30683   0.00000  Uiso   1.00
H277   H     0.40233   0.29255   0.73820   0.00000  Uiso   1.00
F278   F     0.35243   0.28330   0.77566   0.00000  Uiso   1.00
H279   H     0.38927   0.20458   0.68204   0.00000  Uiso   1.00
H280   H     0.34121   0.19095   0.71421   0.00000  Uiso   1.00
N281   N     0.05945   0.76164   0.16706   0.00000  Uiso   1.00
C282   C     0.07126   0.74169   0.18867   0.00000  Uiso   1.00
C283   C     0.03048   0.75548   0.14699   0.00000  Uiso   1.00
B284   B     0.18700   0.77568   0.26574   0.00000  Uiso   1.00
O285   O     0.25592   0.79416   0.69564   0.00000  Uiso   1.00
C286   C     0.78575   0.12518   0.02469   0.00000  Uiso   1.00
H287   H     0.80773   0.14066   0.02099   0.00000  Uiso   1.00
H288   H     0.79024   0.11006   0.04675   0.00000  Uiso   1.00
H289   H     0.25348   0.43477   0.97845   0.00000  Uiso   1.00
C290   C     0.39950   0.75037   0.79223   0.00000  Uiso   1.00
C291   C     0.34391   0.76618   0.75489   0.00000  Uiso   1.00
C292   C     0.38907   0.72967   0.76711   0.00000  Uiso   1.00
C293   C     0.36159   0.73744   0.74845   0.00000  Uiso   1.00
C294   C     0.38184   0.77901   0.79866   0.00000  Uiso   1.00
C295   C     0.35427   0.78677   0.78022   0.00000  Uiso   1.00
H296   H     0.05950   0.71847   0.19317   0.00000  Uiso   1.00
H297   H     0.40233   0.70745   0.76180   0.00000  Uiso   1.00
F298   F     0.35243   0.71670   0.72434   0.00000  Uiso   1.00
H299   H     0.38927   0.79542   0.81796   0.00000  Uiso   1.00
H300   H     0.34121   0.80905   0.78579   0.00000  Uiso   1.00
N301   N     0.55945   0.26164   0.66706   0.00000  Uiso   1.00
C302   C     0.57126   0.24169   0.68867   0.00000  Uiso   1.00
C303   C     0.53048   0.25548   0.64699   0.00000  Uiso   1.00
B304   B     0.68700   0.27568   0.76574   0.00000  Uiso   1.00
O305   O     0.75592   0.29416   0.19564   0.00000  Uiso   1.00
C306   C     0.28575   0.62518   0.52469   0.00000  Uiso   1.00
H307   H     0.30773   0.64066   0.52099   0.00000  Uiso   1.00
H308   H     0.29024   0.61006   0.54675   0.00000  Uiso   1.00
H309   H     0.75348   0.93477   0.47845   0.00000  Uiso   1.00
C310   C     0.89950   0.25037   0.29223   0.00000  Uiso   1.00
C311   C     0.84391   0.26618   0.25489   0.00000  Uiso   1.00
C312   C     0.88907   0.22967   0.26711   0.00000  Uiso   1.00
C313   C     0.86159   0.23744   0.24845   0.00000  Uiso   1.00
C314   C     0.88184   0.27901   0.29866   0.00000  Uiso   1.00
C315   C     0.85427   0.28677   0.28022   0.00000  Uiso   1.00
H316   H     0.55950   0.21847   0.69317   0.00000  Uiso   1.00
H317   H     0.90233   0.20745   0.26180   0.00000  Uiso   1.00
F318   F     0.85243   0.21670   0.22434   0.00000  Uiso   1.00
H319   H     0.88927   0.29542   0.31796   0.00000  Uiso   1.00
H320   H     0.84121   0.30905   0.28579   0.00000  Uiso   1.00
N321   N     0.33294   0.94055   0.26164   0.00000  Uiso   1.00
C322   C     0.31133   0.92874   0.24169   0.00000  Uiso   1.00
C323   C     0.35301   0.96952   0.25548   0.00000  Uiso   1.00
B324   B     0.23426   0.81300   0.27568   0.00000  Uiso   1.00
O325   O     0.80436   0.74408   0.29416   0.00000  Uiso   1.00
C326   C     0.47531   0.21425   0.62518   0.00000  Uiso   1.00
H327   H     0.47901   0.19227   0.64066   0.00000  Uiso   1.00
H328   H     0.45325   0.20976   0.61006   0.00000  Uiso   1.00
H329   H     0.52155   0.74652   0.93477   0.00000  Uiso   1.00
C330   C     0.70777   0.60050   0.25037   0.00000  Uiso   1.00
C331   C     0.74511   0.65609   0.26618   0.00000  Uiso   1.00
C332   C     0.73289   0.61093   0.22967   0.00000  Uiso   1.00
C333   C     0.75155   0.63841   0.23744   0.00000  Uiso   1.00
C334   C     0.70134   0.61816   0.27901   0.00000  Uiso   1.00
C335   C     0.71978   0.64573   0.28677   0.00000  Uiso   1.00
H336   H     0.30683   0.94050   0.21847   0.00000  Uiso   1.00
H337   H     0.73820   0.59767   0.20745   0.00000  Uiso   1.00
F338   F     0.77566   0.64757   0.21670   0.00000  Uiso   1.00
H339   H     0.68204   0.61073   0.29542   0.00000  Uiso   1.00
H340   H     0.71421   0.65879   0.30905   0.00000  Uiso   1.00
N341   N     0.83294   0.44055   0.76164   0.00000  Uiso   1.00
C342   C     0.81133   0.42874   0.74169   0.00000  Uiso   1.00
C343   C     0.85301   0.46952   0.75548   0.00000  Uiso   1.00
B344   B     0.73426   0.31300   0.77568   0.00000  Uiso   1.00
O345   O     0.30436   0.24408   0.79416   0.00000  Uiso   1.00
C346   C     0.97531   0.71425   0.12518   0.00000  Uiso   1.00
H347   H     0.97901   0.69227   0.14066   0.00000  Uiso   1.00
H348   H     0.95325   0.70976   0.11006   0.00000  Uiso   1.00
H349   H     0.02155   0.24652   0.43477   0.00000  Uiso   1.00
C350   C     0.20777   0.10050   0.75037   0.00000  Uiso   1.00
C351   C     0.24511   0.15609   0.76618   0.00000  Uiso   1.00
C352   C     0.23289   0.11093   0.72967   0.00000  Uiso   1.00
C353   C     0.25155   0.13841   0.73744   0.00000  Uiso   1.00
C354   C     0.20134   0.11816   0.77901   0.00000  Uiso   1.00
C355   C     0.21978   0.14573   0.78677   0.00000  Uiso   1.00
H356   H     0.80683   0.44050   0.71847   0.00000  Uiso   1.00
H357   H     0.23820   0.09767   0.70745   0.00000  Uiso   1.00
F358   F     0.27566   0.14757   0.71670   0.00000  Uiso   1.00
H359   H     0.18204   0.11073   0.79542   0.00000  Uiso   1.00
H360   H     0.21421   0.15879   0.80905   0.00000  Uiso   1.00
N361   N     0.66706   0.44055   0.23836   0.00000  Uiso   1.00
C362   C     0.68867   0.42874   0.25831   0.00000  Uiso   1.00
C363   C     0.64699   0.46952   0.24452   0.00000  Uiso   1.00
B364   B     0.76574   0.31300   0.22432   0.00000  Uiso   1.00
O365   O     0.19564   0.24408   0.20584   0.00000  Uiso   1.00
C366   C     0.52469   0.71425   0.87482   0.00000  Uiso   1.00
H367   H     0.52099   0.69227   0.85934   0.00000  Uiso   1.00
H368   H     0.54675   0.70976   0.88994   0.00000  Uiso   1.00
H369   H     0.47845   0.24652   0.56523   0.00000  Uiso   1.00
C370   C     0.29223   0.10050   0.24963   0.00000  Uiso   1.00
C371   C     0.25489   0.15609   0.23382   0.00000  Uiso   1.00
C372   C     0.26711   0.11093   0.27033   0.00000  Uiso   1.00
C373   C     0.24845   0.13841   0.26256   0.00000  Uiso   1.00
C374   C     0.29866   0.11816   0.22099   0.00000  Uiso   1.00
C375   C     0.28022   0.14573   0.21323   0.00000  Uiso   1.00
H376   H     0.69317   0.44050   0.28153   0.00000  Uiso   1.00
H377   H     0.26180   0.09767   0.29255   0.00000  Uiso   1.00
F378   F     0.22434   0.14757   0.28330   0.00000  Uiso   1.00
H379   H     0.31796   0.11073   0.20458   0.00000  Uiso   1.00
H380   H     0.28579   0.15879   0.19095   0.00000  Uiso   1.00
N381   N     0.16706   0.94055   0.73836   0.00000  Uiso   1.00
C382   C     0.18867   0.92874   0.75831   0.00000  Uiso   1.00
C383   C     0.14699   0.96952   0.74452   0.00000  Uiso   1.00
B384   B     0.26574   0.81300   0.72432   0.00000  Uiso   1.00
O385   O     0.69564   0.74408   0.70584   0.00000  Uiso   1.00
C386   C     0.02469   0.21425   0.37482   0.00000  Uiso   1.00
H387   H     0.02099   0.19227   0.35934   0.00000  Uiso   1.00
H388   H     0.04675   0.20976   0.38994   0.00000  Uiso   1.00
H389   H     0.97845   0.74652   0.06523   0.00000  Uiso   1.00
C390   C     0.79223   0.60050   0.74963   0.00000  Uiso   1.00
C391   C     0.75489   0.65609   0.73382   0.00000  Uiso   1.00
C392   C     0.76711   0.61093   0.77033   0.00000  Uiso   1.00
C393   C     0.74845   0.63841   0.76256   0.00000  Uiso   1.00
C394   C     0.79866   0.61816   0.72099   0.00000  Uiso   1.00
C395   C     0.78022   0.64573   0.71323   0.00000  Uiso   1.00
H396   H     0.19317   0.94050   0.78153   0.00000  Uiso   1.00
H397   H     0.76180   0.59767   0.79255   0.00000  Uiso   1.00
F398   F     0.72434   0.64757   0.78330   0.00000  Uiso   1.00
H399   H     0.81796   0.61073   0.70458   0.00000  Uiso   1.00
H400   H     0.78579   0.65879   0.69095   0.00000  Uiso   1.00
N401   N     0.83294   0.55945   0.73836   0.00000  Uiso   1.00
C402   C     0.81133   0.57126   0.75831   0.00000  Uiso   1.00
C403   C     0.85301   0.53048   0.74452   0.00000  Uiso   1.00
B404   B     0.73426   0.68700   0.72432   0.00000  Uiso   1.00
O405   O     0.30436   0.75592   0.70584   0.00000  Uiso   1.00
C406   C     0.97531   0.28575   0.37482   0.00000  Uiso   1.00
H407   H     0.97901   0.30773   0.35934   0.00000  Uiso   1.00
H408   H     0.95325   0.29024   0.38994   0.00000  Uiso   1.00
H409   H     0.02155   0.75348   0.06523   0.00000  Uiso   1.00
C410   C     0.20777   0.89950   0.74963   0.00000  Uiso   1.00
C411   C     0.24511   0.84391   0.73382   0.00000  Uiso   1.00
C412   C     0.23289   0.88907   0.77033   0.00000  Uiso   1.00
C413   C     0.25155   0.86159   0.76256   0.00000  Uiso   1.00
C414   C     0.20134   0.88184   0.72099   0.00000  Uiso   1.00
C415   C     0.21978   0.85427   0.71323   0.00000  Uiso   1.00
H416   H     0.80683   0.55950   0.78153   0.00000  Uiso   1.00
H417   H     0.23820   0.90233   0.79255   0.00000  Uiso   1.00
F418   F     0.27566   0.85243   0.78330   0.00000  Uiso   1.00
H419   H     0.18204   0.88927   0.70458   0.00000  Uiso   1.00
H420   H     0.21421   0.84121   0.69095   0.00000  Uiso   1.00
N421   N     0.33294   0.05945   0.23836   0.00000  Uiso   1.00
C422   C     0.31133   0.07126   0.25831   0.00000  Uiso   1.00
C423   C     0.35301   0.03048   0.24452   0.00000  Uiso   1.00
B424   B     0.23426   0.18700   0.22432   0.00000  Uiso   1.00
O425   O     0.80436   0.25592   0.20584   0.00000  Uiso   1.00
C426   C     0.47531   0.78575   0.87482   0.00000  Uiso   1.00
H427   H     0.47901   0.80773   0.85934   0.00000  Uiso   1.00
H428   H     0.45325   0.79024   0.88994   0.00000  Uiso   1.00
H429   H     0.52155   0.25348   0.56523   0.00000  Uiso   1.00
C430   C     0.70777   0.39950   0.24963   0.00000  Uiso   1.00
C431   C     0.74511   0.34391   0.23382   0.00000  Uiso   1.00
C432   C     0.73289   0.38907   0.27033   0.00000  Uiso   1.00
C433   C     0.75155   0.36159   0.26256   0.00000  Uiso   1.00
C434   C     0.70134   0.38184   0.22099   0.00000  Uiso   1.00
C435   C     0.71978   0.35427   0.21323   0.00000  Uiso   1.00
H436   H     0.30683   0.05950   0.28153   0.00000  Uiso   1.00
H437   H     0.73820   0.40233   0.29255   0.00000  Uiso   1.00
F438   F     0.77566   0.35243   0.28330   0.00000  Uiso   1.00
H439   H     0.68204   0.38927   0.20458   0.00000  Uiso   1.00
H440   H     0.71421   0.34121   0.19095   0.00000  Uiso   1.00
N441   N     0.16706   0.05945   0.76164   0.00000  Uiso   1.00
C442   C     0.18867   0.07126   0.74169   0.00000  Uiso   1.00
C443   C     0.14699   0.03048   0.75548   0.00000  Uiso   1.00
B444   B     0.26574   0.18700   0.77568   0.00000  Uiso   1.00
O445   O     0.69564   0.25592   0.79416   0.00000  Uiso   1.00
C446   C     0.02469   0.78575   0.12518   0.00000  Uiso   1.00
H447   H     0.02099   0.80773   0.14066   0.00000  Uiso   1.00
H448   H     0.04675   0.79024   0.11006   0.00000  Uiso   1.00
H449   H     0.97845   0.25348   0.43477   0.00000  Uiso   1.00
C450   C     0.79223   0.39950   0.75037   0.00000  Uiso   1.00
C451   C     0.75489   0.34391   0.76618   0.00000  Uiso   1.00
C452   C     0.76711   0.38907   0.72967   0.00000  Uiso   1.00
C453   C     0.74845   0.36159   0.73744   0.00000  Uiso   1.00
C454   C     0.79866   0.38184   0.77901   0.00000  Uiso   1.00
C455   C     0.78022   0.35427   0.78677   0.00000  Uiso   1.00
H456   H     0.19317   0.05950   0.71847   0.00000  Uiso   1.00
H457   H     0.76180   0.40233   0.70745   0.00000  Uiso   1.00
F458   F     0.72434   0.35243   0.71670   0.00000  Uiso   1.00
H459   H     0.81796   0.38927   0.79542   0.00000  Uiso   1.00
H460   H     0.78579   0.34121   0.80905   0.00000  Uiso   1.00
N461   N     0.66706   0.55945   0.26164   0.00000  Uiso   1.00
C462   C     0.68867   0.57126   0.24169   0.00000  Uiso   1.00
C463   C     0.64699   0.53048   0.25548   0.00000  Uiso   1.00
B464   B     0.76574   0.68700   0.27568   0.00000  Uiso   1.00
O465   O     0.19564   0.75592   0.29416   0.00000  Uiso   1.00
C466   C     0.52469   0.28575   0.62518   0.00000  Uiso   1.00
H467   H     0.52099   0.30773   0.64066   0.00000  Uiso   1.00
H468   H     0.54675   0.29024   0.61006   0.00000  Uiso   1.00
H469   H     0.47845   0.75348   0.93477   0.00000  Uiso   1.00
C470   C     0.29223   0.89950   0.25037   0.00000  Uiso   1.00
C471   C     0.25489   0.84391   0.26618   0.00000  Uiso   1.00
C472   C     0.26711   0.88907   0.22967   0.00000  Uiso   1.00
C473   C     0.24845   0.86159   0.23744   0.00000  Uiso   1.00
C474   C     0.29866   0.88184   0.27901   0.00000  Uiso   1.00
C475   C     0.28022   0.85427   0.28677   0.00000  Uiso   1.00
H476   H     0.69317   0.55950   0.21847   0.00000  Uiso   1.00
H477   H     0.26180   0.90233   0.20745   0.00000  Uiso   1.00
F478   F     0.22434   0.85243   0.21670   0.00000  Uiso   1.00
H479   H     0.31796   0.88927   0.29542   0.00000  Uiso   1.00
H480   H     0.28579   0.84121   0.30905   0.00000  Uiso   1.00
N481   N     0.58294   0.51164   0.19055   0.00000  Uiso   1.00
C482   C     0.56133   0.49169   0.17874   0.00000  Uiso   1.00
C483   C     0.60301   0.50548   0.21952   0.00000  Uiso   1.00
B484   B     0.48426   0.52568   0.06300   0.00000  Uiso   1.00
O485   O     0.05436   0.54416   0.99408   0.00000  Uiso   1.00
C486   C     0.72531   0.87518   0.46425   0.00000  Uiso   1.00
H487   H     0.72901   0.89066   0.44227   0.00000  Uiso   1.00
H488   H     0.70325   0.86006   0.45976   0.00000  Uiso   1.00
H489   H     0.77155   0.18477   0.99652   0.00000  Uiso   1.00
C490   C     0.95777   0.50037   0.85050   0.00000  Uiso   1.00
C491   C     0.99511   0.51618   0.90609   0.00000  Uiso   1.00
C492   C     0.98289   0.47967   0.86093   0.00000  Uiso   1.00
C493   C     0.00155   0.48744   0.88841   0.00000  Uiso   1.00
C494   C     0.95134   0.52901   0.86816   0.00000  Uiso   1.00
C495   C     0.96978   0.53677   0.89573   0.00000  Uiso   1.00
H496   H     0.55683   0.46847   0.19050   0.00000  Uiso   1.00
H497   H     0.98820   0.45745   0.84767   0.00000  Uiso   1.00
F498   F     0.02566   0.46670   0.89757   0.00000  Uiso   1.00
H499   H     0.93204   0.54542   0.86073   0.00000  Uiso   1.00
H500   H     0.96421   0.55905   0.90879   0.00000  Uiso   1.00
N501   N     0.08294   0.01164   0.69055   0.00000  Uiso   1.00
C502   C     0.06133   0.99169   0.67874   0.00000  Uiso   1.00
C503   C     0.10301   0.00548   0.71952   0.00000  Uiso   1.00
B504   B     0.98426   0.02568   0.56300   0.00000  Uiso   1.00
O505   O     0.55436   0.04416   0.49408   0.00000  Uiso   1.00
C506   C     0.22531   0.37518   0.96425   0.00000  Uiso   1.00
H507   H     0.22901   0.39066   0.94227   0.00000  Uiso   1.00
H508   H     0.20325   0.36006   0.95976   0.00000  Uiso   1.00
H509   H     0.27155   0.68477   0.49652   0.00000  Uiso   1.00
C510   C     0.45777   0.00037   0.35050   0.00000  Uiso   1.00
C511   C     0.49511   0.01618   0.40609   0.00000  Uiso   1.00
C512   C     0.48289   0.97967   0.36093   0.00000  Uiso   1.00
C513   C     0.50155   0.98744   0.38841   0.00000  Uiso   1.00
C514   C     0.45134   0.02901   0.36816   0.00000  Uiso   1.00
C515   C     0.46978   0.03677   0.39573   0.00000  Uiso   1.00
H516   H     0.05683   0.96847   0.69050   0.00000  Uiso   1.00
H517   H     0.48820   0.95745   0.34767   0.00000  Uiso   1.00
F518   F     0.52566   0.96670   0.39757   0.00000  Uiso   1.00
H519   H     0.43204   0.04542   0.36073   0.00000  Uiso   1.00
H520   H     0.46421   0.05905   0.40879   0.00000  Uiso   1.00
N521   N     0.91706   0.48836   0.69055   0.00000  Uiso   1.00
C522   C     0.93867   0.50831   0.67874   0.00000  Uiso   1.00
C523   C     0.89699   0.49452   0.71952   0.00000  Uiso   1.00
B524   B     0.01574   0.47432   0.56300   0.00000  Uiso   1.00
O525   O     0.44564   0.45584   0.49408   0.00000  Uiso   1.00
C526   C     0.77469   0.12482   0.96425   0.00000  Uiso   1.00
H527   H     0.77099   0.10934   0.94227   0.00000  Uiso   1.00
H528   H     0.79675   0.13994   0.95976   0.00000  Uiso   1.00
H529   H     0.72845   0.81523   0.49652   0.00000  Uiso   1.00
C530   C     0.54223   0.49963   0.35050   0.00000  Uiso   1.00
C531   C     0.50489   0.48382   0.40609   0.00000  Uiso   1.00
C532   C     0.51711   0.52033   0.36093   0.00000  Uiso   1.00
C533   C     0.49845   0.51256   0.38841   0.00000  Uiso   1.00
C534   C     0.54866   0.47099   0.36816   0.00000  Uiso   1.00
C535   C     0.53022   0.46323   0.39573   0.00000  Uiso   1.00
H536   H     0.94317   0.53153   0.69050   0.00000  Uiso   1.00
H537   H     0.51180   0.54255   0.34767   0.00000  Uiso   1.00
F538   F     0.47434   0.53330   0.39757   0.00000  Uiso   1.00
H539   H     0.56796   0.45458   0.36073   0.00000  Uiso   1.00
H540   H     0.53579   0.44095   0.40879   0.00000  Uiso   1.00
N541   N     0.41706   0.98836   0.19055   0.00000  Uiso   1.00
C542   C     0.43867   0.00831   0.17874   0.00000  Uiso   1.00
C543   C     0.39699   0.99452   0.21952   0.00000  Uiso   1.00
B544   B     0.51574   0.97432   0.06300   0.00000  Uiso   1.00
O545   O     0.94564   0.95584   0.99408   0.00000  Uiso   1.00
C546   C     0.27469   0.62482   0.46425   0.00000  Uiso   1.00
H547   H     0.27099   0.60934   0.44227   0.00000  Uiso   1.00
H548   H     0.29675   0.63994   0.45976   0.00000  Uiso   1.00
H549   H     0.22845   0.31523   0.99652   0.00000  Uiso   1.00
C550   C     0.04223   0.99963   0.85050   0.00000  Uiso   1.00
C551   C     0.00489   0.98382   0.90609   0.00000  Uiso   1.00
C552   C     0.01711   0.02033   0.86093   0.00000  Uiso   1.00
C553   C     0.99845   0.01256   0.88841   0.00000  Uiso   1.00
C554   C     0.04866   0.97099   0.86816   0.00000  Uiso   1.00
C555   C     0.03022   0.96323   0.89573   0.00000  Uiso   1.00
H556   H     0.44317   0.03153   0.19050   0.00000  Uiso   1.00
H557   H     0.01180   0.04255   0.84767   0.00000  Uiso   1.00
F558   F     0.97434   0.03330   0.89757   0.00000  Uiso   1.00
H559   H     0.06796   0.95458   0.86073   0.00000  Uiso   1.00
H560   H     0.03579   0.94095   0.90879   0.00000  Uiso   1.00
N561   N     0.08294   0.98836   0.80945   0.00000  Uiso   1.00
C562   C     0.06133   0.00831   0.82126   0.00000  Uiso   1.00
C563   C     0.10301   0.99452   0.78048   0.00000  Uiso   1.00
B564   B     0.98426   0.97432   0.93700   0.00000  Uiso   1.00
O565   O     0.55436   0.95584   0.00592   0.00000  Uiso   1.00
C566   C     0.22531   0.62482   0.53575   0.00000  Uiso   1.00
H567   H     0.22901   0.60934   0.55773   0.00000  Uiso   1.00
H568   H     0.20325   0.63994   0.54024   0.00000  Uiso   1.00
H569   H     0.27155   0.31523   0.00348   0.00000  Uiso   1.00
C570   C     0.45777   0.99963   0.14950   0.00000  Uiso   1.00
C571   C     0.49511   0.98382   0.09391   0.00000  Uiso   1.00
C572   C     0.48289   0.02033   0.13907   0.00000  Uiso   1.00
C573   C     0.50155   0.01256   0.11159   0.00000  Uiso   1.00
C574   C     0.45134   0.97099   0.13184   0.00000  Uiso   1.00
C575   C     0.46978   0.96323   0.10427   0.00000  Uiso   1.00
H576   H     0.05683   0.03153   0.80950   0.00000  Uiso   1.00
H577   H     0.48820   0.04255   0.15233   0.00000  Uiso   1.00
F578   F     0.52566   0.03330   0.10243   0.00000  Uiso   1.00
H579   H     0.43204   0.95458   0.13927   0.00000  Uiso   1.00
H580   H     0.46421   0.94095   0.09121   0.00000  Uiso   1.00
N581   N     0.58294   0.48836   0.30945   0.00000  Uiso   1.00
C582   C     0.56133   0.50831   0.32126   0.00000  Uiso   1.00
C583   C     0.60301   0.49452   0.28048   0.00000  Uiso   1.00
B584   B     0.48426   0.47432   0.43700   0.00000  Uiso   1.00
O585   O     0.05436   0.45584   0.50592   0.00000  Uiso   1.00
C586   C     0.72531   0.12482   0.03575   0.00000  Uiso   1.00
H587   H     0.72901   0.10934   0.05773   0.00000  Uiso   1.00
H588   H     0.70325   0.13994   0.04024   0.00000  Uiso   1.00
H589   H     0.77155   0.81523   0.50348   0.00000  Uiso   1.00
C590   C     0.95777   0.49963   0.64950   0.00000  Uiso   1.00
C591   C     0.99511   0.48382   0.59391   0.00000  Uiso   1.00
C592   C     0.98289   0.52033   0.63907   0.00000  Uiso   1.00
C593   C     0.00155   0.51256   0.61159   0.00000  Uiso   1.00
C594   C     0.95134   0.47099   0.63184   0.00000  Uiso   1.00
C595   C     0.96978   0.46323   0.60427   0.00000  Uiso   1.00
H596   H     0.55683   0.53153   0.30950   0.00000  Uiso   1.00
H597   H     0.98820   0.54255   0.65233   0.00000  Uiso   1.00
F598   F     0.02566   0.53330   0.60243   0.00000  Uiso   1.00
H599   H     0.93204   0.45458   0.63927   0.00000  Uiso   1.00
H600   H     0.96421   0.44095   0.59121   0.00000  Uiso   1.00
N601   N     0.41706   0.01164   0.30945   0.00000  Uiso   1.00
C602   C     0.43867   0.99169   0.32126   0.00000  Uiso   1.00
C603   C     0.39699   0.00548   0.28048   0.00000  Uiso   1.00
B604   B     0.51574   0.02568   0.43700   0.00000  Uiso   1.00
O605   O     0.94564   0.04416   0.50592   0.00000  Uiso   1.00
C606   C     0.27469   0.37518   0.03575   0.00000  Uiso   1.00
H607   H     0.27099   0.39066   0.05773   0.00000  Uiso   1.00
H608   H     0.29675   0.36006   0.04024   0.00000  Uiso   1.00
H609   H     0.22845   0.68477   0.50348   0.00000  Uiso   1.00
C610   C     0.04223   0.00037   0.64950   0.00000  Uiso   1.00
C611   C     0.00489   0.01618   0.59391   0.00000  Uiso   1.00
C612   C     0.01711   0.97967   0.63907   0.00000  Uiso   1.00
C613   C     0.99845   0.98744   0.61159   0.00000  Uiso   1.00
C614   C     0.04866   0.02901   0.63184   0.00000  Uiso   1.00
C615   C     0.03022   0.03677   0.60427   0.00000  Uiso   1.00
H616   H     0.44317   0.96847   0.30950   0.00000  Uiso   1.00
H617   H     0.01180   0.95745   0.65233   0.00000  Uiso   1.00
F618   F     0.97434   0.96670   0.60243   0.00000  Uiso   1.00
H619   H     0.06796   0.04542   0.63927   0.00000  Uiso   1.00
H620   H     0.03579   0.05905   0.59121   0.00000  Uiso   1.00
N621   N     0.91706   0.51164   0.80945   0.00000  Uiso   1.00
C622   C     0.93867   0.49169   0.82126   0.00000  Uiso   1.00
C623   C     0.89699   0.50548   0.78048   0.00000  Uiso   1.00
B624   B     0.01574   0.52568   0.93700   0.00000  Uiso   1.00
O625   O     0.44564   0.54416   0.00592   0.00000  Uiso   1.00
C626   C     0.77469   0.87518   0.53575   0.00000  Uiso   1.00
H627   H     0.77099   0.89066   0.55773   0.00000  Uiso   1.00
H628   H     0.79675   0.86006   0.54024   0.00000  Uiso   1.00
H629   H     0.72845   0.18477   0.00348   0.00000  Uiso   1.00
C630   C     0.54223   0.50037   0.14950   0.00000  Uiso   1.00
C631   C     0.50489   0.51618   0.09391   0.00000  Uiso   1.00
C632   C     0.51711   0.47967   0.13907   0.00000  Uiso   1.00
C633   C     0.49845   0.48744   0.11159   0.00000  Uiso   1.00
C634   C     0.54866   0.52901   0.13184   0.00000  Uiso   1.00
C635   C     0.53022   0.53677   0.10427   0.00000  Uiso   1.00
H636   H     0.94317   0.46847   0.80950   0.00000  Uiso   1.00
H637   H     0.51180   0.45745   0.15233   0.00000  Uiso   1.00
F638   F     0.47434   0.46670   0.10243   0.00000  Uiso   1.00
H639   H     0.56796   0.54542   0.13927   0.00000  Uiso   1.00
H640   H     0.53579   0.55905   0.09121   0.00000  Uiso   1.00
N641   N     0.51164   0.19055   0.58294   0.00000  Uiso   1.00
C642   C     0.49169   0.17874   0.56133   0.00000  Uiso   1.00
C643   C     0.50548   0.21952   0.60301   0.00000  Uiso   1.00
B644   B     0.52568   0.06300   0.48426   0.00000  Uiso   1.00
O645   O     0.54416   0.99408   0.05436   0.00000  Uiso   1.00
C646   C     0.87518   0.46425   0.72531   0.00000  Uiso   1.00
H647   H     0.89066   0.44227   0.72901   0.00000  Uiso   1.00
H648   H     0.86006   0.45976   0.70325   0.00000  Uiso   1.00
H649   H     0.18477   0.99652   0.77155   0.00000  Uiso   1.00
C650   C     0.50037   0.85050   0.95777   0.00000  Uiso   1.00
C651   C     0.51618   0.90609   0.99511   0.00000  Uiso   1.00
C652   C     0.47967   0.86093   0.98289   0.00000  Uiso   1.00
C653   C     0.48744   0.88841   0.00155   0.00000  Uiso   1.00
C654   C     0.52901   0.86816   0.95134   0.00000  Uiso   1.00
C655   C     0.53677   0.89573   0.96978   0.00000  Uiso   1.00
H656   H     0.46847   0.19050   0.55683   0.00000  Uiso   1.00
H657   H     0.45745   0.84767   0.98820   0.00000  Uiso   1.00
F658   F     0.46670   0.89757   0.02566   0.00000  Uiso   1.00
H659   H     0.54542   0.86073   0.93204   0.00000  Uiso   1.00
H660   H     0.55905   0.90879   0.96421   0.00000  Uiso   1.00
N661   N     0.01164   0.69055   0.08294   0.00000  Uiso   1.00
C662   C     0.99169   0.67874   0.06133   0.00000  Uiso   1.00
C663   C     0.00548   0.71952   0.10301   0.00000  Uiso   1.00
B664   B     0.02568   0.56300   0.98426   0.00000  Uiso   1.00
O665   O     0.04416   0.49408   0.55436   0.00000  Uiso   1.00
C666   C     0.37518   0.96425   0.22531   0.00000  Uiso   1.00
H667   H     0.39066   0.94227   0.22901   0.00000  Uiso   1.00
H668   H     0.36006   0.95976   0.20325   0.00000  Uiso   1.00
H669   H     0.68477   0.49652   0.27155   0.00000  Uiso   1.00
C670   C     0.00037   0.35050   0.45777   0.00000  Uiso   1.00
C671   C     0.01618   0.40609   0.49511   0.00000  Uiso   1.00
C672   C     0.97967   0.36093   0.48289   0.00000  Uiso   1.00
C673   C     0.98744   0.38841   0.50155   0.00000  Uiso   1.00
C674   C     0.02901   0.36816   0.45134   0.00000  Uiso   1.00
C675   C     0.03677   0.39573   0.46978   0.00000  Uiso   1.00
H676   H     0.96847   0.69050   0.05683   0.00000  Uiso   1.00
H677   H     0.95745   0.34767   0.48820   0.00000  Uiso   1.00
F678   F     0.96670   0.39757   0.52566   0.00000  Uiso   1.00
H679   H     0.04542   0.36073   0.43204   0.00000  Uiso   1.00
H680   H     0.05905   0.40879   0.46421   0.00000  Uiso   1.00
N681   N     0.48836   0.69055   0.91706   0.00000  Uiso   1.00
C682   C     0.50831   0.67874   0.93867   0.00000  Uiso   1.00
C683   C     0.49452   0.71952   0.89699   0.00000  Uiso   1.00
B684   B     0.47432   0.56300   0.01574   0.00000  Uiso   1.00
O685   O     0.45584   0.49408   0.44564   0.00000  Uiso   1.00
C686   C     0.12482   0.96425   0.77469   0.00000  Uiso   1.00
H687   H     0.10934   0.94227   0.77099   0.00000  Uiso   1.00
H688   H     0.13994   0.95976   0.79675   0.00000  Uiso   1.00
H689   H     0.81523   0.49652   0.72845   0.00000  Uiso   1.00
C690   C     0.49963   0.35050   0.54223   0.00000  Uiso   1.00
C691   C     0.48382   0.40609   0.50489   0.00000  Uiso   1.00
C692   C     0.52033   0.36093   0.51711   0.00000  Uiso   1.00
C693   C     0.51256   0.38841   0.49845   0.00000  Uiso   1.00
C694   C     0.47099   0.36816   0.54866   0.00000  Uiso   1.00
C695   C     0.46323   0.39573   0.53022   0.00000  Uiso   1.00
H696   H     0.53153   0.69050   0.94317   0.00000  Uiso   1.00
H697   H     0.54255   0.34767   0.51180   0.00000  Uiso   1.00
F698   F     0.53330   0.39757   0.47434   0.00000  Uiso   1.00
H699   H     0.45458   0.36073   0.56796   0.00000  Uiso   1.00
H700   H     0.44095   0.40879   0.53579   0.00000  Uiso   1.00
N701   N     0.98836   0.19055   0.41706   0.00000  Uiso   1.00
C702   C     0.00831   0.17874   0.43867   0.00000  Uiso   1.00
C703   C     0.99452   0.21952   0.39699   0.00000  Uiso   1.00
B704   B     0.97432   0.06300   0.51574   0.00000  Uiso   1.00
O705   O     0.95584   0.99408   0.94564   0.00000  Uiso   1.00
C706   C     0.62482   0.46425   0.27469   0.00000  Uiso   1.00
H707   H     0.60934   0.44227   0.27099   0.00000  Uiso   1.00
H708   H     0.63994   0.45976   0.29675   0.00000  Uiso   1.00
H709   H     0.31523   0.99652   0.22845   0.00000  Uiso   1.00
C710   C     0.99963   0.85050   0.04223   0.00000  Uiso   1.00
C711   C     0.98382   0.90609   0.00489   0.00000  Uiso   1.00
C712   C     0.02033   0.86093   0.01711   0.00000  Uiso   1.00
C713   C     0.01256   0.88841   0.99845   0.00000  Uiso   1.00
C714   C     0.97099   0.86816   0.04866   0.00000  Uiso   1.00
C715   C     0.96323   0.89573   0.03022   0.00000  Uiso   1.00
H716   H     0.03153   0.19050   0.44317   0.00000  Uiso   1.00
H717   H     0.04255   0.84767   0.01180   0.00000  Uiso   1.00
F718   F     0.03330   0.89757   0.97434   0.00000  Uiso   1.00
H719   H     0.95458   0.86073   0.06796   0.00000  Uiso   1.00
H720   H     0.94095   0.90879   0.03579   0.00000  Uiso   1.00
N721   N     0.98836   0.80945   0.08294   0.00000  Uiso   1.00
C722   C     0.00831   0.82126   0.06133   0.00000  Uiso   1.00
C723   C     0.99452   0.78048   0.10301   0.00000  Uiso   1.00
B724   B     0.97432   0.93700   0.98426   0.00000  Uiso   1.00
O725   O     0.95584   0.00592   0.55436   0.00000  Uiso   1.00
C726   C     0.62482   0.53575   0.22531   0.00000  Uiso   1.00
H727   H     0.60934   0.55773   0.22901   0.00000  Uiso   1.00
H728   H     0.63994   0.54024   0.20325   0.00000  Uiso   1.00
H729   H     0.31523   0.00348   0.27155   0.00000  Uiso   1.00
C730   C     0.99963   0.14950   0.45777   0.00000  Uiso   1.00
C731   C     0.98382   0.09391   0.49511   0.00000  Uiso   1.00
C732   C     0.02033   0.13907   0.48289   0.00000  Uiso   1.00
C733   C     0.01256   0.11159   0.50155   0.00000  Uiso   1.00
C734   C     0.97099   0.13184   0.45134   0.00000  Uiso   1.00
C735   C     0.96323   0.10427   0.46978   0.00000  Uiso   1.00
H736   H     0.03153   0.80950   0.05683   0.00000  Uiso   1.00
H737   H     0.04255   0.15233   0.48820   0.00000  Uiso   1.00
F738   F     0.03330   0.10243   0.52566   0.00000  Uiso   1.00
H739   H     0.95458   0.13927   0.43204   0.00000  Uiso   1.00
H740   H     0.94095   0.09121   0.46421   0.00000  Uiso   1.00
N741   N     0.48836   0.30945   0.58294   0.00000  Uiso   1.00
C742   C     0.50831   0.32126   0.56133   0.00000  Uiso   1.00
C743   C     0.49452   0.28048   0.60301   0.00000  Uiso   1.00
B744   B     0.47432   0.43700   0.48426   0.00000  Uiso   1.00
O745   O     0.45584   0.50592   0.05436   0.00000  Uiso   1.00
C746   C     0.12482   0.03575   0.72531   0.00000  Uiso   1.00
H747   H     0.10934   0.05773   0.72901   0.00000  Uiso   1.00
H748   H     0.13994   0.04024   0.70325   0.00000  Uiso   1.00
H749   H     0.81523   0.50348   0.77155   0.00000  Uiso   1.00
C750   C     0.49963   0.64950   0.95777   0.00000  Uiso   1.00
C751   C     0.48382   0.59391   0.99511   0.00000  Uiso   1.00
C752   C     0.52033   0.63907   0.98289   0.00000  Uiso   1.00
C753   C     0.51256   0.61159   0.00155   0.00000  Uiso   1.00
C754   C     0.47099   0.63184   0.95134   0.00000  Uiso   1.00
C755   C     0.46323   0.60427   0.96978   0.00000  Uiso   1.00
H756   H     0.53153   0.30950   0.55683   0.00000  Uiso   1.00
H757   H     0.54255   0.65233   0.98820   0.00000  Uiso   1.00
F758   F     0.53330   0.60243   0.02566   0.00000  Uiso   1.00
H759   H     0.45458   0.63927   0.93204   0.00000  Uiso   1.00
H760   H     0.44095   0.59121   0.96421   0.00000  Uiso   1.00
N761   N     0.01164   0.30945   0.41706   0.00000  Uiso   1.00
C762   C     0.99169   0.32126   0.43867   0.00000  Uiso   1.00
C763   C     0.00548   0.28048   0.39699   0.00000  Uiso   1.00
B764   B     0.02568   0.43700   0.51574   0.00000  Uiso   1.00
O765   O     0.04416   0.50592   0.94564   0.00000  Uiso   1.00
C766   C     0.37518   0.03575   0.27469   0.00000  Uiso   1.00
H767   H     0.39066   0.05773   0.27099   0.00000  Uiso   1.00
H768   H     0.36006   0.04024   0.29675   0.00000  Uiso   1.00
H769   H     0.68477   0.50348   0.22845   0.00000  Uiso   1.00
C770   C     0.00037   0.64950   0.04223   0.00000  Uiso   1.00
C771   C     0.01618   0.59391   0.00489   0.00000  Uiso   1.00
C772   C     0.97967   0.63907   0.01711   0.00000  Uiso   1.00
C773   C     0.98744   0.61159   0.99845   0.00000  Uiso   1.00
C774   C     0.02901   0.63184   0.04866   0.00000  Uiso   1.00
C775   C     0.03677   0.60427   0.03022   0.00000  Uiso   1.00
H776   H     0.96847   0.30950   0.44317   0.00000  Uiso   1.00
H777   H     0.95745   0.65233   0.01180   0.00000  Uiso   1.00
F778   F     0.96670   0.60243   0.97434   0.00000  Uiso   1.00
H779   H     0.04542   0.63927   0.06796   0.00000  Uiso   1.00
H780   H     0.05905   0.59121   0.03579   0.00000  Uiso   1.00
N781   N     0.51164   0.80945   0.91706   0.00000  Uiso   1.00
C782   C     0.49169   0.82126   0.93867   0.00000  Uiso   1.00
C783   C     0.50548   0.78048   0.89699   0.00000  Uiso   1.00
B784   B     0.52568   0.93700   0.01574   0.00000  Uiso   1.00
O785   O     0.54416   0.00592   0.44564   0.00000  Uiso   1.00
C786   C     0.87518   0.53575   0.77469   0.00000  Uiso   1.00
H787   H     0.89066   0.55773   0.77099   0.00000  Uiso   1.00
H788   H     0.86006   0.54024   0.79675   0.00000  Uiso   1.00
H789   H     0.18477   0.00348   0.72845   0.00000  Uiso   1.00
C790   C     0.50037   0.14950   0.54223   0.00000  Uiso   1.00
C791   C     0.51618   0.09391   0.50489   0.00000  Uiso   1.00
C792   C     0.47967   0.13907   0.51711   0.00000  Uiso   1.00
C793   C     0.48744   0.11159   0.49845   0.00000  Uiso   1.00
C794   C     0.52901   0.13184   0.54866   0.00000  Uiso   1.00
C795   C     0.53677   0.10427   0.53022   0.00000  Uiso   1.00
H796   H     0.46847   0.80950   0.94317   0.00000  Uiso   1.00
H797   H     0.45745   0.15233   0.51180   0.00000  Uiso   1.00
F798   F     0.46670   0.10243   0.47434   0.00000  Uiso   1.00
H799   H     0.54542   0.13927   0.56796   0.00000  Uiso   1.00
H800   H     0.55905   0.09121   0.53579   0.00000  Uiso   1.00
N801   N     0.19055   0.58294   0.51164   0.00000  Uiso   1.00
C802   C     0.17874   0.56133   0.49169   0.00000  Uiso   1.00
C803   C     0.21952   0.60301   0.50548   0.00000  Uiso   1.00
B804   B     0.06300   0.48426   0.52568   0.00000  Uiso   1.00
O805   O     0.99408   0.05436   0.54416   0.00000  Uiso   1.00
C806   C     0.46425   0.72531   0.87518   0.00000  Uiso   1.00
H807   H     0.44227   0.72901   0.89066   0.00000  Uiso   1.00
H808   H     0.45976   0.70325   0.86006   0.00000  Uiso   1.00
H809   H     0.99652   0.77155   0.18477   0.00000  Uiso   1.00
C810   C     0.85050   0.95777   0.50037   0.00000  Uiso   1.00
C811   C     0.90609   0.99511   0.51618   0.00000  Uiso   1.00
C812   C     0.86093   0.98289   0.47967   0.00000  Uiso   1.00
C813   C     0.88841   0.00155   0.48744   0.00000  Uiso   1.00
C814   C     0.86816   0.95134   0.52901   0.00000  Uiso   1.00
C815   C     0.89573   0.96978   0.53677   0.00000  Uiso   1.00
H816   H     0.19050   0.55683   0.46847   0.00000  Uiso   1.00
H817   H     0.84767   0.98820   0.45745   0.00000  Uiso   1.00
F818   F     0.89757   0.02566   0.46670   0.00000  Uiso   1.00
H819   H     0.86073   0.93204   0.54542   0.00000  Uiso   1.00
H820   H     0.90879   0.96421   0.55905   0.00000  Uiso   1.00
N821   N     0.69055   0.08294   0.01164   0.00000  Uiso   1.00
C822   C     0.67874   0.06133   0.99169   0.00000  Uiso   1.00
C823   C     0.71952   0.10301   0.00548   0.00000  Uiso   1.00
B824   B     0.56300   0.98426   0.02568   0.00000  Uiso   1.00
O825   O     0.49408   0.55436   0.04416   0.00000  Uiso   1.00
C826   C     0.96425   0.22531   0.37518   0.00000  Uiso   1.00
H827   H     0.94227   0.22901   0.39066   0.00000  Uiso   1.00
H828   H     0.95976   0.20325   0.36006   0.00000  Uiso   1.00
H829   H     0.49652   0.27155   0.68477   0.00000  Uiso   1.00
C830   C     0.35050   0.45777   0.00037   0.00000  Uiso   1.00
C831   C     0.40609   0.49511   0.01618   0.00000  Uiso   1.00
C832   C     0.36093   0.48289   0.97967   0.00000  Uiso   1.00
C833   C     0.38841   0.50155   0.98744   0.00000  Uiso   1.00
C834   C     0.36816   0.45134   0.02901   0.00000  Uiso   1.00
C835   C     0.39573   0.46978   0.03677   0.00000  Uiso   1.00
H836   H     0.69050   0.05683   0.96847   0.00000  Uiso   1.00
H837   H     0.34767   0.48820   0.95745   0.00000  Uiso   1.00
F838   F     0.39757   0.52566   0.96670   0.00000  Uiso   1.00
H839   H     0.36073   0.43204   0.04542   0.00000  Uiso   1.00
H840   H     0.40879   0.46421   0.05905   0.00000  Uiso   1.00
N841   N     0.69055   0.91706   0.48836   0.00000  Uiso   1.00
C842   C     0.67874   0.93867   0.50831   0.00000  Uiso   1.00
C843   C     0.71952   0.89699   0.49452   0.00000  Uiso   1.00
B844   B     0.56300   0.01574   0.47432   0.00000  Uiso   1.00
O845   O     0.49408   0.44564   0.45584   0.00000  Uiso   1.00
C846   C     0.96425   0.77469   0.12482   0.00000  Uiso   1.00
H847   H     0.94227   0.77099   0.10934   0.00000  Uiso   1.00
H848   H     0.95976   0.79675   0.13994   0.00000  Uiso   1.00
H849   H     0.49652   0.72845   0.81523   0.00000  Uiso   1.00
C850   C     0.35050   0.54223   0.49963   0.00000  Uiso   1.00
C851   C     0.40609   0.50489   0.48382   0.00000  Uiso   1.00
C852   C     0.36093   0.51711   0.52033   0.00000  Uiso   1.00
C853   C     0.38841   0.49845   0.51256   0.00000  Uiso   1.00
C854   C     0.36816   0.54866   0.47099   0.00000  Uiso   1.00
C855   C     0.39573   0.53022   0.46323   0.00000  Uiso   1.00
H856   H     0.69050   0.94317   0.53153   0.00000  Uiso   1.00
H857   H     0.34767   0.51180   0.54255   0.00000  Uiso   1.00
F858   F     0.39757   0.47434   0.53330   0.00000  Uiso   1.00
H859   H     0.36073   0.56796   0.45458   0.00000  Uiso   1.00
H860   H     0.40879   0.53579   0.44095   0.00000  Uiso   1.00
N861   N     0.19055   0.41706   0.98836   0.00000  Uiso   1.00
C862   C     0.17874   0.43867   0.00831   0.00000  Uiso   1.00
C863   C     0.21952   0.39699   0.99452   0.00000  Uiso   1.00
B864   B     0.06300   0.51574   0.97432   0.00000  Uiso   1.00
O865   O     0.99408   0.94564   0.95584   0.00000  Uiso   1.00
C866   C     0.46425   0.27469   0.62482   0.00000  Uiso   1.00
H867   H     0.44227   0.27099   0.60934   0.00000  Uiso   1.00
H868   H     0.45976   0.29675   0.63994   0.00000  Uiso   1.00
H869   H     0.99652   0.22845   0.31523   0.00000  Uiso   1.00
C870   C     0.85050   0.04223   0.99963   0.00000  Uiso   1.00
C871   C     0.90609   0.00489   0.98382   0.00000  Uiso   1.00
C872   C     0.86093   0.01711   0.02033   0.00000  Uiso   1.00
C873   C     0.88841   0.99845   0.01256   0.00000  Uiso   1.00
C874   C     0.86816   0.04866   0.97099   0.00000  Uiso   1.00
C875   C     0.89573   0.03022   0.96323   0.00000  Uiso   1.00
H876   H     0.19050   0.44317   0.03153   0.00000  Uiso   1.00
H877   H     0.84767   0.01180   0.04255   0.00000  Uiso   1.00
F878   F     0.89757   0.97434   0.03330   0.00000  Uiso   1.00
H879   H     0.86073   0.06796   0.95458   0.00000  Uiso   1.00
H880   H     0.90879   0.03579   0.94095   0.00000  Uiso   1.00
N881   N     0.80945   0.08294   0.98836   0.00000  Uiso   1.00
C882   C     0.82126   0.06133   0.00831   0.00000  Uiso   1.00
C883   C     0.78048   0.10301   0.99452   0.00000  Uiso   1.00
B884   B     0.93700   0.98426   0.97432   0.00000  Uiso   1.00
O885   O     0.00592   0.55436   0.95584   0.00000  Uiso   1.00
C886   C     0.53575   0.22531   0.62482   0.00000  Uiso   1.00
H887   H     0.55773   0.22901   0.60934   0.00000  Uiso   1.00
H888   H     0.54024   0.20325   0.63994   0.00000  Uiso   1.00
H889   H     0.00348   0.27155   0.31523   0.00000  Uiso   1.00
C890   C     0.14950   0.45777   0.99963   0.00000  Uiso   1.00
C891   C     0.09391   0.49511   0.98382   0.00000  Uiso   1.00
C892   C     0.13907   0.48289   0.02033   0.00000  Uiso   1.00
C893   C     0.11159   0.50155   0.01256   0.00000  Uiso   1.00
C894   C     0.13184   0.45134   0.97099   0.00000  Uiso   1.00
C895   C     0.10427   0.46978   0.96323   0.00000  Uiso   1.00
H896   H     0.80950   0.05683   0.03153   0.00000  Uiso   1.00
H897   H     0.15233   0.48820   0.04255   0.00000  Uiso   1.00
F898   F     0.10243   0.52566   0.03330   0.00000  Uiso   1.00
H899   H     0.13927   0.43204   0.95458   0.00000  Uiso   1.00
H900   H     0.09121   0.46421   0.94095   0.00000  Uiso   1.00
N901   N     0.30945   0.58294   0.48836   0.00000  Uiso   1.00
C902   C     0.32126   0.56133   0.50831   0.00000  Uiso   1.00
C903   C     0.28048   0.60301   0.49452   0.00000  Uiso   1.00
B904   B     0.43700   0.48426   0.47432   0.00000  Uiso   1.00
O905   O     0.50592   0.05436   0.45584   0.00000  Uiso   1.00
C906   C     0.03575   0.72531   0.12482   0.00000  Uiso   1.00
H907   H     0.05773   0.72901   0.10934   0.00000  Uiso   1.00
H908   H     0.04024   0.70325   0.13994   0.00000  Uiso   1.00
H909   H     0.50348   0.77155   0.81523   0.00000  Uiso   1.00
C910   C     0.64950   0.95777   0.49963   0.00000  Uiso   1.00
C911   C     0.59391   0.99511   0.48382   0.00000  Uiso   1.00
C912   C     0.63907   0.98289   0.52033   0.00000  Uiso   1.00
C913   C     0.61159   0.00155   0.51256   0.00000  Uiso   1.00
C914   C     0.63184   0.95134   0.47099   0.00000  Uiso   1.00
C915   C     0.60427   0.96978   0.46323   0.00000  Uiso   1.00
H916   H     0.30950   0.55683   0.53153   0.00000  Uiso   1.00
H917   H     0.65233   0.98820   0.54255   0.00000  Uiso   1.00
F918   F     0.60243   0.02566   0.53330   0.00000  Uiso   1.00
H919   H     0.63927   0.93204   0.45458   0.00000  Uiso   1.00
H920   H     0.59121   0.96421   0.44095   0.00000  Uiso   1.00
N921   N     0.30945   0.41706   0.01164   0.00000  Uiso   1.00
C922   C     0.32126   0.43867   0.99169   0.00000  Uiso   1.00
C923   C     0.28048   0.39699   0.00548   0.00000  Uiso   1.00
B924   B     0.43700   0.51574   0.02568   0.00000  Uiso   1.00
O925   O     0.50592   0.94564   0.04416   0.00000  Uiso   1.00
C926   C     0.03575   0.27469   0.37518   0.00000  Uiso   1.00
H927   H     0.05773   0.27099   0.39066   0.00000  Uiso   1.00
H928   H     0.04024   0.29675   0.36006   0.00000  Uiso   1.00
H929   H     0.50348   0.22845   0.68477   0.00000  Uiso   1.00
C930   C     0.64950   0.04223   0.00037   0.00000  Uiso   1.00
C931   C     0.59391   0.00489   0.01618   0.00000  Uiso   1.00
C932   C     0.63907   0.01711   0.97967   0.00000  Uiso   1.00
C933   C     0.61159   0.99845   0.98744   0.00000  Uiso   1.00
C934   C     0.63184   0.04866   0.02901   0.00000  Uiso   1.00
C935   C     0.60427   0.03022   0.03677   0.00000  Uiso   1.00
H936   H     0.30950   0.44317   0.96847   0.00000  Uiso   1.00
H937   H     0.65233   0.01180   0.95745   0.00000  Uiso   1.00
F938   F     0.60243   0.97434   0.96670   0.00000  Uiso   1.00
H939   H     0.63927   0.06796   0.04542   0.00000  Uiso   1.00
H940   H     0.59121   0.03579   0.05905   0.00000  Uiso   1.00
N941   N     0.80945   0.91706   0.51164   0.00000  Uiso   1.00
C942   C     0.82126   0.93867   0.49169   0.00000  Uiso   1.00
C943   C     0.78048   0.89699   0.50548   0.00000  Uiso   1.00
B944   B     0.93700   0.01574   0.52568   0.00000  Uiso   1.00
O945   O     0.00592   0.44564   0.54416   0.00000  Uiso   1.00
C946   C     0.53575   0.77469   0.87518   0.00000  Uiso   1.00
H947   H     0.55773   0.77099   0.89066   0.00000  Uiso   1.00
H948   H     0.54024   0.79675   0.86006   0.00000  Uiso   1.00
H949   H     0.00348   0.72845   0.18477   0.00000  Uiso   1.00
C950   C     0.14950   0.54223   0.50037   0.00000  Uiso   1.00
C951   C     0.09391   0.50489   0.51618   0.00000  Uiso   1.00
C952   C     0.13907   0.51711   0.47967   0.00000  Uiso   1.00
C953   C     0.11159   0.49845   0.48744   0.00000  Uiso   1.00
C954   C     0.13184   0.54866   0.52901   0.00000  Uiso   1.00
C955   C     0.10427   0.53022   0.53677   0.00000  Uiso   1.00
H956   H     0.80950   0.94317   0.46847   0.00000  Uiso   1.00
H957   H     0.15233   0.51180   0.45745   0.00000  Uiso   1.00
F958   F     0.10243   0.47434   0.46670   0.00000  Uiso   1.00
H959   H     0.13927   0.56796   0.54542   0.00000  Uiso   1.00
H960   H     0.09121   0.53579   0.55905   0.00000  Uiso   1.00
C961   C     0.25000   0.66870   0.50000   0.00000  Uiso   1.00
C962   C     0.25000   0.33130   0.00000   0.00000  Uiso   1.00
C963   C     0.75000   0.16870   0.00000   0.00000  Uiso   1.00
C964   C     0.75000   0.83130   0.50000   0.00000  Uiso   1.00
C965   C     0.50000   0.25000   0.66870   0.00000  Uiso   1.00
C966   C     0.00000   0.25000   0.33130   0.00000  Uiso   1.00
C967   C     0.00000   0.75000   0.16870   0.00000  Uiso   1.00
C968   C     0.50000   0.75000   0.83130   0.00000  Uiso   1.00
C969   C     0.66870   0.50000   0.25000   0.00000  Uiso   1.00
C970   C     0.33130   0.00000   0.25000   0.00000  Uiso   1.00
C971   C     0.16870   0.00000   0.75000   0.00000  Uiso   1.00
C972   C     0.83130   0.50000   0.75000   0.00000  Uiso   1.00
C973   C     0.91870   0.50000   0.75000   0.00000  Uiso   1.00
C974   C     0.58130   0.50000   0.25000   0.00000  Uiso   1.00
C975   C     0.41870   0.00000   0.25000   0.00000  Uiso   1.00
C976   C     0.08130   0.00000   0.75000   0.00000  Uiso   1.00
C977   C     0.50000   0.75000   0.91870   0.00000  Uiso   1.00
C978   C     0.50000   0.25000   0.58130   0.00000  Uiso   1.00
C979   C     0.00000   0.25000   0.41870   0.00000  Uiso   1.00
C980   C     0.00000   0.75000   0.08130   0.00000  Uiso   1.00
C981   C     0.75000   0.91870   0.50000   0.00000  Uiso   1.00
C982   C     0.25000   0.58130   0.50000   0.00000  Uiso   1.00
C983   C     0.25000   0.41870   0.00000   0.00000  Uiso   1.00
C984   C     0.75000   0.08130   0.00000   0.00000  Uiso   1.00
loop_
_geom_bond_atom_site_label_1
_geom_bond_atom_site_label_2
_geom_bond_distance
_geom_bond_site_symmetry_2
_ccdc_geom_bond_type
N1     C2      1.294   .     D
N1     C3      1.461   .     S
C2     H16     1.079   .     S
C2     C150    1.469   .     S
C3     C246    1.542   .     S
C3     C506    1.544   .     S
C3     C962    1.544   1_556 S
B4     C151    1.566   .     S
B4     O265    1.457   .     S
B4     O345    1.457   .     S
O5     B184    1.457   .     S
O5     B384    1.457   .     S
C6     H7      1.108   .     S
C6     H8      1.107   .     S
C6     C363    1.542   .     S
C6     C483    1.544   .     S
H9     C973    1.107   .     S
C10    C12     1.396   .     S
C10    C14     1.399   .     D
C10    C142    1.469   .     S
C11    C13     1.403   .     S
C11    C15     1.398   .     D
C11    B144    1.566   .     S
C12    C13     1.393   .     D
C12    H17     1.079   .     S
C13    F18     1.351   .     S
C14    C15     1.391   .     S
C14    H19     1.078   .     S
C15    H20     1.079   .     S
N21    C22     1.294   .     D
N21    C23     1.461   .     S
C22    H36     1.079   .     S
C22    C130    1.469   .     S
C23    C266    1.542   .     S
C23    C486    1.544   .     S
C23    C964    1.544   .     S
B24    C131    1.566   .     S
B24    O245    1.457   .     S
B24    O325    1.457   .     S
O25    B164    1.457   .     S
O25    B364    1.457   .     S
C26    H27     1.108   .     S
C26    H28     1.107   .     S
C26    C383    1.542   .     S
C26    C503    1.544   1_565 S
H29    C975    1.107   .     S
C30    C32     1.396   .     D
C30    C34     1.399   .     S
C30    C122    1.469   .     S
C31    C33     1.403   .     D
C31    C35     1.398   .     S
C31    B124    1.566   .     S
C32    C33     1.393   .     S
C32    H37     1.079   .     S
C33    F38     1.351   .     S
C34    C35     1.391   .     D
C34    H39     1.078   .     S
C35    H40     1.079   .     S
N41    C42     1.294   .     D
N41    C43     1.461   .     S
C42    H56     1.079   .     S
C42    C110    1.469   .     S
C43    C166    1.542   .     S
C43    C546    1.544   .     S
C43    C961    1.544   .     S
B44    C111    1.566   .     S
B44    O185    1.457   .     S
B44    O465    1.457   .     S
O45    B264    1.457   .     S
O45    B424    1.457   .     S
C46    H47     1.108   .     S
C46    H48     1.107   .     S
C46    C403    1.542   .     S
C46    C523    1.544   .     S
H49    C974    1.107   .     S
C50    C52     1.396   .     D
C50    C54     1.399   .     S
C50    C102    1.469   .     S
C51    C53     1.403   .     D
C51    C55     1.398   .     S
C51    B104    1.566   .     S
C52    C53     1.393   .     S
C52    H57     1.079   .     S
C53    F58     1.351   .     S
C54    C55     1.391   .     D
C54    H59     1.078   .     S
C55    H60     1.079   .     S
N61    C62     1.294   .     D
N61    C63     1.461   .     S
C62    H76     1.079   .     S
C62    C90     1.469   .     S
C63    C186    1.542   .     S
C63    C526    1.544   .     S
C63    C963    1.544   1_556 S
B64    C91     1.566   .     S
B64    O165    1.457   .     S
B64    O445    1.457   .     S
O65    B244    1.457   .     S
O65    B404    1.457   .     S
C66    H67     1.108   .     S
C66    H68     1.107   .     S
C66    C423    1.542   .     S
C66    C543    1.544   1_545 S
H69    C976    1.107   1_565 S
C70    C72     1.396   .     S
C70    C74     1.399   .     D
C70    C82     1.469   .     S
C71    C73     1.403   .     S
C71    C75     1.398   .     D
C71    B84     1.566   .     S
C72    C73     1.393   .     D
C72    H77     1.079   .     S
C73    F78     1.351   .     S
C74    C75     1.391   .     S
C74    H79     1.078   .     S
C75    H80     1.079   .     S
N81    C82     1.294   .     D
N81    C83     1.461   .     S
C82    H96     1.079   .     S
C83    C206    1.542   .     S
C83    C626    1.544   .     S
C83    C964    1.544   .     S
B84    O225    1.457   .     S
B84    O385    1.457   .     S
O85    B304    1.457   .     S
O85    B344    1.457   .     S
C86    H87     1.108   .     S
C86    H88     1.107   .     S
C86    C323    1.542   .     S
C86    C603    1.544   1_565 S
H89    C976    1.107   .     S
C90    C92     1.396   .     S
C90    C94     1.399   .     D
C91    C93     1.403   .     S
C91    C95     1.398   .     D
C92    C93     1.393   .     D
C92    H97     1.079   .     S
C93    F98     1.351   .     S
C94    C95     1.391   .     S
C94    H99     1.078   .     S
C95    H100    1.079   .     S
N101   C102    1.294   .     D
N101   C103    1.461   .     S
C102   H116    1.079   .     S
C103   C226    1.542   .     S
C103   C606    1.544   .     S
C103   C962    1.544   .     S
B104   O205    1.457   .     S
B104   O365    1.457   .     S
O105   B284    1.457   .     S
O105   B324    1.457   .     S
C106   H107    1.108   .     S
C106   H108    1.107   .     S
C106   C343    1.542   .     S
C106   C623    1.544   .     S
H109   C974    1.107   .     S
C110   C112    1.396   .     S
C110   C114    1.399   .     D
C111   C113    1.403   .     S
C111   C115    1.398   .     D
C112   C113    1.393   .     D
C112   H117    1.079   .     S
C113   F118    1.351   .     S
C114   C115    1.391   .     S
C114   H119    1.078   .     S
C115   H120    1.079   .     S
N121   C122    1.294   .     D
N121   C123    1.461   .     S
C122   H136    1.079   .     S
C123   C286    1.542   .     S
C123   C586    1.544   .     S
C123   C963    1.544   .     S
B124   O305    1.457   .     S
B124   O425    1.457   .     S
O125   B224    1.457   .     S
O125   B464    1.457   .     S
C126   H127    1.108   .     S
C126   H128    1.107   .     S
C126   C443    1.542   .     S
C126   C563    1.544   1_545 S
H129   C975    1.107   1_565 S
C130   C132    1.396   .     S
C130   C134    1.399   .     D
C131   C133    1.403   .     S
C131   C135    1.398   .     D
C132   C133    1.393   .     D
C132   H137    1.079   .     S
C133   F138    1.351   .     S
C134   C135    1.391   .     S
C134   H139    1.078   .     S
C135   H140    1.079   .     S
N141   C142    1.294   .     D
N141   C143    1.461   .     S
C142   H156    1.079   .     S
C143   C306    1.542   .     S
C143   C566    1.544   .     S
C143   C961    1.544   .     S
B144   O285    1.457   .     S
B144   O405    1.457   .     S
O145   B204    1.457   .     S
O145   B444    1.457   .     S
C146   H147    1.108   .     S
C146   H148    1.107   .     S
C146   C463    1.542   .     S
C146   C583    1.544   .     S
H149   C973    1.107   .     S
C150   C152    1.396   .     S
C150   C154    1.399   .     D
C151   C153    1.403   .     S
C151   C155    1.398   .     D
C152   C153    1.393   .     D
C152   H157    1.079   .     S
C153   F158    1.351   .     S
C154   C155    1.391   .     S
C154   H159    1.078   .     S
C155   H160    1.079   .     S
N161   C162    1.294   .     D
N161   C163    1.461   .     S
C162   H176    1.079   .     S
C162   C310    1.469   .     S
C163   C406    1.542   .     S
C163   C826    1.544   .     S
C163   C966    1.544   1_655 S
B164   C311    1.566   .     S
B164   O425    1.457   .     S
O165   B344    1.457   .     S
C166   H167    1.108   .     S
C166   H168    1.107   .     S
C166   C803    1.544   .     S
H169   C981    1.107   .     S
C170   C172    1.396   .     D
C170   C174    1.399   .     S
C170   C302    1.469   .     S
C171   C173    1.403   .     D
C171   C175    1.398   .     S
C171   B304    1.566   .     S
C172   C173    1.393   .     S
C172   H177    1.079   .     S
C173   F178    1.351   .     S
C174   C175    1.391   .     D
C174   H179    1.078   .     S
C175   H180    1.079   .     S
N181   C182    1.294   .     D
N181   C183    1.461   .     S
C182   H196    1.079   .     S
C182   C290    1.469   .     S
C183   C426    1.542   .     S
C183   C806    1.544   .     S
C183   C968    1.544   .     S
B184   C291    1.566   .     S
B184   O405    1.457   .     S
O185   B324    1.457   .     S
C186   H187    1.108   .     S
C186   H188    1.107   .     S
C186   C823    1.544   1_556 S
H189   C983    1.107   .     S
C190   C192    1.396   .     S
C190   C194    1.399   .     D
C190   C282    1.469   .     S
C191   C193    1.403   .     S
C191   C195    1.398   .     D
C191   B284    1.566   .     S
C192   C193    1.393   .     D
C192   H197    1.079   .     S
C193   F198    1.351   .     S
C194   C195    1.391   .     S
C194   H199    1.078   .     S
C195   H200    1.079   .     S
N201   C202    1.294   .     D
N201   C203    1.461   .     S
C202   H216    1.079   .     S
C202   C270    1.469   .     S
C203   C326    1.542   .     S
C203   C866    1.544   .     S
C203   C965    1.544   .     S
B204   C271    1.566   .     S
B204   O345    1.457   .     S
O205   B424    1.457   .     S
C206   H207    1.108   .     S
C206   H208    1.107   .     S
C206   C843    1.544   .     S
H209   C982    1.107   .     S
C210   C212    1.396   .     D
C210   C214    1.399   .     S
C210   C262    1.469   .     S
C211   C213    1.403   .     D
C211   C215    1.398   .     S
C211   B264    1.566   .     S
C212   C213    1.393   .     S
C212   H217    1.079   .     S
C213   F218    1.351   .     S
C214   C215    1.391   .     D
C214   H219    1.078   .     S
C215   H220    1.079   .     S
N221   C222    1.294   .     D
N221   C223    1.461   .     S
C222   H236    1.079   .     S
C222   C250    1.469   .     S
C223   C346    1.542   .     S
C223   C846    1.544   .     S
C223   C967    1.544   1_655 S
B224   C251    1.566   .     S
B224   O325    1.457   .     S
O225   B404    1.457   .     S
C226   H227    1.108   .     S
C226   H228    1.107   .     S
C226   C863    1.544   1_554 S
H229   C984    1.107   1_556 S
C230   C232    1.396   .     S
C230   C234    1.399   .     D
C230   C242    1.469   .     S
C231   C233    1.403   .     S
C231   C235    1.398   .     D
C231   B244    1.566   .     S
C232   C233    1.393   .     D
C232   H237    1.079   .     S
C233   F238    1.351   .     S
C234   C235    1.391   .     S
C234   H239    1.078   .     S
C235   H240    1.079   .     S
N241   C242    1.294   .     D
N241   C243    1.461   .     S
C242   H256    1.079   .     S
C243   C366    1.542   .     S
C243   C946    1.544   .     S
C243   C968    1.544   .     S
B244   O385    1.457   .     S
O245   B464    1.457   .     S
C246   H247    1.108   .     S
C246   H248    1.107   .     S
C246   C923    1.544   1_556 S
H249   C984    1.107   .     S
C250   C252    1.396   .     S
C250   C254    1.399   .     D
C251   C253    1.403   .     S
C251   C255    1.398   .     D
C252   C253    1.393   .     D
C252   H257    1.079   .     S
C253   F258    1.351   .     S
C254   C255    1.391   .     S
C254   H259    1.078   .     S
C255   H260    1.079   .     S
N261   C262    1.294   .     D
N261   C263    1.461   .     S
C262   H276    1.079   .     S
C263   C386    1.542   .     S
C263   C926    1.544   .     S
C263   C966    1.544   .     S
B264   O365    1.457   .     S
O265   B444    1.457   .     S
C266   H267    1.108   .     S
C266   H268    1.107   .     S
C266   C943    1.544   .     S
H269   C982    1.107   .     S
C270   C272    1.396   .     S
C270   C274    1.399   .     D
C271   C273    1.403   .     S
C271   C275    1.398   .     D
C272   C273    1.393   .     D
C272   H277    1.079   .     S
C273   F278    1.351   .     S
C274   C275    1.391   .     S
C274   H279    1.078   .     S
C275   H280    1.079   .     S
N281   C282    1.294   .     D
N281   C283    1.461   .     S
C282   H296    1.079   .     S
C283   C446    1.542   .     S
C283   C906    1.544   .     S
C283   C967    1.544   .     S
B284   O465    1.457   .     S
O285   B384    1.457   .     S
C286   H287    1.108   .     S
C286   H288    1.107   .     S
C286   C883    1.544   1_554 S
H289   C983    1.107   1_556 S
C290   C292    1.396   .     S
C290   C294    1.399   .     D
C291   C293    1.403   .     S
C291   C295    1.398   .     D
C292   C293    1.393   .     D
C292   H297    1.079   .     S
C293   F298    1.351   .     S
C294   C295    1.391   .     S
C294   H299    1.078   .     S
C295   H300    1.079   .     S
N301   C302    1.294   .     D
N301   C303    1.461   .     S
C302   H316    1.079   .     S
C303   C466    1.542   .     S
C303   C886    1.544   .     S
C303   C965    1.544   .     S
B304   O445    1.457   .     S
O305   B364    1.457   .     S
C306   H307    1.108   .     S
C306   H308    1.107   .     S
C306   C903    1.544   .     S
H309   C981    1.107   .     S
C310   C312    1.396   .     S
C310   C314    1.399   .     D
C311   C313    1.403   .     S
C311   C315    1.398   .     D
C312   C313    1.393   .     D
C312   H317    1.079   .     S
C313   F318    1.351   .     S
C314   C315    1.391   .     S
C314   H319    1.078   .     S
C315   H320    1.079   .     S
N321   C322    1.294   .     D
N321   C323    1.461   .     S
C322   H336    1.079   .     S
C322   C470    1.469   .     S
C323   C666    1.544   .     S
C323   C970    1.544   1_565 S
B324   C471    1.566   .     S
C326   H327    1.108   .     S
C326   H328    1.107   .     S
C326   C643    1.544   .     S
H329   C977    1.107   .     S
C330   C332    1.396   .     S
C330   C334    1.399   .     D
C330   C462    1.469   .     S
C331   C333    1.403   .     S
C331   C335    1.398   .     D
C331   B464    1.566   .     S
C332   C333    1.393   .     D
C332   H337    1.079   .     S
C333   F338    1.351   .     S
C334   C335    1.391   .     S
C334   H339    1.078   .     S
C335   H340    1.079   .     S
N341   C342    1.294   .     D
N341   C343    1.461   .     S
C342   H356    1.079   .     S
C342   C450    1.469   .     S
C343   C646    1.544   .     S
C343   C972    1.544   .     S
B344   C451    1.566   .     S
C346   H347    1.108   .     S
C346   H348    1.107   .     S
C346   C663    1.544   1_655 S
H349   C979    1.107   .     S
C350   C352    1.396   .     D
C350   C354    1.399   .     S
C350   C442    1.469   .     S
C351   C353    1.403   .     D
C351   C355    1.398   .     S
C351   B444    1.566   .     S
C352   C353    1.393   .     S
C352   H357    1.079   .     S
C353   F358    1.351   .     S
C354   C355    1.391   .     D
C354   H359    1.078   .     S
C355   H360    1.079   .     S
N361   C362    1.294   .     D
N361   C363    1.461   .     S
C362   H376    1.079   .     S
C362   C430    1.469   .     S
C363   C706    1.544   .     S
C363   C969    1.544   .     S
B364   C431    1.566   .     S
C366   H367    1.108   .     S
C366   H368    1.107   .     S
C366   C683    1.544   .     S
H369   C978    1.107   .     S
C370   C372    1.396   .     D
C370   C374    1.399   .     S
C370   C422    1.469   .     S
C371   C373    1.403   .     D
C371   C375    1.398   .     S
C371   B424    1.566   .     S
C372   C373    1.393   .     S
C372   H377    1.079   .     S
C373   F378    1.351   .     S
C374   C375    1.391   .     D
C374   H379    1.078   .     S
C375   H380    1.079   .     S
N381   C382    1.294   .     D
N381   C383    1.461   .     S
C382   H396    1.079   .     S
C382   C410    1.469   .     S
C383   C686    1.544   .     S
C383   C971    1.544   1_565 S
B384   C411    1.566   .     S
C386   H387    1.108   .     S
C386   H388    1.107   .     S
C386   C703    1.544   1_455 S
H389   C980    1.107   1_655 S
C390   C392    1.396   .     S
C390   C394    1.399   .     D
C390   C402    1.469   .     S
C391   C393    1.403   .     S
C391   C395    1.398   .     D
C391   B404    1.566   .     S
C392   C393    1.393   .     D
C392   H397    1.079   .     S
C393   F398    1.351   .     S
C394   C395    1.391   .     S
C394   H399    1.078   .     S
C395   H400    1.079   .     S
N401   C402    1.294   .     D
N401   C403    1.461   .     S
C402   H416    1.079   .     S
C403   C786    1.544   .     S
C403   C972    1.544   .     S
C406   H407    1.108   .     S
C406   H408    1.107   .     S
C406   C763    1.544   1_655 S
H409   C980    1.107   .     S
C410   C412    1.396   .     S
C410   C414    1.399   .     D
C411   C413    1.403   .     S
C411   C415    1.398   .     D
C412   C413    1.393   .     D
C412   H417    1.079   .     S
C413   F418    1.351   .     S
C414   C415    1.391   .     S
C414   H419    1.078   .     S
C415   H420    1.079   .     S
N421   C422    1.294   .     D
N421   C423    1.461   .     S
C422   H436    1.079   .     S
C423   C766    1.544   .     S
C423   C970    1.544   .     S
C426   H427    1.108   .     S
C426   H428    1.107   .     S
C426   C783    1.544   .     S
H429   C978    1.107   .     S
C430   C432    1.396   .     S
C430   C434    1.399   .     D
C431   C433    1.403   .     S
C431   C435    1.398   .     D
C432   C433    1.393   .     D
C432   H437    1.079   .     S
C433   F438    1.351   .     S
C434   C435    1.391   .     S
C434   H439    1.078   .     S
C435   H440    1.079   .     S
N441   C442    1.294   .     D
N441   C443    1.461   .     S
C442   H456    1.079   .     S
C443   C746    1.544   .     S
C443   C971    1.544   .     S
C446   H447    1.108   .     S
C446   H448    1.107   .     S
C446   C723    1.544   1_455 S
H449   C979    1.107   1_655 S
C450   C452    1.396   .     S
C450   C454    1.399   .     D
C451   C453    1.403   .     S
C451   C455    1.398   .     D
C452   C453    1.393   .     D
C452   H457    1.079   .     S
C453   F458    1.351   .     S
C454   C455    1.391   .     S
C454   H459    1.078   .     S
C455   H460    1.079   .     S
N461   C462    1.294   .     D
N461   C463    1.461   .     S
C462   H476    1.079   .     S
C463   C726    1.544   .     S
C463   C969    1.544   .     S
C466   H467    1.108   .     S
C466   H468    1.107   .     S
C466   C743    1.544   .     S
H469   C977    1.107   .     S
C470   C472    1.396   .     S
C470   C474    1.399   .     D
C471   C473    1.403   .     S
C471   C475    1.398   .     D
C472   C473    1.393   .     D
C472   H477    1.079   .     S
C473   F478    1.351   .     S
C474   C475    1.391   .     S
C474   H479    1.078   .     S
C475   H480    1.079   .     S
N481   C482    1.294   .     D
N481   C483    1.461   .     S
C482   H496    1.079   .     S
C482   C630    1.469   .     S
C483   C726    1.542   .     S
C483   C974    1.544   .     S
B484   C631    1.566   .     S
B484   O745    1.457   .     S
B484   O825    1.457   .     S
O485   B664    1.457   .     S
O485   B864    1.457   .     S
C486   H487    1.108   .     S
C486   H488    1.107   .     S
C486   C843    1.542   .     S
H489   C963    1.107   1_556 S
C490   C492    1.396   .     D
C490   C494    1.399   .     S
C490   C622    1.469   .     S
C491   C493    1.403   1_655 D
C491   C495    1.398   .     S
C491   B624    1.566   1_655 S
C492   C493    1.393   1_655 S
C492   H497    1.079   .     S
C493   C491    1.403   1_455 D
C493   C492    1.393   1_455 S
C493   F498    1.351   .     S
C494   C495    1.391   .     D
C494   H499    1.078   .     S
C495   H500    1.079   .     S
N501   C502    1.294   1_545 D
N501   C503    1.461   .     S
C502   N501    1.294   1_565 D
C502   H516    1.079   .     S
C502   C610    1.469   1_565 S
C503   C26     1.544   1_545 S
C503   C746    1.542   .     S
C503   C976    1.544   .     S
B504   C611    1.566   1_655 S
B504   O725    1.457   .     S
B504   O805    1.457   .     S
O505   B644    1.457   .     S
O505   B844    1.457   .     S
C506   H507    1.108   .     S
C506   H508    1.107   .     S
C506   C863    1.542   .     S
H509   C961    1.107   .     S
C510   C512    1.396   1_545 D
C510   C514    1.399   .     S
C510   C602    1.469   1_545 S
C511   C513    1.403   1_545 D
C511   C515    1.398   .     S
C511   B604    1.566   .     S
C512   C510    1.396   1_565 D
C512   C513    1.393   .     S
C512   H517    1.079   .     S
C513   C511    1.403   1_565 D
C513   F518    1.351   .     S
C514   C515    1.391   .     D
C514   H519    1.078   .     S
C515   H520    1.079   .     S
N521   C522    1.294   .     D
N521   C523    1.461   .     S
C522   H536    1.079   .     S
C522   C590    1.469   .     S
C523   C646    1.542   .     S
C523   C973    1.544   .     S
B524   C591    1.566   1_455 S
B524   O665    1.457   .     S
B524   O945    1.457   .     S
O525   B744    1.457   .     S
O525   B904    1.457   .     S
C526   H527    1.108   .     S
C526   H528    1.107   .     S
C526   C883    1.542   .     S
H529   C964    1.107   .     S
C530   C532    1.396   .     D
C530   C534    1.399   .     S
C530   C582    1.469   .     S
C531   C533    1.403   .     D
C531   C535    1.398   .     S
C531   B584    1.566   .     S
C532   C533    1.393   .     S
C532   H537    1.079   .     S
C533   F538    1.351   .     S
C534   C535    1.391   .     D
C534   H539    1.078   .     S
C535   H540    1.079   .     S
N541   C542    1.294   1_565 D
N541   C543    1.461   .     S
C542   N541    1.294   1_545 D
C542   H556    1.079   .     S
C542   C570    1.469   1_545 S
C543   C66     1.544   1_565 S
C543   C666    1.542   .     S
C543   C975    1.544   1_565 S
B544   C571    1.566   .     S
B544   O645    1.457   .     S
B544   O925    1.457   .     S
O545   B724    1.457   .     S
O545   B884    1.457   .     S
C546   H547    1.108   .     S
C546   H548    1.107   .     S
C546   C903    1.542   .     S
H549   C962    1.107   1_556 S
C550   C552    1.396   1_565 D
C550   C554    1.399   .     S
C550   C562    1.469   1_565 S
C551   C553    1.403   1_465 D
C551   C555    1.398   .     S
C551   B564    1.566   1_455 S
C552   C550    1.396   1_545 D
C552   C553    1.393   1_455 S
C552   H557    1.079   .     S
C553   C551    1.403   1_645 D
C553   C552    1.393   1_655 S
C553   F558    1.351   .     S
C554   C555    1.391   .     D
C554   H559    1.078   .     S
C555   H560    1.079   .     S
N561   C562    1.294   1_565 D
N561   C563    1.461   .     S
C562   N561    1.294   1_545 D
C562   C550    1.469   1_545 S
C562   H576    1.079   .     S
C563   C126    1.544   1_565 S
C563   C686    1.542   .     S
C563   C976    1.544   1_565 S
B564   C551    1.566   1_655 S
B564   O705    1.457   .     S
B564   O865    1.457   .     S
O565   B784    1.457   .     S
O565   B824    1.457   .     S
C566   H567    1.108   .     S
C566   H568    1.107   .     S
C566   C803    1.542   .     S
H569   C962    1.107   .     S
C570   C542    1.469   1_565 S
C570   C572    1.396   1_565 S
C570   C574    1.399   .     D
C571   C573    1.403   1_565 S
C571   C575    1.398   .     D
C572   C570    1.396   1_545 S
C572   C573    1.393   .     D
C572   H577    1.079   .     S
C573   C571    1.403   1_545 S
C573   F578    1.351   .     S
C574   C575    1.391   .     S
C574   H579    1.078   .     S
C575   H580    1.079   .     S
N581   C582    1.294   .     D
N581   C583    1.461   .     S
C582   H596    1.079   .     S
C583   C706    1.542   .     S
C583   C974    1.544   .     S
B584   O685    1.457   .     S
B584   O845    1.457   .     S
O585   B764    1.457   .     S
O585   B804    1.457   .     S
C586   H587    1.108   .     S
C586   H588    1.107   .     S
C586   C823    1.542   .     S
H589   C964    1.107   .     S
C590   C592    1.396   .     S
C590   C594    1.399   .     D
C591   B524    1.566   1_655 S
C591   C593    1.403   1_655 S
C591   C595    1.398   .     D
C592   C593    1.393   1_655 D
C592   H597    1.079   .     S
C593   C592    1.393   1_455 D
C593   C591    1.403   1_455 S
C593   F598    1.351   .     S
C594   C595    1.391   .     S
C594   H599    1.078   .     S
C595   H600    1.079   .     S
N601   C602    1.294   1_545 D
N601   C603    1.461   .     S
C602   N601    1.294   1_565 D
C602   C510    1.469   1_565 S
C602   H616    1.079   .     S
C603   C86     1.544   1_545 S
C603   C766    1.542   .     S
C603   C975    1.544   .     S
B604   O785    1.457   .     S
B604   O905    1.457   .     S
O605   B704    1.457   .     S
O605   B944    1.457   .     S
C606   H607    1.108   .     S
C606   H608    1.107   .     S
C606   C923    1.542   .     S
H609   C961    1.107   .     S
C610   C502    1.469   1_545 S
C610   C612    1.396   1_545 S
C610   C614    1.399   .     D
C611   B504    1.566   1_455 S
C611   C613    1.403   1_445 S
C611   C615    1.398   .     D
C612   C610    1.396   1_565 S
C612   C613    1.393   1_455 D
C612   H617    1.079   .     S
C613   C612    1.393   1_655 D
C613   C611    1.403   1_665 S
C613   F618    1.351   .     S
C614   C615    1.391   .     S
C614   H619    1.078   .     S
C615   H620    1.079   .     S
N621   C622    1.294   .     D
N621   C623    1.461   .     S
C622   H636    1.079   .     S
C623   C786    1.542   .     S
C623   C973    1.544   .     S
B624   C491    1.566   1_455 S
B624   O765    1.457   .     S
B624   O885    1.457   .     S
O625   B684    1.457   .     S
O625   B924    1.457   .     S
C626   H627    1.108   .     S
C626   H628    1.107   .     S
C626   C943    1.542   .     S
H629   C963    1.107   .     S
C630   C632    1.396   .     S
C630   C634    1.399   .     D
C631   C633    1.403   .     S
C631   C635    1.398   .     D
C632   C633    1.393   .     D
C632   H637    1.079   .     S
C633   F638    1.351   .     S
C634   C635    1.391   .     S
C634   H639    1.078   .     S
C635   H640    1.079   .     S
N641   C642    1.294   .     D
N641   C643    1.461   .     S
C642   H656    1.079   .     S
C642   C790    1.469   .     S
C643   C886    1.542   .     S
C643   C978    1.544   .     S
B644   C791    1.566   .     S
B644   O905    1.457   .     S
O645   B824    1.457   .     S
C646   H647    1.108   .     S
C646   H648    1.107   .     S
H649   C971    1.107   1_565 S
C650   C652    1.396   .     D
C650   C654    1.399   .     S
C650   C782    1.469   .     S
C651   C653    1.403   1_556 D
C651   C655    1.398   .     S
C651   B784    1.566   1_556 S
C652   C653    1.393   1_556 S
C652   H657    1.079   .     S
C653   C651    1.403   1_554 D
C653   C652    1.393   1_554 S
C653   F658    1.351   .     S
C654   C655    1.391   .     D
C654   H659    1.078   .     S
C655   H660    1.079   .     S
N661   C662    1.294   1_455 D
N661   C663    1.461   .     S
C662   N661    1.294   1_655 D
C662   H676    1.079   .     S
C662   C770    1.469   1_655 S
C663   C346    1.544   1_455 S
C663   C906    1.542   .     S
C663   C980    1.544   .     S
B664   C771    1.566   1_556 S
B664   O885    1.457   .     S
O665   B804    1.457   .     S
C666   H667    1.108   .     S
C666   H668    1.107   .     S
H669   C969    1.107   .     S
C670   C672    1.396   1_455 S
C670   C674    1.399   .     D
C670   C762    1.469   1_455 S
C671   C673    1.403   1_455 S
C671   C675    1.398   .     D
C671   B764    1.566   .     S
C672   C670    1.396   1_655 S
C672   C673    1.393   .     D
C672   H677    1.079   .     S
C673   C671    1.403   1_655 S
C673   F678    1.351   .     S
C674   C675    1.391   .     S
C674   H679    1.078   .     S
C675   H680    1.079   .     S
N681   C682    1.294   .     D
N681   C683    1.461   .     S
C682   H696    1.079   .     S
C682   C750    1.469   .     S
C683   C806    1.542   .     S
C683   C977    1.544   .     S
B684   C751    1.566   1_554 S
B684   O825    1.457   .     S
O685   B904    1.457   .     S
C686   H687    1.108   .     S
C686   H688    1.107   .     S
H689   C972    1.107   .     S
C690   C692    1.396   .     S
C690   C694    1.399   .     D
C690   C742    1.469   .     S
C691   C693    1.403   .     S
C691   C695    1.398   .     D
C691   B744    1.566   .     S
C692   C693    1.393   .     D
C692   H697    1.079   .     S
C693   F698    1.351   .     S
C694   C695    1.391   .     S
C694   H699    1.078   .     S
C695   H700    1.079   .     S
N701   C702    1.294   1_655 D
N701   C703    1.461   .     S
C702   N701    1.294   1_455 D
C702   H716    1.079   .     S
C702   C730    1.469   1_455 S
C703   C386    1.544   1_655 S
C703   C826    1.542   .     S
C703   C979    1.544   1_655 S
B704   C731    1.566   .     S
B704   O805    1.457   .     S
O705   B884    1.457   .     S
C706   H707    1.108   .     S
C706   H708    1.107   .     S
H709   C970    1.107   1_565 S
C710   C712    1.396   1_655 D
C710   C714    1.399   .     S
C710   C722    1.469   1_655 S
C711   C713    1.403   1_654 D
C711   C715    1.398   .     S
C711   B724    1.566   1_554 S
C712   C710    1.396   1_455 D
C712   C713    1.393   1_554 S
C712   H717    1.079   .     S
C713   C711    1.403   1_456 D
C713   C712    1.393   1_556 S
C713   F718    1.351   .     S
C714   C715    1.391   .     D
C714   H719    1.078   .     S
C715   H720    1.079   .     S
N721   C722    1.294   1_655 D
N721   C723    1.461   .     S
C722   N721    1.294   1_455 D
C722   C710    1.469   1_455 S
C722   H736    1.079   .     S
C723   C446    1.544   1_655 S
C723   C846    1.542   .     S
C723   C980    1.544   1_655 S
B724   C711    1.566   1_556 S
B724   O865    1.457   .     S
O725   B944    1.457   .     S
C726   H727    1.108   .     S
C726   H728    1.107   .     S
H729   C970    1.107   .     S
C730   C702    1.469   1_655 S
C730   C732    1.396   1_655 S
C730   C734    1.399   .     D
C731   C733    1.403   1_655 S
C731   C735    1.398   .     D
C732   C730    1.396   1_455 S
C732   C733    1.393   .     D
C732   H737    1.079   .     S
C733   C731    1.403   1_455 S
C733   F738    1.351   .     S
C734   C735    1.391   .     S
C734   H739    1.078   .     S
C735   H740    1.079   .     S
N741   C742    1.294   .     D
N741   C743    1.461   .     S
C742   H756    1.079   .     S
C743   C866    1.542   .     S
C743   C978    1.544   .     S
B744   O845    1.457   .     S
O745   B924    1.457   .     S
C746   H747    1.108   .     S
C746   H748    1.107   .     S
H749   C972    1.107   .     S
C750   C752    1.396   .     S
C750   C754    1.399   .     D
C751   B684    1.566   1_556 S
C751   C753    1.403   1_556 S
C751   C755    1.398   .     D
C752   C753    1.393   1_556 D
C752   H757    1.079   .     S
C753   C752    1.393   1_554 D
C753   C751    1.403   1_554 S
C753   F758    1.351   .     S
C754   C755    1.391   .     S
C754   H759    1.078   .     S
C755   H760    1.079   .     S
N761   C762    1.294   1_455 D
N761   C763    1.461   .     S
C762   C670    1.469   1_655 S
C762   N761    1.294   1_655 D
C762   H776    1.079   .     S
C763   C406    1.544   1_455 S
C763   C926    1.542   .     S
C763   C979    1.544   .     S
B764   O945    1.457   .     S
O765   B864    1.457   .     S
C766   H767    1.108   .     S
C766   H768    1.107   .     S
H769   C969    1.107   .     S
C770   C662    1.469   1_455 S
C770   C772    1.396   1_455 S
C770   C774    1.399   .     D
C771   B664    1.566   1_554 S
C771   C773    1.403   1_454 S
C771   C775    1.398   .     D
C772   C770    1.396   1_655 S
C772   C773    1.393   1_554 D
C772   H777    1.079   .     S
C773   C772    1.393   1_556 D
C773   C771    1.403   1_656 S
C773   F778    1.351   .     S
C774   C775    1.391   .     S
C774   H779    1.078   .     S
C775   H780    1.079   .     S
N781   C782    1.294   .     D
N781   C783    1.461   .     S
C782   H796    1.079   .     S
C783   C946    1.542   .     S
C783   C977    1.544   .     S
B784   C651    1.566   1_554 S
B784   O925    1.457   .     S
O785   B844    1.457   .     S
C786   H787    1.108   .     S
C786   H788    1.107   .     S
H789   C971    1.107   .     S
C790   C792    1.396   .     S
C790   C794    1.399   .     D
C791   C793    1.403   .     S
C791   C795    1.398   .     D
C792   C793    1.393   .     D
C792   H797    1.079   .     S
C793   F798    1.351   .     S
C794   C795    1.391   .     S
C794   H799    1.078   .     S
C795   H800    1.079   .     S
N801   C802    1.294   .     D
N801   C803    1.461   .     S
C802   H816    1.079   .     S
C802   C950    1.469   .     S
C803   C982    1.544   .     S
B804   C951    1.566   .     S
C806   H807    1.108   .     S
C806   H808    1.107   .     S
H809   C967    1.107   1_655 S
C810   C812    1.396   .     D
C810   C814    1.399   .     S
C810   C942    1.469   .     S
C811   C813    1.403   1_565 D
C811   C815    1.398   .     S
C811   B944    1.566   1_565 S
C812   C813    1.393   1_565 S
C812   H817    1.079   .     S
C813   C811    1.403   1_545 D
C813   C812    1.393   1_545 S
C813   F818    1.351   .     S
C814   C815    1.391   .     D
C814   H819    1.078   .     S
C815   H820    1.079   .     S
N821   C822    1.294   1_554 D
N821   C823    1.461   .     S
C822   N821    1.294   1_556 D
C822   H836    1.079   .     S
C822   C930    1.469   1_556 S
C823   C186    1.544   1_554 S
C823   C984    1.544   .     S
B824   C931    1.566   1_565 S
C826   H827    1.108   .     S
C826   H828    1.107   .     S
H829   C965    1.107   .     S
C830   C832    1.396   1_554 S
C830   C834    1.399   .     D
C830   C922    1.469   1_554 S
C831   C833    1.403   1_554 S
C831   C835    1.398   .     D
C831   B924    1.566   .     S
C832   C830    1.396   1_556 S
C832   C833    1.393   .     D
C832   H837    1.079   .     S
C833   C831    1.403   1_556 S
C833   F838    1.351   .     S
C834   C835    1.391   .     S
C834   H839    1.078   .     S
C835   H840    1.079   .     S
N841   C842    1.294   .     D
N841   C843    1.461   .     S
C842   H856    1.079   .     S
C842   C910    1.469   .     S
C843   C981    1.544   .     S
B844   C911    1.566   1_545 S
C846   H847    1.108   .     S
C846   H848    1.107   .     S
H849   C968    1.107   .     S
C850   C852    1.396   .     S
C850   C854    1.399   .     D
C850   C902    1.469   .     S
C851   C853    1.403   .     S
C851   C855    1.398   .     D
C851   B904    1.566   .     S
C852   C853    1.393   .     D
C852   H857    1.079   .     S
C853   F858    1.351   .     S
C854   C855    1.391   .     S
C854   H859    1.078   .     S
C855   H860    1.079   .     S
N861   C862    1.294   1_556 D
N861   C863    1.461   .     S
C862   N861    1.294   1_554 D
C862   H876    1.079   .     S
C862   C890    1.469   1_554 S
C863   C226    1.544   1_556 S
C863   C983    1.544   1_556 S
B864   C891    1.566   .     S
C866   H867    1.108   .     S
C866   H868    1.107   .     S
H869   C966    1.107   1_655 S
C870   C872    1.396   1_556 D
C870   C874    1.399   .     S
C870   C882    1.469   1_556 S
C871   C873    1.403   1_546 D
C871   C875    1.398   .     S
C871   B884    1.566   1_545 S
C872   C870    1.396   1_554 D
C872   C873    1.393   1_545 S
C872   H877    1.079   .     S
C873   C872    1.393   1_565 S
C873   C871    1.403   1_564 D
C873   F878    1.351   .     S
C874   C875    1.391   .     D
C874   H879    1.078   .     S
C875   H880    1.079   .     S
N881   C882    1.294   1_556 D
N881   C883    1.461   .     S
C882   N881    1.294   1_554 D
C882   C870    1.469   1_554 S
C882   H896    1.079   .     S
C883   C286    1.544   1_556 S
C883   C984    1.544   1_556 S
B884   C871    1.566   1_565 S
C886   H887    1.108   .     S
C886   H888    1.107   .     S
H889   C966    1.107   .     S
C890   C862    1.469   1_556 S
C890   C892    1.396   1_556 S
C890   C894    1.399   .     D
C891   C893    1.403   1_556 S
C891   C895    1.398   .     D
C892   C890    1.396   1_554 S
C892   C893    1.393   .     D
C892   H897    1.079   .     S
C893   C891    1.403   1_554 S
C893   F898    1.351   .     S
C894   C895    1.391   .     S
C894   H899    1.078   .     S
C895   H900    1.079   .     S
N901   C902    1.294   .     D
N901   C903    1.461   .     S
C902   H916    1.079   .     S
C903   C982    1.544   .     S
C906   H907    1.108   .     S
C906   H908    1.107   .     S
H909   C968    1.107   .     S
C910   C912    1.396   .     S
C910   C914    1.399   .     D
C911   B844    1.566   1_565 S
C911   C913    1.403   1_565 S
C911   C915    1.398   .     D
C912   C913    1.393   1_565 D
C912   H917    1.079   .     S
C913   C912    1.393   1_545 D
C913   C911    1.403   1_545 S
C913   F918    1.351   .     S
C914   C915    1.391   .     S
C914   H919    1.078   .     S
C915   H920    1.079   .     S
N921   C922    1.294   1_554 D
N921   C923    1.461   .     S
C922   C830    1.469   1_556 S
C922   N921    1.294   1_556 D
C922   H936    1.079   .     S
C923   C246    1.544   1_554 S
C923   C983    1.544   .     S
C926   H927    1.108   .     S
C926   H928    1.107   .     S
H929   C965    1.107   .     S
C930   C822    1.469   1_554 S
C930   C932    1.396   1_554 S
C930   C934    1.399   .     D
C931   B824    1.566   1_545 S
C931   C933    1.403   1_544 S
C931   C935    1.398   .     D
C932   C930    1.396   1_556 S
C932   C933    1.393   1_545 D
C932   H937    1.079   .     S
C933   C932    1.393   1_565 D
C933   C931    1.403   1_566 S
C933   F938    1.351   .     S
C934   C935    1.391   .     S
C934   H939    1.078   .     S
C935   H940    1.079   .     S
N941   C942    1.294   .     D
N941   C943    1.461   .     S
C942   H956    1.079   .     S
C943   C981    1.544   .     S
B944   C811    1.566   1_545 S
C946   H947    1.108   .     S
C946   H948    1.107   .     S
H949   C967    1.107   .     S
C950   C952    1.396   .     S
C950   C954    1.399   .     D
C951   C953    1.403   .     S
C951   C955    1.398   .     D
C952   C953    1.393   .     D
C952   H957    1.079   .     S
C953   F958    1.351   .     S
C954   C955    1.391   .     S
C954   H959    1.078   .     S
C955   H960    1.079   .     S
C962   C3      1.544   1_554 S
C962   H549    1.107   1_554 S
C963   H489    1.107   1_554 S
C963   C63     1.544   1_554 S
C966   H869    1.107   1_455 S
C966   C163    1.544   1_455 S
C967   C223    1.544   1_455 S
C967   H809    1.107   1_455 S
C970   H709    1.107   1_545 S
C970   C323    1.544   1_545 S
C971   C383    1.544   1_545 S
C971   H649    1.107   1_545 S
C975   C543    1.544   1_545 S
C975   H129    1.107   1_545 S
C976   H69     1.107   1_545 S
C976   C563    1.544   1_545 S
C979   C703    1.544   1_455 S
C979   H449    1.107   1_455 S
C980   H389    1.107   1_455 S
C980   C723    1.544   1_455 S
C983   H289    1.107   1_554 S
C983   C863    1.544   1_554 S
C984   C883    1.544   1_554 S
C984   H229    1.107   1_554 S
