data_226
_audit_creation_date              2023-09-08
_audit_creation_method            'Materials Studio'
_symmetry_space_group_name_H-M    'P1'
_symmetry_Int_Tables_number       1
_symmetry_cell_setting            triclinic
loop_
_symmetry_equiv_pos_as_xyz
  x,y,z
_cell_length_a                    37.1718
_cell_length_b                    37.1602
_cell_length_c                    6.7131
_cell_angle_alpha                 90.0117
_cell_angle_beta                  89.9844
_cell_angle_gamma                 120.0100
loop_
_atom_site_label
_atom_site_type_symbol
_atom_site_fract_x
_atom_site_fract_y
_atom_site_fract_z
_atom_site_U_iso_or_equiv
_atom_site_adp_type
_atom_site_occupancy
C1     C     0.69630   0.90177   0.38191   0.00000  Uiso   1.00
C2     C     0.38155   0.68372   0.92807   0.00000  Uiso   1.00
C3     C     0.42729   0.70392   0.92762   0.00000  Uiso   1.00
C4     C     0.44757   0.69463   1.07594   0.00000  Uiso   1.00
C5     C     0.49097   0.71522   1.07897   0.00000  Uiso   1.00
C6     C     0.51448   0.74498   0.93318   0.00000  Uiso   1.00
C7     C     0.49415   0.75368   0.78242   0.00000  Uiso   1.00
C8     C     0.45087   0.73320   0.78029   0.00000  Uiso   1.00
N9     N     0.55880   0.76670   0.94496   0.00000  Uiso   1.00
C10    C     0.58316   0.79455   0.81647   0.00000  Uiso   1.00
C11    C     0.62869   0.81733   0.83640   0.00000  Uiso   1.00
C12    C     0.64905   0.81272   1.00196   0.00000  Uiso   1.00
C13    C     0.69267   0.83615   1.00802   0.00000  Uiso   1.00
O14    O     0.62531   0.78505   1.15610   0.00000  Uiso   1.00
C15    C     0.35831   0.64052   0.92811   0.00000  Uiso   1.00
C16    C     0.36346   0.23137  -0.31070   0.00000  Uiso   1.00
C17    C     0.04997   0.01842   0.25339   0.00000  Uiso   1.00
C18    C     0.09590   0.03782   0.24915   0.00000  Uiso   1.00
C19    C     0.11571   0.02287   0.37288   0.00000  Uiso   1.00
C20    C     0.15905   0.04168   0.37102   0.00000  Uiso   1.00
C21    C     0.18314   0.07539   0.24412   0.00000  Uiso   1.00
C22    C     0.16337   0.09001   0.11821   0.00000  Uiso   1.00
C23    C     0.12018   0.07127   0.12080   0.00000  Uiso   1.00
N24    N     0.22750   0.09526   0.25129   0.00000  Uiso   1.00
C25    C     0.25192   0.12507   0.13098   0.00000  Uiso   1.00
C26    C     0.29756   0.14686   0.14560   0.00000  Uiso   1.00
C27    C     0.31857   0.14126   0.30546   0.00000  Uiso   1.00
C28    C     0.36222   0.16513   0.30895   0.00000  Uiso   1.00
O29    O     0.29553   0.11301   0.45929   0.00000  Uiso   1.00
C30    C     0.02605   0.97539   0.26586   0.00000  Uiso   1.00
C31    C     0.02640   0.57226   0.07912   0.00000  Uiso   1.00
C32    C     0.71082   0.34675   0.59500   0.00000  Uiso   1.00
C33    C     0.75642   0.36484   0.58315   0.00000  Uiso   1.00
C34    C     0.77674   0.34969   0.70187   0.00000  Uiso   1.00
C35    C     0.82016   0.36923   0.69731   0.00000  Uiso   1.00
C36    C     0.84346   0.40371   0.57311   0.00000  Uiso   1.00
C37    C     0.82305   0.41799   0.45068   0.00000  Uiso   1.00
C38    C     0.78000   0.39861   0.45595   0.00000  Uiso   1.00
N39    N     0.88768   0.42567   0.58489   0.00000  Uiso   1.00
C40    C     0.91143   0.45890   0.48161   0.00000  Uiso   1.00
C41    C     0.95664   0.48241   0.50841   0.00000  Uiso   1.00
C42    C     0.97617   0.47511   0.66890   0.00000  Uiso   1.00
C43    C     0.01960   0.49895   0.68441   0.00000  Uiso   1.00
O44    O     0.95214   0.44311   0.80488   0.00000  Uiso   1.00
C45    C     0.68545   0.30366   0.59729   0.00000  Uiso   1.00
C46    C     0.10782   0.79230   0.36759   0.00000  Uiso   1.00
C47    C     0.31689   0.68632   0.93516   0.00000  Uiso   1.00
C48    C     0.29358   0.70918   0.94044   0.00000  Uiso   1.00
C49    C     0.30351   0.74095   1.07880   0.00000  Uiso   1.00
C50    C     0.28302   0.76368   1.07954   0.00000  Uiso   1.00
C51    C     0.25203   0.75505   0.94171   0.00000  Uiso   1.00
C52    C     0.24096   0.72260   0.80497   0.00000  Uiso   1.00
C53    C     0.26159   0.69975   0.80533   0.00000  Uiso   1.00
N54    N     0.23282   0.78009   0.94455   0.00000  Uiso   1.00
C55    C     0.20599   0.77752   0.81604   0.00000  Uiso   1.00
C56    C     0.18755   0.80454   0.82765   0.00000  Uiso   1.00
C57    C     0.19611   0.83356   0.98215   0.00000  Uiso   1.00
C58    C     0.17694   0.85791   0.97844   0.00000  Uiso   1.00
O59    O     0.22308   0.83727   1.13641   0.00000  Uiso   1.00
C60    C     0.36083   0.70679   0.93611   0.00000  Uiso   1.00
C61    C     0.77262   0.12469  -0.30050   0.00000  Uiso   1.00
C62    C     0.98579   0.02222   0.25630   0.00000  Uiso   1.00
C63    C     0.96309   0.04575   0.25907   0.00000  Uiso   1.00
C64    C     0.97441   0.07897   0.39038   0.00000  Uiso   1.00
C65    C     0.95367   0.10154   0.39159   0.00000  Uiso   1.00
C66    C     0.92100   0.09127   0.26136   0.00000  Uiso   1.00
C67    C     0.90884   0.05759   0.13115   0.00000  Uiso   1.00
C68    C     0.92970   0.03495   0.13102   0.00000  Uiso   1.00
N69    N     0.90086   0.11550   0.26637   0.00000  Uiso   1.00
C70    C     0.87208   0.11098   0.14501   0.00000  Uiso   1.00
C71    C     0.85253   0.13703   0.15914   0.00000  Uiso   1.00
C72    C     0.86057   0.16561   0.31508   0.00000  Uiso   1.00
C73    C     0.84058   0.18921   0.31388   0.00000  Uiso   1.00
O74    O     0.88786   0.16963   0.46834   0.00000  Uiso   1.00
C75    C     0.02970   0.04195   0.25081   0.00000  Uiso   1.00
C76    C     0.44323   0.46166   0.04189   0.00000  Uiso   1.00
C77    C     0.64867   0.35378   0.60922   0.00000  Uiso   1.00
C78    C     0.62752   0.37866   0.61360   0.00000  Uiso   1.00
C79    C     0.63958   0.41166   0.74730   0.00000  Uiso   1.00
C80    C     0.61987   0.43522   0.74927   0.00000  Uiso   1.00
C81    C     0.58764   0.42614   0.61787   0.00000  Uiso   1.00
C82    C     0.57481   0.39266   0.48581   0.00000  Uiso   1.00
C83    C     0.59457   0.36905   0.48469   0.00000  Uiso   1.00
N84    N     0.56883   0.45160   0.62167   0.00000  Uiso   1.00
C85    C     0.54093   0.44802   0.49711   0.00000  Uiso   1.00
C86    C     0.52241   0.47497   0.50641   0.00000  Uiso   1.00
C87    C     0.53088   0.50434   0.65884   0.00000  Uiso   1.00
C88    C     0.51155   0.52858   0.65224   0.00000  Uiso   1.00
O89    O     0.55760   0.50818   0.81460   0.00000  Uiso   1.00
C90    C     0.69240   0.37206   0.60431   0.00000  Uiso   1.00
C91    C     0.26580   0.31452   0.52087   0.00000  Uiso   1.00
C92    C     0.31493   0.61981   0.93195   0.00000  Uiso   1.00
C93    C     0.29101   0.57412   0.92416   0.00000  Uiso   1.00
C94    C     0.24752   0.55333   0.91765   0.00000  Uiso   1.00
C95    C     0.22495   0.51038   0.89698   0.00000  Uiso   1.00
C96    C     0.24527   0.48746   0.88298   0.00000  Uiso   1.00
C97    C     0.28878   0.50799   0.88824   0.00000  Uiso   1.00
C98    C     0.31144   0.55107   0.90779   0.00000  Uiso   1.00
N99    N     0.22080   0.44350   0.86051   0.00000  Uiso   1.00
C100   C     0.23647   0.41967   0.83153   0.00000  Uiso   1.00
C101   C     0.20989   0.37476   0.80196   0.00000  Uiso   1.00
C102   C     0.16713   0.35299   0.85122   0.00000  Uiso   1.00
C103   C     0.14384   0.31083   0.80098   0.00000  Uiso   1.00
O104   O     0.14894   0.37349   0.95060   0.00000  Uiso   1.00
C105   C     0.29460   0.64296   0.93270   0.00000  Uiso   1.00
C106   C     0.94503   0.65315  -0.05643   0.00000  Uiso   1.00
C107   C     0.98272   0.95531   0.27373   0.00000  Uiso   1.00
C108   C     0.95852   0.90965   0.27696   0.00000  Uiso   1.00
C109   C     0.91497   0.88866   0.28562   0.00000  Uiso   1.00
C110   C     0.89233   0.84554   0.26889   0.00000  Uiso   1.00
C111   C     0.91286   0.82297   0.24186   0.00000  Uiso   1.00
C112   C     0.95637   0.84379   0.23600   0.00000  Uiso   1.00
C113   C     0.97891   0.88677   0.25238   0.00000  Uiso   1.00
N114   N     0.88888   0.77898   0.21874   0.00000  Uiso   1.00
C115   C     0.90582   0.75633   0.18906   0.00000  Uiso   1.00
C116   C     0.88123   0.71125   0.16473   0.00000  Uiso   1.00
C117   C     0.83797   0.68817   0.20053   0.00000  Uiso   1.00
C118   C     0.81738   0.64554   0.16489   0.00000  Uiso   1.00
O119   O     0.81631   0.70776   0.27060   0.00000  Uiso   1.00
C120   C     0.96291   0.97890   0.26669   0.00000  Uiso   1.00
C121   C     0.58748   0.97609   0.27466   0.00000  Uiso   1.00
C122   C     0.64220   0.28516   0.60658   0.00000  Uiso   1.00
C123   C     0.61580   0.23957   0.59566   0.00000  Uiso   1.00
C124   C     0.57251   0.22060   0.62014   0.00000  Uiso   1.00
C125   C     0.54735   0.17776   0.59749   0.00000  Uiso   1.00
C126   C     0.56500   0.15338   0.54659   0.00000  Uiso   1.00
C127   C     0.60831   0.17221   0.52209   0.00000  Uiso   1.00
C128   C     0.63345   0.21491   0.54707   0.00000  Uiso   1.00
N129   N     0.53863   0.10953   0.52548   0.00000  Uiso   1.00
C130   C     0.55344   0.08502   0.49357   0.00000  Uiso   1.00
C131   C     0.52704   0.04003   0.47061   0.00000  Uiso   1.00
C132   C     0.48335   0.01891   0.49107   0.00000  Uiso   1.00
C133   C     0.46136   0.97592   0.45986   0.00000  Uiso   1.00
O134   O     0.46285   0.04094   0.54224   0.00000  Uiso   1.00
C135   C     0.62427   0.31047   0.61017   0.00000  Uiso   1.00
C136   C     0.31905   0.10729   0.60898   0.00000  Uiso   1.00
C137   C     0.63328   0.32430   0.10867   0.00000  Uiso   1.00
C138   C     0.58751   0.30858   0.11439   0.00000  Uiso   1.00
C139   C     0.56893   0.32109  -0.02971   0.00000  Uiso   1.00
C140   C     0.52552   0.30206  -0.04073   0.00000  Uiso   1.00
C141   C     0.49993   0.27025   0.09292   0.00000  Uiso   1.00
C142   C     0.51841   0.25884   0.24215   0.00000  Uiso   1.00
C143   C     0.56154   0.27783   0.25224   0.00000  Uiso   1.00
N144   N     0.45563   0.24872   0.06958   0.00000  Uiso   1.00
C145   C     0.43067   0.21737   0.18167   0.00000  Uiso   1.00
C146   C     0.38510   0.19413   0.15970   0.00000  Uiso   1.00
C147   C     0.36408   0.19966  -0.00039   0.00000  Uiso   1.00
C148   C     0.32040   0.17570  -0.00421   0.00000  Uiso   1.00
O149   O     0.38700   0.22885  -0.15097   0.00000  Uiso   1.00
C150   C     0.66164   0.36707   0.09372   0.00000  Uiso   1.00
C151   C     0.96537   0.45212   1.00478   0.00000  Uiso   1.00
C152   C     0.29176   0.64823   0.44639   0.00000  Uiso   1.00
C153   C     0.24617   0.63143   0.45195   0.00000  Uiso   1.00
C154   C     0.22705   0.64034   0.29629   0.00000  Uiso   1.00
C155   C     0.18388   0.62309   0.29507   0.00000  Uiso   1.00
C156   C     0.15918   0.59692   0.44995   0.00000  Uiso   1.00
C157   C     0.17831   0.58878   0.60913   0.00000  Uiso   1.00
C158   C     0.22148   0.60593   0.60962   0.00000  Uiso   1.00
N159   N     0.11488   0.57767   0.43696   0.00000  Uiso   1.00
C160   C     0.08924   0.55086   0.56590   0.00000  Uiso   1.00
C161   C     0.04367   0.53008   0.54531   0.00000  Uiso   1.00
C162   C     0.02389   0.53825   0.38734   0.00000  Uiso   1.00
C163   C     0.98037   0.51424   0.37293   0.00000  Uiso   1.00
O164   O     0.04793   0.56975   0.24785   0.00000  Uiso   1.00
C165   C     0.31804   0.69129   0.43693   0.00000  Uiso   1.00
C166   C     0.64783   0.78264   1.31993   0.00000  Uiso   1.00
C167   C     0.96305   0.98497   0.76815   0.00000  Uiso   1.00
C168   C     0.91766   0.96898   0.77340   0.00000  Uiso   1.00
C169   C     0.89893   0.97852   0.61813   0.00000  Uiso   1.00
C170   C     0.85575   0.96079   0.61331   0.00000  Uiso   1.00
C171   C     0.83078   0.93348   0.76422   0.00000  Uiso   1.00
C172   C     0.84954   0.92508   0.92381   0.00000  Uiso   1.00
C173   C     0.89262   0.94273   0.92808   0.00000  Uiso   1.00
N174   N     0.78656   0.91329   0.74800   0.00000  Uiso   1.00
C175   C     0.76147   0.88572   0.87549   0.00000  Uiso   1.00
C176   C     0.71602   0.86392   0.85568   0.00000  Uiso   1.00
C177   C     0.69566   0.86905   0.69130   0.00000  Uiso   1.00
C178   C     0.65202   0.84537   0.68479   0.00000  Uiso   1.00
O179   O     0.71926   0.89729   0.53854   0.00000  Uiso   1.00
C180   C     0.99019   0.02789   0.74688   0.00000  Uiso   1.00
C181   C     0.89414   0.19911   0.61955   0.00000  Uiso   1.00
C182   C     0.69227   0.31166   0.10027   0.00000  Uiso   1.00
C183   C     0.71042   0.28421   0.09808   0.00000  Uiso   1.00
C184   C     0.69670   0.25173  -0.03934   0.00000  Uiso   1.00
C185   C     0.71477   0.22669  -0.04867   0.00000  Uiso   1.00
C186   C     0.74701   0.23388   0.07914   0.00000  Uiso   1.00
C187   C     0.76133   0.26679   0.21582   0.00000  Uiso   1.00
C188   C     0.74328   0.29193   0.22426   0.00000  Uiso   1.00
N189   N     0.76522   0.20796   0.06407   0.00000  Uiso   1.00
C190   C     0.79416   0.21146   0.18142   0.00000  Uiso   1.00
C191   C     0.81312   0.18504   0.16433   0.00000  Uiso   1.00
C192   C     0.80504   0.15659   0.00802   0.00000  Uiso   1.00
C193   C     0.82504   0.13287   0.00886   0.00000  Uiso   1.00
O194   O     0.77785   0.15296  -0.14488   0.00000  Uiso   1.00
C195   C     0.64917   0.29670   0.11405   0.00000  Uiso   1.00
C196   C     0.56432   0.53835   0.96272   0.00000  Uiso   1.00
C197   C     0.35321   0.63990   0.43585   0.00000  Uiso   1.00
C198   C     0.37385   0.61468   0.43101   0.00000  Uiso   1.00
C199   C     0.35774   0.57846   0.31654   0.00000  Uiso   1.00
C200   C     0.37778   0.55531   0.30724   0.00000  Uiso   1.00
C201   C     0.41430   0.56806   0.41267   0.00000  Uiso   1.00
C202   C     0.43086   0.60449   0.52676   0.00000  Uiso   1.00
C203   C     0.41085   0.62774   0.53478   0.00000  Uiso   1.00
N204   N     0.43369   0.54327   0.40283   0.00000  Uiso   1.00
C205   C     0.46483   0.55003   0.51255   0.00000  Uiso   1.00
C206   C     0.48423   0.52400   0.50077   0.00000  Uiso   1.00
C207   C     0.47581   0.49471   0.34840   0.00000  Uiso   1.00
C208   C     0.49524   0.47057   0.35443   0.00000  Uiso   1.00
O209   O     0.44863   0.49056   0.19442   0.00000  Uiso   1.00
C210   C     0.30961   0.62230   0.44802   0.00000  Uiso   1.00
C211   C     0.22949   0.86683   1.28741   0.00000  Uiso   1.00
C212   C     0.02334   0.97484   0.76437   0.00000  Uiso   1.00
C213   C     0.04305   0.94875   0.76260   0.00000  Uiso   1.00
C214   C     0.02551   0.91175   0.65393   0.00000  Uiso   1.00
C215   C     0.04472   0.88782   0.64444   0.00000  Uiso   1.00
C216   C     0.08184   0.90049   0.74410   0.00000  Uiso   1.00
C217   C     0.09994   0.93778   0.85221   0.00000  Uiso   1.00
C218   C     0.08075   0.96187   0.86011   0.00000  Uiso   1.00
N219   N     0.10025   0.87480   0.73347   0.00000  Uiso   1.00
C220   C     0.13118   0.88066   0.84231   0.00000  Uiso   1.00
C221   C     0.14968   0.85387   0.82813   0.00000  Uiso   1.00
C222   C     0.14107   0.82495   0.67360   0.00000  Uiso   1.00
C223   C     0.16039   0.80066   0.67646   0.00000  Uiso   1.00
O224   O     0.11401   0.82146   0.52023   0.00000  Uiso   1.00
C225   C     0.97986   0.95816   0.77930   0.00000  Uiso   1.00
C226   C     0.77234   0.68169   0.29039   0.00000  Uiso   1.00
C227   C     0.70472   0.38207   0.08561   0.00000  Uiso   1.00
C228   C     0.73538   0.42668   0.06927   0.00000  Uiso   1.00
C229   C     0.77813   0.44024   0.05768   0.00000  Uiso   1.00
C230   C     0.80754   0.48241   0.04830   0.00000  Uiso   1.00
C231   C     0.79448   0.51160   0.04778   0.00000  Uiso   1.00
C232   C     0.75169   0.49796   0.04866   0.00000  Uiso   1.00
C233   C     0.72237   0.45594   0.05943   0.00000  Uiso   1.00
N234   N     0.82455   0.55486   0.05709   0.00000  Uiso   1.00
C235   C     0.81174   0.58123   0.07350   0.00000  Uiso   1.00
C236   C     0.83820   0.62568   0.09632   0.00000  Uiso   1.00
C237   C     0.88135   0.64819   0.06072   0.00000  Uiso   1.00
C238   C     0.90239   0.69120   0.09681   0.00000  Uiso   1.00
O239   O     0.90190   0.62753  -0.01102   0.00000  Uiso   1.00
C240   C     0.71921   0.35406   0.08741   0.00000  Uiso   1.00
C241   C     0.41863   0.01703   0.55217   0.00000  Uiso   1.00
C242   C     0.36131   0.70887   0.43252   0.00000  Uiso   1.00
C243   C     0.38908   0.75420   0.42418   0.00000  Uiso   1.00
C244   C     0.43241   0.77123   0.41323   0.00000  Uiso   1.00
C245   C     0.45875   0.81402   0.39714   0.00000  Uiso   1.00
C246   C     0.44203   0.84022   0.38666   0.00000  Uiso   1.00
C247   C     0.39874   0.82329   0.39392   0.00000  Uiso   1.00
C248   C     0.37253   0.78068   0.41364   0.00000  Uiso   1.00
N249   N     0.46936   0.88408   0.38330   0.00000  Uiso   1.00
C250   C     0.45499   0.90939   0.38431   0.00000  Uiso   1.00
C251   C     0.48148   0.95417   0.40604   0.00000  Uiso   1.00
C252   C     0.52495   0.97512   0.38265   0.00000  Uiso   1.00
C253   C     0.54720   0.01805   0.41824   0.00000  Uiso   1.00
O254   O     0.54456   0.95251   0.32671   0.00000  Uiso   1.00
C255   C     0.37827   0.68290   0.43057   0.00000  Uiso   1.00
C256   C     0.10555   0.34889   0.99376   0.00000  Uiso   1.00
C257   C     0.03342   0.04455   0.73958   0.00000  Uiso   1.00
C258   C     0.06251   0.08964   0.71456   0.00000  Uiso   1.00
C259   C     0.10565   0.10524   0.70498   0.00000  Uiso   1.00
C260   C     0.13330   0.14767   0.67790   0.00000  Uiso   1.00
C261   C     0.11835   0.17523   0.65582   0.00000  Uiso   1.00
C262   C     0.07519   0.15958   0.65912   0.00000  Uiso   1.00
C263   C     0.04760   0.11731   0.68987   0.00000  Uiso   1.00
N264   N     0.14718   0.21906   0.65625   0.00000  Uiso   1.00
C265   C     0.13430   0.24547   0.67664   0.00000  Uiso   1.00
C266   C     0.16182   0.29015   0.70580   0.00000  Uiso   1.00
C267   C     0.20452   0.31162   0.65816   0.00000  Uiso   1.00
C268   C     0.22798   0.35403   0.70733   0.00000  Uiso   1.00
O269   O     0.22235   0.29050   0.56197   0.00000  Uiso   1.00
C270   C     0.04922   0.01763   0.74742   0.00000  Uiso   1.00
C271   C     0.95347   1.91334   0.83507   0.00000  Uiso   1.00
O272   O     0.91997   1.89129   0.70977   0.00000  Uiso   1.00
C273   C     0.89486   1.85522   0.81930   0.00000  Uiso   1.00
C274   C     0.84920   1.83960   0.78341   0.00000  Uiso   1.00
N275   N     0.83487   1.80215   0.66767   0.00000  Uiso   1.00
C276   C     0.86652   1.79026   0.63960   0.00000  Uiso   1.00
C277   C     0.90365   1.82091   0.75737   0.00000  Uiso   1.00
C278   C     0.85219   1.74675   0.70782   0.00000  Uiso   1.00
O279   O     0.81394   1.72432   0.80819   0.00000  Uiso   1.00
C280   C     0.79524   1.68076   0.78497   0.00000  Uiso   1.00
O281   O     0.87410   1.73130   0.67384   0.00000  Uiso   1.00
C282   C     0.79751   1.78362   0.57439   0.00000  Uiso   1.00
O283   O     0.76524   1.79016   0.64290   0.00000  Uiso   1.00
C284   C     0.72333   1.75869   0.59817   0.00000  Uiso   1.00
C285   C     0.71402   1.71611   0.67164   0.00000  Uiso   1.00
C286   C     0.69372   1.76894   0.70603   0.00000  Uiso   1.00
O287   O     0.79205   1.76071   0.43331   0.00000  Uiso   1.00
C288   C     0.71491   1.75696   0.37617   0.00000  Uiso   1.00
C289   C     0.38458  -0.24901   1.99520   0.00000  Uiso   1.00
O290   O     0.40396  -0.22197   1.83818   0.00000  Uiso   1.00
C291   C     0.41922  -0.18404   1.93322   0.00000  Uiso   1.00
C292   C     0.46602  -0.15935   1.92437   0.00000  Uiso   1.00
N293   N     0.47627  -0.11695   1.88736   0.00000  Uiso   1.00
C294   C     0.44071  -0.11571   1.80400   0.00000  Uiso   1.00
C295   C     0.40321  -0.15844   1.83648   0.00000  Uiso   1.00
C296   C     0.43192  -0.08321   1.88494   0.00000  Uiso   1.00
O297   O     0.46407  -0.04581   1.95867   0.00000  Uiso   1.00
C298   C     0.45109  -0.01685   2.00615   0.00000  Uiso   1.00
O299   O     0.39657  -0.08889   1.87131   0.00000  Uiso   1.00
C300   C     0.51711  -0.08670   1.86510   0.00000  Uiso   1.00
O301   O     0.54850  -0.09555   1.91783   0.00000  Uiso   1.00
C302   C     0.58224  -0.08402   1.77841   0.00000  Uiso   1.00
C303   C     0.60713  -0.03731   1.74233   0.00000  Uiso   1.00
C304   C     0.61148  -0.09705   1.86421   0.00000  Uiso   1.00
O305   O     0.52627  -0.05240   1.80242   0.00000  Uiso   1.00
C306   C     0.56629  -0.10663   1.58192   0.00000  Uiso   1.00
C307   C     0.71977   0.41745   1.63798   0.00000  Uiso   1.00
O308   O     0.71818   0.44180   1.48524   0.00000  Uiso   1.00
C309   C     0.73392   0.48082   1.57286   0.00000  Uiso   1.00
C310   C     0.78093   0.50358   1.57827   0.00000  Uiso   1.00
N311   N     0.79359   0.54670   1.54907   0.00000  Uiso   1.00
C312   C     0.75994   0.55215   1.47295   0.00000  Uiso   1.00
C313   C     0.72265   0.50852   1.45532   0.00000  Uiso   1.00
C314   C     0.74887   0.57616   1.61462   0.00000  Uiso   1.00
O315   O     0.73866   0.56253   1.81301   0.00000  Uiso   1.00
C316   C     0.72252   0.58355   1.92791   0.00000  Uiso   1.00
O317   O     0.74771   0.60647   1.55261   0.00000  Uiso   1.00
C318   C     0.83343   0.57796   1.58332   0.00000  Uiso   1.00
O319   O     0.86221   0.56890   1.67152   0.00000  Uiso   1.00
C320   C     0.88970   0.56299   1.54126   0.00000  Uiso   1.00
C321   C     0.92171   0.56012   1.66726   0.00000  Uiso   1.00
C322   C     0.86658   0.52277   1.42575   0.00000  Uiso   1.00
O323   O     0.84322   0.61402   1.55399   0.00000  Uiso   1.00
C324   C     0.91270   0.59916   1.39746   0.00000  Uiso   1.00
C325   C     0.62125   1.25279   1.16934   0.00000  Uiso   1.00
O326   O     0.60911   1.22675   1.00712   0.00000  Uiso   1.00
C327   C     0.59276   1.18805   1.09633   0.00000  Uiso   1.00
C328   C     0.54622   1.16802   1.12274   0.00000  Uiso   1.00
N329   N     0.53009   1.12498   1.07226   0.00000  Uiso   1.00
C330   C     0.56013   1.11925   0.95439   0.00000  Uiso   1.00
C331   C     0.60114   1.15963   0.96882   0.00000  Uiso   1.00
C332   C     0.56539   1.08357   1.01886   0.00000  Uiso   1.00
O333   O     0.60337   1.09158   1.10026   0.00000  Uiso   1.00
C334   C     0.61259   1.05922   1.06999   0.00000  Uiso   1.00
O335   O     0.53752   1.04807   0.98973   0.00000  Uiso   1.00
C336   C     0.48832   1.09749   1.08574   0.00000  Uiso   1.00
O337   O     0.46288   1.10731   1.20498   0.00000  Uiso   1.00
C338   C     0.42020   1.09078   1.14946   0.00000  Uiso   1.00
C339   C     0.39598   1.04355   1.14283   0.00000  Uiso   1.00
C340   C     0.39925   1.10383   1.30462   0.00000  Uiso   1.00
O341   O     0.47356   1.06485   0.99635   0.00000  Uiso   1.00
C342   C     0.41748   1.10832   0.94951   0.00000  Uiso   1.00
C343   C     1.28341   1.57681   1.48240   0.00000  Uiso   1.00
O344   O     1.25254   1.55853   1.34156   0.00000  Uiso   1.00
C345   C     1.22284   1.52245   1.43628   0.00000  Uiso   1.00
C346   C     1.17993   1.51262   1.37328   0.00000  Uiso   1.00
N347   N     1.16513   1.47619   1.25087   0.00000  Uiso   1.00
C348   C     1.18884   1.45521   1.27424   0.00000  Uiso   1.00
C349   C     1.22879   1.48641   1.37197   0.00000  Uiso   1.00
C350   C     1.16628   1.41863   1.41011   0.00000  Uiso   1.00
O351   O     1.13171   1.41371   1.52069   0.00000  Uiso   1.00
C352   C     1.10198   1.37191   1.56737   0.00000  Uiso   1.00
O353   O     1.17906   1.39428   1.42521   0.00000  Uiso   1.00
C354   C     1.12823   1.45881   1.15373   0.00000  Uiso   1.00
O355   O     1.09748   1.46783   1.21776   0.00000  Uiso   1.00
C356   C     1.05536   1.43892   1.16535   0.00000  Uiso   1.00
C357   C     1.04253   1.39448   1.22470   0.00000  Uiso   1.00
C358   C     1.02754   1.45043   1.27999   0.00000  Uiso   1.00
O359   O     1.12184   1.43439   1.01897   0.00000  Uiso   1.00
C360   C     1.04885   1.44126   0.94376   0.00000  Uiso   1.00
C361   C     0.05474   0.08690   1.28771   0.00000  Uiso   1.00
O362   O     0.06448   0.11031   1.11623   0.00000  Uiso   1.00
C363   C     0.08397   0.15001   1.19386   0.00000  Uiso   1.00
C364   C     0.13061   0.17020   1.17738   0.00000  Uiso   1.00
N365   N     0.14446   0.21363   1.14518   0.00000  Uiso   1.00
C366   C     0.11029   0.22024   1.09168   0.00000  Uiso   1.00
C367   C     0.07205   0.17745   1.08271   0.00000  Uiso   1.00
C368   C     0.10409   0.24662   1.24008   0.00000  Uiso   1.00
O369   O     0.13442   0.28857   1.25049   0.00000  Uiso   1.00
C370   C     0.12088   0.31225   1.35907   0.00000  Uiso   1.00
O371   O     0.07256   0.23191   1.34504   0.00000  Uiso   1.00
C372   C     0.18587   0.24239   1.13156   0.00000  Uiso   1.00
O373   O     0.21522   0.23080   1.18273   0.00000  Uiso   1.00
C374   C     0.25115   0.24418   1.05617   0.00000  Uiso   1.00
C375   C     0.27718   0.29125   1.03852   0.00000  Uiso   1.00
C376   C     0.27809   0.22898   1.14798   0.00000  Uiso   1.00
O377   O     0.19703   0.27809   1.08171   0.00000  Uiso   1.00
C378   C     0.23865   0.22513   0.85017   0.00000  Uiso   1.00
H379   H     0.67531   0.87016   0.31188   0.00000  Uiso   1.00
H380   H     0.71872   0.92396   0.26396   0.00000  Uiso   1.00
H381   H     0.67650   0.91478   0.44451   0.00000  Uiso   1.00
H382   H     0.42869   0.67024   1.19448   0.00000  Uiso   1.00
H383   H     0.50743   0.70782   1.20067   0.00000  Uiso   1.00
H384   H     0.51302   0.77749   0.66164   0.00000  Uiso   1.00
H385   H     0.43471   0.74052   0.65681   0.00000  Uiso   1.00
H386   H     0.56949   0.80211   0.68265   0.00000  Uiso   1.00
H387   H     0.70983   0.83272   1.13961   0.00000  Uiso   1.00
H388   H     0.37466   0.62149   0.92497   0.00000  Uiso   1.00
H389   H     0.34424   0.19937  -0.38044   0.00000  Uiso   1.00
H390   H     0.38544   0.25419  -0.42797   0.00000  Uiso   1.00
H391   H     0.34187   0.24255  -0.25147   0.00000  Uiso   1.00
H392   H     0.09647  -0.00479   0.47579   0.00000  Uiso   1.00
H393   H     0.17494   0.02957   0.47323   0.00000  Uiso   1.00
H394   H     0.18263   0.11730   0.01338   0.00000  Uiso   1.00
H395   H     0.10463   0.08346   0.01686   0.00000  Uiso   1.00
H396   H     0.23825   0.13542   0.00758   0.00000  Uiso   1.00
H397   H     0.37995   0.16111   0.43614   0.00000  Uiso   1.00
H398   H     0.04176   0.95577   0.26986   0.00000  Uiso   1.00
H399   H     0.01031   0.54094   0.00049   0.00000  Uiso   1.00
H400   H     0.04947   0.59711  -0.02799   0.00000  Uiso   1.00
H401   H     0.00221   0.58074   0.12988   0.00000  Uiso   1.00
H402   H     0.75790   0.32146   0.80211   0.00000  Uiso   1.00
H403   H     0.83670   0.35709   0.79491   0.00000  Uiso   1.00
H404   H     0.84176   0.44555   0.34653   0.00000  Uiso   1.00
H405   H     0.76389   0.41060   0.35454   0.00000  Uiso   1.00
H406   H     0.89732   0.47055   0.36646   0.00000  Uiso   1.00
H407   H     0.03595   0.49310   0.81231   0.00000  Uiso   1.00
H408   H     0.69991   0.28291   0.59153   0.00000  Uiso   1.00
H409   H     0.12258   0.77311   0.41289   0.00000  Uiso   1.00
H410   H     0.12281   0.80963   0.22281   0.00000  Uiso   1.00
H411   H     0.07309   0.77084   0.34490   0.00000  Uiso   1.00
H412   H     0.32871   0.74853   1.19315   0.00000  Uiso   1.00
H413   H     0.29157   0.78947   1.19317   0.00000  Uiso   1.00
H414   H     0.21518   0.71488   0.69379   0.00000  Uiso   1.00
H415   H     0.25220   0.67330   0.69468   0.00000  Uiso   1.00
H416   H     0.19611   0.75395   0.69013   0.00000  Uiso   1.00
H417   H     0.18355   0.88172   1.10051   0.00000  Uiso   1.00
H418   H     0.78765   0.10567  -0.25649   0.00000  Uiso   1.00
H419   H     0.78796   0.14281  -0.44310   0.00000  Uiso   1.00
H420   H     0.73806   0.10297  -0.32646   0.00000  Uiso   1.00
H421   H     1.00095   0.08793   0.49849   0.00000  Uiso   1.00
H422   H     0.96339   0.12852   0.49931   0.00000  Uiso   1.00
H423   H     0.88194   0.04865   0.02532   0.00000  Uiso   1.00
H424   H     0.91931   0.00752   0.02552   0.00000  Uiso   1.00
H425   H     0.86127   0.08638   0.02352   0.00000  Uiso   1.00
H426   H     0.84666   0.21256   0.43760   0.00000  Uiso   1.00
H427   H     0.45828   0.44280   0.08855   0.00000  Uiso   1.00
H428   H     0.45846   0.47918  -0.10218   0.00000  Uiso   1.00
H429   H     0.40865   0.43985   0.01717   0.00000  Uiso   1.00
H430   H     0.66578   0.41950   0.85607   0.00000  Uiso   1.00
H431   H     0.63006   0.46202   0.85851   0.00000  Uiso   1.00
H432   H     0.54823   0.38471   0.37928   0.00000  Uiso   1.00
H433   H     0.58367   0.34178   0.37777   0.00000  Uiso   1.00
H434   H     0.52998   0.42344   0.37553   0.00000  Uiso   1.00
H435   H     0.51807   0.55271   0.77259   0.00000  Uiso   1.00
H436   H     0.27105   0.32529   0.35884   0.00000  Uiso   1.00
H437   H     0.28083   0.29475   0.54814   0.00000  Uiso   1.00
H438   H     0.28029   0.34276   0.62274   0.00000  Uiso   1.00
H439   H     0.23049   0.57164   0.92933   0.00000  Uiso   1.00
H440   H     0.18958   0.49365   0.89136   0.00000  Uiso   1.00
H441   H     0.30558   0.48945   0.87653   0.00000  Uiso   1.00
H442   H     0.34682   0.56759   0.91044   0.00000  Uiso   1.00
H443   H     0.27162   0.43346   0.82857   0.00000  Uiso   1.00
H444   H     0.10918   0.29245   0.83788   0.00000  Uiso   1.00
H445   H     0.25921   0.62640   0.93128   0.00000  Uiso   1.00
H446   H     0.94912   0.66364  -0.21869   0.00000  Uiso   1.00
H447   H     0.96162   0.63478  -0.03143   0.00000  Uiso   1.00
H448   H     0.95884   0.68155   0.04449   0.00000  Uiso   1.00
H449   H     0.89803   0.90689   0.30639   0.00000  Uiso   1.00
H450   H     0.85693   0.82854   0.27724   0.00000  Uiso   1.00
H451   H     0.97325   0.82544   0.21778   0.00000  Uiso   1.00
H452   H     1.01430   0.90344   0.24568   0.00000  Uiso   1.00
H453   H     0.94110   0.77140   0.18108   0.00000  Uiso   1.00
H454   H     0.78242   0.62603   0.19220   0.00000  Uiso   1.00
H455   H     0.92754   0.96275   0.26941   0.00000  Uiso   1.00
H456   H     0.59097   0.98606   0.11179   0.00000  Uiso   1.00
H457   H     0.60264   0.95629   0.29749   0.00000  Uiso   1.00
H458   H     0.60323   1.00482   0.37300   0.00000  Uiso   1.00
H459   H     0.55771   0.24024   0.65879   0.00000  Uiso   1.00
H460   H     0.51229   0.16252   0.62048   0.00000  Uiso   1.00
H461   H     0.62295   0.15251   0.48165   0.00000  Uiso   1.00
H462   H     0.66857   0.22983   0.52785   0.00000  Uiso   1.00
H463   H     0.58846   0.09827   0.48222   0.00000  Uiso   1.00
H464   H     0.42611   0.95785   0.47843   0.00000  Uiso   1.00
H465   H     0.58901   0.29584   0.61396   0.00000  Uiso   1.00
H466   H     0.35338   0.12483   0.56483   0.00000  Uiso   1.00
H467   H     0.30810   0.07277   0.62498   0.00000  Uiso   1.00
H468   H     0.31450   0.11970   0.75694   0.00000  Uiso   1.00
H469   H     0.58913   0.34698  -0.13959   0.00000  Uiso   1.00
H470   H     0.51085   0.31246  -0.15895   0.00000  Uiso   1.00
H471   H     0.49815   0.23392   0.35603   0.00000  Uiso   1.00
H472   H     0.57565   0.26793   0.37546   0.00000  Uiso   1.00
H473   H     0.44371   0.20641   0.30536   0.00000  Uiso   1.00
H474   H     0.30269   0.17956  -0.13203   0.00000  Uiso   1.00
H475   H     0.64988   0.39010   0.08801   0.00000  Uiso   1.00
H476   H     0.99136   0.48585   1.01589   0.00000  Uiso   1.00
H477   H     0.97729   0.43073   1.05508   0.00000  Uiso   1.00
H478   H     0.93813   0.44704   1.10430   0.00000  Uiso   1.00
H479   H     0.24668   0.66180   0.16934   0.00000  Uiso   1.00
H480   H     0.16858   0.63033   0.16718   0.00000  Uiso   1.00
H481   H     0.15865   0.56816   0.73831   0.00000  Uiso   1.00
H482   H     0.23656   0.59901   0.73962   0.00000  Uiso   1.00
H483   H     0.10165   0.54247   0.70192   0.00000  Uiso   1.00
H484   H     0.96373   0.52062   0.24834   0.00000  Uiso   1.00
H485   H     0.30435   0.71271   0.43267   0.00000  Uiso   1.00
H486   H     0.68241   0.80519   1.29524   0.00000  Uiso   1.00
H487   H     0.64222   0.74964   1.33340   0.00000  Uiso   1.00
H488   H     0.63693   0.79116   1.46267   0.00000  Uiso   1.00
H489   H     0.91892   1.00087   0.49460   0.00000  Uiso   1.00
H490   H     0.84076   0.96859   0.48600   0.00000  Uiso   1.00
H491   H     0.82956   0.90378   1.05046   0.00000  Uiso   1.00
H492   H     0.90744   0.93568   1.05873   0.00000  Uiso   1.00
H493   H     0.77440   0.87747   1.00996   0.00000  Uiso   1.00
H494   H     0.63482   0.84882   0.55341   0.00000  Uiso   1.00
H495   H     0.97723   0.04986   0.73521   0.00000  Uiso   1.00
H496   H     0.91242   0.23186   0.55473   0.00000  Uiso   1.00
H497   H     0.91227   0.19572   0.74679   0.00000  Uiso   1.00
H498   H     0.86275   0.19333   0.67812   0.00000  Uiso   1.00
H499   H     0.67049   0.24551  -0.14520   0.00000  Uiso   1.00
H500   H     0.70322   0.20026  -0.16089   0.00000  Uiso   1.00
H501   H     0.78776   0.27304   0.32030   0.00000  Uiso   1.00
H502   H     0.75535   0.31880   0.33418   0.00000  Uiso   1.00
H503   H     0.80596   0.23579   0.30427   0.00000  Uiso   1.00
H504   H     0.81896   0.10957  -0.11515   0.00000  Uiso   1.00
H505   H     0.58262   0.57081   0.89466   0.00000  Uiso   1.00
H506   H     0.58262   0.53541   1.09043   0.00000  Uiso   1.00
H507   H     0.53310   0.53298   1.02159   0.00000  Uiso   1.00
H508   H     0.32792   0.56766   0.22975   0.00000  Uiso   1.00
H509   H     0.36436   0.52589   0.21341   0.00000  Uiso   1.00
H510   H     0.46070   0.61509   0.61302   0.00000  Uiso   1.00
H511   H     0.42469   0.65749   0.62623   0.00000  Uiso   1.00
H512   H     0.47806   0.57689   0.62268   0.00000  Uiso   1.00
H513   H     0.48894   0.44667   0.23321   0.00000  Uiso   1.00
H514   H     0.24779   0.89955   1.22226   0.00000  Uiso   1.00
H515   H     0.24765   0.86345   1.41453   0.00000  Uiso   1.00
H516   H     0.19815   0.86113   1.34624   0.00000  Uiso   1.00
H517   H    -0.00486   0.90088   0.57186   0.00000  Uiso   1.00
H518   H     0.03011   0.85778   0.55504   0.00000  Uiso   1.00
H519   H     0.13033   0.94840   0.93364   0.00000  Uiso   1.00
H520   H     0.09586   0.99232   0.94627   0.00000  Uiso   1.00
H521   H     0.14493   0.90730   0.95357   0.00000  Uiso   1.00
H522   H     0.15401   0.77711   0.55334   0.00000  Uiso   1.00
H523   H     0.76475   0.64907   0.33590   0.00000  Uiso   1.00
H524   H     0.75715   0.68030   0.14194   0.00000  Uiso   1.00
H525   H     0.76002   0.69489   0.40913   0.00000  Uiso   1.00
H526   H     0.78911   0.41657   0.05588   0.00000  Uiso   1.00
H527   H     0.84205   0.49286   0.04110   0.00000  Uiso   1.00
H528   H     0.74066   0.52153   0.04045   0.00000  Uiso   1.00
H529   H     0.68780   0.44530   0.06025   0.00000  Uiso   1.00
H530   H     0.77705   0.57002   0.07057   0.00000  Uiso   1.00
H531   H     0.93740   0.71047   0.07075   0.00000  Uiso   1.00
H532   H     0.75402   0.36590   0.07817   0.00000  Uiso   1.00
H533   H     0.40863  -0.01635   0.59571   0.00000  Uiso   1.00
H534   H     0.40536   0.01737   0.40046   0.00000  Uiso   1.00
H535   H     0.40653   0.03095   0.66828   0.00000  Uiso   1.00
H536   H     0.44627   0.74995   0.41749   0.00000  Uiso   1.00
H537   H     0.49386   0.82753   0.39258   0.00000  Uiso   1.00
H538   H     0.38494   0.84457   0.38359   0.00000  Uiso   1.00
H539   H     0.33745   0.76727   0.42126   0.00000  Uiso   1.00
H540   H     0.42024   0.89689   0.36775   0.00000  Uiso   1.00
H541   H     0.58255   0.03582   0.40472   0.00000  Uiso   1.00
H542   H     0.41342   0.69679   0.42453   0.00000  Uiso   1.00
H543   H     0.09801   0.31649   1.04304   0.00000  Uiso   1.00
H544   H     0.08721   0.34642   0.85459   0.00000  Uiso   1.00
H545   H     0.09675   0.36410   1.11814   0.00000  Uiso   1.00
H546   H     0.11843   0.08316   0.71939   0.00000  Uiso   1.00
H547   H     0.16821   0.15992   0.67374   0.00000  Uiso   1.00
H548   H     0.06245   0.18151   0.63654   0.00000  Uiso   1.00
H549   H     0.01274   0.10531   0.69487   0.00000  Uiso   1.00
H550   H     0.09964   0.23434   0.67239   0.00000  Uiso   1.00
H551   H     0.26262   0.37232   0.66997   0.00000  Uiso   1.00
H552   H     0.08423   0.03052   0.73993   0.00000  Uiso   1.00
H553   H     0.97363   1.89820   0.83243   0.00000  Uiso   1.00
H554   H     0.94159   1.91206   0.99377   0.00000  Uiso   1.00
H555   H     0.90151   1.86191   0.98466   0.00000  Uiso   1.00
H556   H     0.84537   1.86368   0.69569   0.00000  Uiso   1.00
H557   H     0.83195   1.83298   0.93245   0.00000  Uiso   1.00
H558   H     0.87558   1.79329   0.47504   0.00000  Uiso   1.00
H559   H     0.90718   1.80507   0.89497   0.00000  Uiso   1.00
H560   H     0.93328   1.83474   0.66256   0.00000  Uiso   1.00
H561   H     0.81277   1.66882   0.87654   0.00000  Uiso   1.00
H562   H     0.79639   1.67323   0.62111   0.00000  Uiso   1.00
H563   H     0.76151   1.66514   0.83855   0.00000  Uiso   1.00
H564   H     0.73757   1.72003   0.78916   0.00000  Uiso   1.00
H565   H     0.71614   1.69752   0.54122   0.00000  Uiso   1.00
H566   H     0.68138   1.69889   0.73954   0.00000  Uiso   1.00
H567   H     0.67145   1.74143   0.80335   0.00000  Uiso   1.00
H568   H     0.67528   1.77572   0.59267   0.00000  Uiso   1.00
H569   H     0.71208   1.79742   0.80351   0.00000  Uiso   1.00
H570   H     0.72329   1.73452   0.30127   0.00000  Uiso   1.00
H571   H     0.73454   1.78927   0.30817   0.00000  Uiso   1.00
H572   H     0.68059   1.74580   0.35273   0.00000  Uiso   1.00
H573   H     0.36249  -0.24037   2.07264   0.00000  Uiso   1.00
H574   H     0.40887  -0.24594   2.10645   0.00000  Uiso   1.00
H575   H     0.40857  -0.18975   2.09586   0.00000  Uiso   1.00
H576   H     0.47819  -0.17087   1.79714   0.00000  Uiso   1.00
H577   H     0.47899  -0.16251   2.07214   0.00000  Uiso   1.00
H578   H     0.44624  -0.11039   1.63653   0.00000  Uiso   1.00
H579   H     0.37970  -0.15631   1.93925   0.00000  Uiso   1.00
H580   H     0.38808  -0.17324   1.68914   0.00000  Uiso   1.00
H581   H     0.42695  -0.02985   2.13188   0.00000  Uiso   1.00
H582   H     0.43687  -0.01101   1.86922   0.00000  Uiso   1.00
H583   H     0.47900   0.01360   2.05555   0.00000  Uiso   1.00
H584   H     0.60971  -0.03074   1.57540   0.00000  Uiso   1.00
H585   H     0.63956  -0.02434   1.80615   0.00000  Uiso   1.00
H586   H     0.59078  -0.02187   1.81842   0.00000  Uiso   1.00
H587   H     0.63439  -0.09484   1.74363   0.00000  Uiso   1.00
H588   H     0.59283  -0.13045   1.92075   0.00000  Uiso   1.00
H589   H     0.62925  -0.07568   1.99285   0.00000  Uiso   1.00
H590   H     0.57407  -0.13259   1.56945   0.00000  Uiso   1.00
H591   H     0.58167  -0.08379   1.45313   0.00000  Uiso   1.00
H592   H     0.53117  -0.12046   1.57593   0.00000  Uiso   1.00
H593   H     0.71004   0.42618   1.78367   0.00000  Uiso   1.00
H594   H     0.75294   0.42371   1.65232   0.00000  Uiso   1.00
H595   H     0.72100   0.47693   1.73120   0.00000  Uiso   1.00
H596   H     0.79376   0.49236   1.45265   0.00000  Uiso   1.00
H597   H     0.79134   0.49805   1.72854   0.00000  Uiso   1.00
H598   H     0.76883   0.56811   1.32096   0.00000  Uiso   1.00
H599   H     0.69380   0.50735   1.52307   0.00000  Uiso   1.00
H600   H     0.71683   0.49784   1.29370   0.00000  Uiso   1.00
H601   H     0.70099   0.56189   2.04984   0.00000  Uiso   1.00
H602   H     0.70439   0.59335   1.82746   0.00000  Uiso   1.00
H603   H     0.74923   0.61227   1.99863   0.00000  Uiso   1.00
H604   H     0.95253   0.57416   1.58188   0.00000  Uiso   1.00
H605   H     0.91058   0.52613   1.70283   0.00000  Uiso   1.00
H606   H     0.92610   0.57791   1.81188   0.00000  Uiso   1.00
H607   H     0.87718   0.50030   1.47587   0.00000  Uiso   1.00
H608   H     0.87342   0.52950   1.25973   0.00000  Uiso   1.00
H609   H     0.83177   0.50829   1.45482   0.00000  Uiso   1.00
H610   H     0.89258   0.59429   1.26207   0.00000  Uiso   1.00
H611   H     0.94303   0.60104   1.34758   0.00000  Uiso   1.00
H612   H     0.91976   0.62930   1.47474   0.00000  Uiso   1.00
H613   H     0.63789   1.24273   1.27809   0.00000  Uiso   1.00
H614   H     0.59267   1.25043   1.24679   0.00000  Uiso   1.00
H615   H     0.60757   1.19158   1.24809   0.00000  Uiso   1.00
H616   H     0.53355   1.18289   1.01720   0.00000  Uiso   1.00
H617   H     0.53852   1.17172   1.28372   0.00000  Uiso   1.00
H618   H     0.55001   1.11436   0.79231   0.00000  Uiso   1.00
H619   H     0.62527   1.15381   1.04213   0.00000  Uiso   1.00
H620   H     0.61278   1.17434   0.81552   0.00000  Uiso   1.00
H621   H     0.60330   1.04634   0.91309   0.00000  Uiso   1.00
H622   H     0.59454   1.03335   1.18349   0.00000  Uiso   1.00
H623   H     0.64732   1.07198   1.08908   0.00000  Uiso   1.00
H624   H     0.41351   1.03071   1.22784   0.00000  Uiso   1.00
H625   H     0.39228   1.03286   0.98131   0.00000  Uiso   1.00
H626   H     0.36400   1.03166   1.21436   0.00000  Uiso   1.00
H627   H     0.37999   1.07672   1.41034   0.00000  Uiso   1.00
H628   H     0.37810   1.11341   1.22815   0.00000  Uiso   1.00
H629   H     0.42384   1.13122   1.39249   0.00000  Uiso   1.00
H630   H     0.42800   1.09441   0.82597   0.00000  Uiso   1.00
H631   H     0.43840   1.14354   0.94951   0.00000  Uiso   1.00
H632   H     0.38400   1.10015   0.92305   0.00000  Uiso   1.00
H633   H     1.30386   1.56202   1.47488   0.00000  Uiso   1.00
H634   H     1.26863   1.57150   1.63727   0.00000  Uiso   1.00
H635   H     1.22580   1.52641   1.60479   0.00000  Uiso   1.00
H636   H     1.18192   1.53952   1.28301   0.00000  Uiso   1.00
H637   H     1.15937   1.50649   1.51104   0.00000  Uiso   1.00
H638   H     1.19538   1.44532   1.12353   0.00000  Uiso   1.00
H639   H     1.23471   1.47180   1.50764   0.00000  Uiso   1.00
H640   H     1.25615   1.49818   1.26287   0.00000  Uiso   1.00
H641   H     1.11837   1.35563   1.63150   0.00000  Uiso   1.00
H642   H     1.08494   1.35526   1.42645   0.00000  Uiso   1.00
H643   H     1.07870   1.37122   1.68172   0.00000  Uiso   1.00
H644   H     1.06590   1.39486   1.33424   0.00000  Uiso   1.00
H645   H     1.04172   1.37626   1.08638   0.00000  Uiso   1.00
H646   H     1.01037   1.37910   1.29789   0.00000  Uiso   1.00
H647   H     1.00558   1.42338   1.38049   0.00000  Uiso   1.00
H648   H     1.00866   1.45767   1.17135   0.00000  Uiso   1.00
H649   H     1.04730   1.47896   1.37495   0.00000  Uiso   1.00
H650   H     1.05835   1.42062   0.85914   0.00000  Uiso   1.00
H651   H     1.06864   1.47475   0.88993   0.00000  Uiso   1.00
H652   H     1.01468   1.43016   0.91599   0.00000  Uiso   1.00
H653   H     0.03672   0.09646   1.39301   0.00000  Uiso   1.00
H654   H     0.08456   0.09299   1.36314   0.00000  Uiso   1.00
H655   H     0.07460   0.14848   1.35734   0.00000  Uiso   1.00
H656   H     0.13975   0.15709   1.04491   0.00000  Uiso   1.00
H657   H     0.14323   0.16475   1.32111   0.00000  Uiso   1.00
H658   H     0.11676   0.23558   0.93849   0.00000  Uiso   1.00
H659   H     0.04459   0.17750   1.15997   0.00000  Uiso   1.00
H660   H     0.06386   0.16596   0.92308   0.00000  Uiso   1.00
H661   H     0.09951   0.29266   1.48651   0.00000  Uiso   1.00
H662   H     0.10327   0.32228   1.25636   0.00000  Uiso   1.00
H663   H     0.14892   0.34094   1.42207   0.00000  Uiso   1.00
H664   H     0.28210   0.30062   0.87451   0.00000  Uiso   1.00
H665   H     0.30857   0.30243   1.11097   0.00000  Uiso   1.00
H666   H     0.26036   0.30598   1.11684   0.00000  Uiso   1.00
H667   H     0.30090   0.22962   1.03092   0.00000  Uiso   1.00
H668   H     0.25765   0.19582   1.20501   0.00000  Uiso   1.00
H669   H     0.29604   0.25002   1.27724   0.00000  Uiso   1.00
H670   H     0.24791   0.20036   0.83007   0.00000  Uiso   1.00
H671   H     0.25508   0.25039   0.73210   0.00000  Uiso   1.00
H672   H     0.20358   0.21036   0.83391   0.00000  Uiso   1.00
loop_
_geom_bond_atom_site_label_1
_geom_bond_atom_site_label_2
_geom_bond_distance
_geom_bond_site_symmetry_2
_ccdc_geom_bond_type
C1     O179    1.416   .     S
C1     H379    1.137   .     S
C1     H380    1.146   .     S
C1     H381    1.144   .     S
C2     C3      1.476   .     S
C2     C15     1.391   .     D
C2     C60     1.411   .     S
C3     C4      1.393   .     D
C3     C8      1.406   .     S
C4     C5      1.398   .     S
C4     H382    1.145   .     S
C5     C6      1.406   .     D
C5     H383    1.134   .     S
C6     C7      1.395   .     S
C6     N9      1.429   .     S
C7     C8      1.394   .     D
C7     H384    1.145   .     S
C8     H385    1.134   .     S
N9     C10     1.303   .     D
C10    C11     1.472   .     S
C10    H386    1.135   .     S
C11    C12     1.403   .     D
C11    C178    1.403   .     S
C12    C13     1.406   .     S
C12    O14     1.414   .     S
C13    C176    1.403   .     D
C13    H387    1.134   .     S
O14    C166    1.412   .     S
C15    C92     1.397   .     S
C15    H388    1.140   .     S
C16    O149    1.417   .     S
C16    H389    1.137   .     S
C16    H390    1.146   .     S
C16    H391    1.144   .     S
C17    C18     1.485   .     S
C17    C30     1.390   1_545 D
C17    C75     1.411   .     S
C18    C19     1.397   .     S
C18    C23     1.407   .     D
C19    C20     1.399   .     D
C19    H392    1.145   .     S
C20    C21     1.405   .     S
C20    H393    1.135   .     S
C21    C22     1.396   .     D
C21    N24     1.431   .     S
C22    C23     1.394   .     S
C22    H394    1.145   .     S
C23    H395    1.135   .     S
N24    C25     1.303   .     D
C25    C26     1.473   .     S
C25    H396    1.135   .     S
C26    C27     1.403   .     S
C26    C148    1.404   .     D
C27    C28     1.407   .     D
C27    O29     1.415   .     S
C28    C146    1.404   .     S
C28    H397    1.133   .     S
O29    C136    1.416   .     S
C30    C17     1.390   1_565 D
C30    C107    1.397   1_455 S
C30    H398    1.140   .     S
C31    O164    1.417   .     S
C31    H399    1.138   .     S
C31    H400    1.146   .     S
C31    H401    1.143   .     S
C32    C33     1.480   .     S
C32    C45     1.394   .     S
C32    C90     1.415   .     D
C33    C34     1.396   .     D
C33    C38     1.404   .     S
C34    C35     1.400   .     S
C34    H402    1.144   .     S
C35    C36     1.406   .     D
C35    H403    1.135   .     S
C36    C37     1.391   .     S
C36    N39     1.426   .     S
C37    C38     1.388   .     D
C37    H404    1.144   .     S
C38    H405    1.135   .     S
N39    C40     1.302   .     D
C40    C41     1.467   .     S
C40    H406    1.135   .     S
C41    C42     1.400   .     D
C41    C163    1.400   .     S
C42    C43     1.404   1_655 S
C42    O44     1.408   .     S
C43    C42     1.404   1_455 S
C43    C161    1.405   .     D
C43    H407    1.134   .     S
O44    C151    1.411   .     S
C45    C122    1.398   .     D
C45    H408    1.140   .     S
C46    O224    1.424   .     S
C46    H409    1.137   .     S
C46    H410    1.145   .     S
C46    H411    1.138   .     S
C47    C48     1.487   .     S
C47    C60     1.415   .     D
C47    C105    1.396   .     S
C48    C49     1.399   .     D
C48    C53     1.394   .     S
C49    C50     1.392   .     S
C49    H412    1.132   .     S
C50    C51     1.385   .     D
C50    H413    1.139   .     S
C51    C52     1.403   .     S
C51    N54     1.429   .     S
C52    C53     1.400   .     D
C52    H414    1.133   .     S
C53    H415    1.139   .     S
N54    C55     1.286   .     D
C55    C56     1.474   .     S
C55    H416    1.138   .     S
C56    C57     1.413   .     D
C56    C223    1.387   .     S
C57    C58     1.404   .     S
C57    O59     1.400   .     S
C58    C221    1.384   .     D
C58    H417    1.139   .     S
O59    C211    1.424   .     S
C60    C289    1.478   1_564 S
C61    O194    1.424   .     S
C61    H418    1.138   .     S
C61    H419    1.145   .     S
C61    H420    1.138   .     S
C62    C63     1.488   .     S
C62    C75     1.416   1_655 D
C62    C120    1.396   1_545 S
C63    C64     1.399   .     D
C63    C68     1.394   .     S
C64    C65     1.394   .     S
C64    H421    1.133   .     S
C65    C66     1.386   .     D
C65    H422    1.138   .     S
C66    C67     1.403   .     S
C66    N69     1.431   .     S
C67    C68     1.401   .     D
C67    H423    1.133   .     S
C68    H424    1.138   .     S
N69    C70     1.287   .     D
C70    C71     1.476   .     S
C70    H425    1.138   .     S
C71    C72     1.413   .     D
C71    C193    1.389   .     S
C72    C73     1.405   .     S
C72    O74     1.400   .     S
C73    C191    1.384   .     D
C73    H426    1.139   .     S
O74    C181    1.424   .     S
C75    C62     1.416   1_455 D
C75    C361    1.471   1_554 S
C76    O209    1.423   .     S
C76    H427    1.138   .     S
C76    H428    1.145   .     S
C76    H429    1.138   .     S
C77    C78     1.484   .     S
C77    C90     1.414   .     S
C77    C135    1.397   .     D
C78    C79     1.400   .     S
C78    C83     1.393   .     D
C79    C80     1.395   .     D
C79    H430    1.133   .     S
C80    C81     1.387   .     S
C80    H431    1.138   .     S
C81    C82     1.403   .     D
C81    N84     1.430   .     S
C82    C83     1.398   .     S
C82    H432    1.133   .     S
C83    H433    1.138   .     S
N84    C85     1.286   .     D
C85    C86     1.473   .     S
C85    H434    1.138   .     S
C86    C87     1.412   .     S
C86    C208    1.387   .     D
C87    C88     1.406   .     D
C87    O89     1.400   .     S
C88    C206    1.386   .     S
C88    H435    1.139   .     S
O89    C196    1.424   .     S
C90    C307    1.488   1_554 S
C91    O269    1.428   .     S
C91    H436    1.142   .     S
C91    H437    1.138   .     S
C91    H438    1.137   .     S
C92    C93     1.472   .     S
C92    C105    1.401   .     D
C93    C94     1.401   .     S
C93    C98     1.405   .     D
C94    C95     1.390   .     D
C94    H439    1.140   .     S
C95    C96     1.396   .     S
C95    H440    1.140   .     S
C96    C97     1.402   .     D
C96    N99     1.426   .     S
C97    C98     1.393   .     S
C97    H441    1.141   .     S
C98    H442    1.140   .     S
N99    C100    1.295   .     D
C100   C101    1.467   .     S
C100   H443    1.140   .     S
C101   C102    1.416   .     S
C101   C268    1.402   .     D
C102   C103    1.400   .     D
C102   O104    1.413   .     S
C103   C266    1.400   .     S
C103   H444    1.143   .     S
O104   C256    1.430   .     S
C105   H445    1.140   .     S
C106   O239    1.429   .     S
C106   H446    1.141   .     S
C106   H447    1.138   .     S
C106   H448    1.138   .     S
C107   C30     1.397   1_655 S
C107   C108    1.470   .     S
C107   C120    1.400   .     D
C108   C109    1.403   .     D
C108   C113    1.403   .     S
C109   C110    1.393   .     S
C109   H449    1.141   .     S
C110   C111    1.400   .     D
C110   H450    1.141   .     S
C111   C112    1.402   .     S
C111   N114    1.426   .     S
C112   C113    1.388   .     D
C112   H451    1.141   .     S
C113   H452    1.141   .     S
N114   C115    1.294   .     D
C115   C116    1.462   .     S
C115   H453    1.141   .     S
C116   C117    1.414   .     D
C116   C238    1.403   .     S
C117   C118    1.393   .     S
C117   O119    1.409   .     S
C118   C236    1.388   .     D
C118   H454    1.143   .     S
O119   C226    1.430   .     S
C120   C62     1.396   1_565 S
C120   H455    1.140   .     S
C121   O254    1.427   .     S
C121   H456    1.141   .     S
C121   H457    1.139   .     S
C121   H458    1.137   .     S
C122   C123    1.475   .     S
C122   C135    1.399   .     S
C123   C124    1.407   .     D
C123   C128    1.406   .     S
C124   C125    1.394   .     S
C124   H459    1.142   .     S
C125   C126    1.401   .     D
C125   H460    1.142   .     S
C126   C127    1.408   .     S
C126   N129    1.428   .     S
C127   C128    1.391   .     D
C127   H461    1.142   .     S
C128   H462    1.142   .     S
N129   C130    1.296   .     D
C130   C131    1.463   .     S
C130   H463    1.141   .     S
C131   C132    1.413   .     D
C131   C253    1.402   .     S
C132   C133    1.399   1_545 S
C132   O134    1.412   .     S
C133   C132    1.399   1_565 S
C133   C251    1.396   .     D
C133   H464    1.142   .     S
O134   C241    1.426   .     S
C135   H465    1.141   .     S
C136   H466    1.144   .     S
C136   H467    1.140   .     S
C136   H468    1.143   .     S
C137   C138    1.498   .     S
C137   C150    1.404   .     S
C137   C195    1.417   .     D
C138   C139    1.397   .     S
C138   C143    1.411   .     D
C139   C140    1.403   .     D
C139   H469    1.145   .     S
C140   C141    1.408   .     S
C140   H470    1.135   .     S
C141   C142    1.395   .     D
C141   N144    1.435   .     S
C142   C143    1.393   .     S
C142   H471    1.145   .     S
C143   H472    1.135   .     S
N144   C145    1.305   .     D
C145   C146    1.474   .     S
C145   H473    1.135   .     S
C146   C147    1.403   .     D
C147   C148    1.408   .     S
C147   O149    1.414   .     S
C148   H474    1.134   .     S
C150   C227    1.409   .     D
C150   H475    1.140   .     S
C151   H476    1.140   .     S
C151   H477    1.138   .     S
C151   H478    1.147   .     S
C152   C153    1.485   .     S
C152   C165    1.398   .     S
C152   C210    1.417   .     D
C153   C154    1.394   .     D
C153   C158    1.411   .     S
C154   C155    1.399   .     S
C154   H479    1.146   .     S
C155   C156    1.406   .     D
C155   H480    1.134   .     S
C156   C157    1.398   .     S
C156   N159    1.433   .     S
C157   C158    1.399   .     D
C157   H481    1.146   .     S
C158   H482    1.134   .     S
N159   C160    1.304   .     D
C160   C161    1.475   .     S
C160   H483    1.135   .     S
C161   C162    1.408   .     S
C162   C163    1.407   1_455 D
C162   O164    1.414   .     S
C163   C162    1.407   1_655 D
C163   H484    1.134   .     S
C165   C242    1.401   .     D
C165   H485    1.140   .     S
C166   H486    1.142   .     S
C166   H487    1.140   .     S
C166   H488    1.145   .     S
C167   C168    1.483   .     S
C167   C180    1.404   1_565 D
C167   C225    1.418   .     S
C168   C169    1.394   .     D
C168   C173    1.410   .     S
C169   C170    1.398   .     S
C169   H489    1.146   .     S
C170   C171    1.405   .     D
C170   H490    1.134   .     S
C171   C172    1.396   .     S
C171   N174    1.429   .     S
C172   C173    1.395   .     D
C172   H491    1.146   .     S
C173   H492    1.134   .     S
N174   C175    1.302   .     D
C175   C176    1.469   .     S
C175   H493    1.135   .     S
C176   C177    1.404   .     S
C177   C178    1.407   .     D
C177   O179    1.415   .     S
C178   H494    1.134   .     S
C180   C167    1.404   1_545 D
C180   C257    1.405   1_655 S
C180   H495    1.139   .     S
C181   H496    1.142   .     S
C181   H497    1.134   .     S
C181   H498    1.145   .     S
C182   C183    1.478   .     S
C182   C195    1.412   .     S
C182   C240    1.384   .     D
C183   C184    1.397   .     D
C183   C188    1.393   .     S
C184   C185    1.395   .     S
C184   H499    1.133   .     S
C185   C186    1.387   .     D
C185   H500    1.138   .     S
C186   C187    1.403   .     S
C186   N189    1.431   .     S
C187   C188    1.398   .     D
C187   H501    1.133   .     S
C188   H502    1.138   .     S
N189   C190    1.287   .     D
C190   C191    1.472   .     S
C190   H503    1.137   .     S
C191   C192    1.411   .     S
C192   C193    1.409   .     D
C192   O194    1.399   .     S
C193   H504    1.139   .     S
C195   C325    1.478   1_544 S
C196   H505    1.143   .     S
C196   H506    1.133   .     S
C196   H507    1.145   .     S
C197   C198    1.479   .     S
C197   C210    1.414   .     S
C197   C255    1.390   .     D
C198   C199    1.398   .     S
C198   C203    1.395   .     D
C199   C200    1.393   .     D
C199   H508    1.133   .     S
C200   C201    1.388   .     S
C200   H509    1.138   .     S
C201   C202    1.402   .     D
C201   N204    1.427   .     S
C202   C203    1.395   .     S
C202   H510    1.133   .     S
C203   H511    1.138   .     S
N204   C205    1.286   .     D
C205   C206    1.470   .     S
C205   H512    1.137   .     S
C206   C207    1.410   .     D
C207   C208    1.406   .     S
C207   O209    1.399   .     S
C208   H513    1.139   .     S
C210   C343    1.487   1_444 S
C211   H514    1.142   .     S
C211   H515    1.134   .     S
C211   H516    1.145   .     S
C212   C213    1.479   .     S
C212   C225    1.416   1_455 D
C212   C270    1.392   1_565 S
C213   C214    1.397   .     D
C213   C218    1.395   .     S
C214   C215    1.393   .     S
C214   H517    1.134   .     S
C215   C216    1.387   .     D
C215   H518    1.138   .     S
C216   C217    1.402   .     S
C216   N219    1.428   .     S
C217   C218    1.397   .     D
C217   H519    1.134   .     S
C218   H520    1.138   .     S
N219   C220    1.286   .     D
C220   C221    1.469   .     S
C220   H521    1.137   .     S
C221   C222    1.410   .     S
C222   C223    1.407   .     D
C222   O224    1.400   .     S
C223   H522    1.139   .     S
C225   C212    1.416   1_655 D
C225   C271    1.497   1_545 S
C226   H523    1.140   .     S
C226   H524    1.134   .     S
C226   H525    1.145   .     S
C227   C228    1.473   .     S
C227   C240    1.391   .     S
C228   C229    1.409   .     D
C228   C233    1.395   .     S
C229   C230    1.393   .     S
C229   H526    1.140   .     S
C230   C231    1.392   .     D
C230   H527    1.140   .     S
C231   C232    1.407   .     S
C231   N234    1.428   .     S
C232   C233    1.389   .     D
C232   H528    1.139   .     S
C233   H529    1.140   .     S
N234   C235    1.291   .     D
C235   C236    1.447   .     S
C235   H530    1.140   .     S
C236   C237    1.410   .     S
C237   C238    1.405   .     D
C237   O239    1.411   .     S
C238   H531    1.142   .     S
C240   H532    1.141   .     S
C241   H533    1.141   .     S
C241   H534    1.135   .     S
C241   H535    1.144   .     S
C242   C243    1.472   .     S
C242   C255    1.392   .     S
C243   C244    1.407   .     D
C243   C248    1.399   .     S
C244   C245    1.393   .     S
C244   H536    1.140   .     S
C245   C246    1.394   .     D
C245   H537    1.141   .     S
C246   C247    1.405   .     S
C246   N249    1.426   .     S
C247   C248    1.390   .     D
C247   H538    1.140   .     S
C248   H539    1.141   .     S
N249   C250    1.293   .     D
C250   C251    1.456   .     S
C250   H540    1.139   .     S
C251   C252    1.408   .     S
C252   C253    1.402   1_565 D
C252   O254    1.411   .     S
C253   C252    1.402   1_545 D
C253   H541    1.141   .     S
C255   H542    1.140   .     S
C256   H543    1.140   .     S
C256   H544    1.133   .     S
C256   H545    1.144   .     S
C257   C180    1.405   1_455 S
C257   C258    1.481   .     S
C257   C270    1.391   .     D
C258   C259    1.408   .     S
C258   C263    1.401   .     D
C259   C260    1.398   .     D
C259   H546    1.139   .     S
C260   C261    1.396   .     S
C260   H547    1.141   .     S
C261   C262    1.407   .     D
C261   N264    1.434   .     S
C262   C263    1.397   .     S
C262   H548    1.139   .     S
C263   H549    1.141   .     S
N264   C265    1.297   .     D
C265   C266    1.464   .     S
C265   H550    1.140   .     S
C266   C267    1.411   .     D
C267   C268    1.407   .     S
C267   O269    1.411   .     S
C268   H551    1.143   .     S
C270   C212    1.392   1_545 S
C270   H552    1.141   .     S
C271   C225    1.497   1_565 S
C271   O272    1.382   .     S
C271   H553    1.140   .     S
C271   H554    1.145   .     S
O272   C273    1.399   .     S
C273   C274    1.513   .     S
C273   C277    1.524   .     S
C273   H555    1.137   .     S
C274   N275    1.443   .     S
C274   H556    1.138   .     S
C274   H557    1.147   .     S
N275   C276    1.461   .     S
N275   C282    1.356   .     S
C276   C277    1.502   .     S
C276   C278    1.499   .     S
C276   H558    1.144   .     S
C277   H559    1.138   .     S
C277   H560    1.147   .     S
C278   O279    1.409   .     S
C278   O281    1.230   .     D
O279   C280    1.415   .     S
C280   H561    1.135   .     S
C280   H562    1.141   .     S
C280   H563    1.145   .     S
C282   O283    1.414   .     S
C282   O287    1.221   .     D
O283   C284    1.436   .     S
C284   C285    1.523   .     S
C284   C286    1.516   .     S
C284   C288    1.518   .     S
C285   H564    1.133   .     S
C285   H565    1.142   .     S
C285   H566    1.146   .     S
C286   H567    1.145   .     S
C286   H568    1.134   .     S
C286   H569    1.136   .     S
C288   H570    1.142   .     S
C288   H571    1.143   .     S
C288   H572    1.138   .     S
C289   C60     1.478   1_546 S
C289   O290    1.384   .     S
C289   H573    1.145   .     S
C289   H574    1.133   .     S
O290   C291    1.384   .     S
C291   C292    1.508   .     S
C291   C295    1.499   .     S
C291   H575    1.144   .     S
C292   N293    1.445   .     S
C292   H576    1.145   .     S
C292   H577    1.135   .     S
N293   C294    1.457   .     S
N293   C300    1.372   .     S
C294   C295    1.516   .     S
C294   C296    1.502   .     S
C294   H578    1.142   .     S
C295   H579    1.147   .     S
C295   H580    1.135   .     S
C296   O297    1.394   .     S
C296   O299    1.226   .     D
O297   C298    1.418   .     S
C298   H581    1.148   .     S
C298   H582    1.134   .     S
C298   H583    1.137   .     S
C300   O301    1.407   .     S
C300   O305    1.218   .     D
O301   C302    1.447   .     S
C302   C303    1.524   .     S
C302   C304    1.508   .     S
C302   C306    1.516   .     S
C303   H584    1.141   .     S
C303   H585    1.135   .     S
C303   H586    1.144   .     S
C304   H587    1.148   .     S
C304   H588    1.142   .     S
C304   H589    1.135   .     S
C306   H590    1.140   .     S
C306   H591    1.144   .     S
C306   H592    1.140   .     S
C307   C90     1.488   1_556 S
C307   O308    1.388   .     S
C307   H593    1.144   .     S
C307   H594    1.139   .     S
O308   C309    1.394   .     S
C309   C310    1.514   .     S
C309   C313    1.513   .     S
C309   H595    1.145   .     S
C310   N311    1.440   .     S
C310   H596    1.145   .     S
C310   H597    1.136   .     S
N311   C312    1.456   .     S
N311   C318    1.369   .     S
C312   C313    1.522   .     S
C312   C314    1.496   .     S
C312   H598    1.143   .     S
C313   H599    1.145   .     S
C313   H600    1.138   .     S
C314   O315    1.408   .     S
C314   O317    1.222   .     D
O315   C316    1.426   .     S
C316   H601    1.146   .     S
C316   H602    1.135   .     S
C316   H603    1.136   .     S
C318   O319    1.403   .     S
C318   O323    1.216   .     D
O319   C320    1.443   .     S
C320   C321    1.507   .     S
C320   C322    1.513   .     S
C320   C324    1.523   .     S
C321   H604    1.147   .     S
C321   H605    1.141   .     S
C321   H606    1.139   .     S
C322   H607    1.138   .     S
C322   H608    1.143   .     S
C322   H609    1.143   .     S
C324   H610    1.133   .     S
C324   H611    1.144   .     S
C324   H612    1.139   .     S
C325   C195    1.478   1_566 S
C325   O326    1.374   .     S
C325   H613    1.134   .     S
C325   H614    1.146   .     S
O326   C327    1.386   .     S
C327   C328    1.513   .     S
C327   C331    1.508   .     S
C327   H615    1.134   .     S
C328   N329    1.440   .     S
C328   H616    1.136   .     S
C328   H617    1.144   .     S
N329   C330    1.468   .     S
N329   C336    1.370   .     S
C330   C331    1.515   .     S
C330   C332    1.498   .     S
C330   H618    1.136   .     S
C331   H619    1.135   .     S
C331   H620    1.144   .     S
C332   O333    1.400   .     S
C332   O335    1.218   .     D
O333   C334    1.420   .     S
C334   H621    1.137   .     S
C334   H622    1.144   .     S
C334   H623    1.138   .     S
C336   O337    1.419   .     S
C336   O341    1.211   .     D
O337   C338    1.435   .     S
C338   C339    1.521   .     S
C338   C340    1.518   .     S
C338   C342    1.518   .     S
C339   H624    1.135   .     S
C339   H625    1.139   .     S
C339   H626    1.146   .     S
C340   H627    1.144   .     S
C340   H628    1.135   .     S
C340   H629    1.135   .     S
C342   H630    1.144   .     S
C342   H631    1.140   .     S
C342   H632    1.138   .     S
C343   C210    1.487   1_666 S
C343   O344    1.376   .     S
C343   H633    1.140   .     S
C343   H634    1.146   .     S
O344   C345    1.393   .     S
C345   C346    1.508   .     S
C345   C349    1.525   .     S
C345   H635    1.139   .     S
C346   N347    1.437   .     S
C346   H636    1.139   .     S
C346   H637    1.148   .     S
N347   C348    1.448   .     S
N347   C354    1.356   .     S
C348   C349    1.503   .     S
C348   C350    1.498   .     S
C348   H638    1.143   .     S
C349   H639    1.137   .     S
C349   H640    1.148   .     S
C350   O351    1.414   .     S
C350   O353    1.219   .     D
O351   C352    1.420   .     S
C352   H641    1.136   .     S
C352   H642    1.134   .     S
C352   H643    1.147   .     S
C354   O355    1.409   .     S
C354   O359    1.218   .     D
O355   C356    1.431   .     S
C356   C357    1.525   .     S
C356   C358    1.512   .     S
C356   C360    1.517   .     S
C357   H644    1.133   .     S
C357   H645    1.141   .     S
C357   H646    1.146   .     S
C358   H647    1.145   .     S
C358   H648    1.134   .     S
C358   H649    1.136   .     S
C360   H650    1.143   .     S
C360   H651    1.142   .     S
C360   H652    1.138   .     S
C361   C75     1.471   1_556 S
C361   O362    1.378   .     S
C361   H653    1.146   .     S
C361   H654    1.134   .     S
O362   C363    1.380   .     S
C363   C364    1.510   .     S
C363   C367    1.498   .     S
C363   H655    1.144   .     S
C364   N365    1.444   .     S
C364   H656    1.144   .     S
C364   H657    1.135   .     S
N365   C366    1.454   .     S
N365   C372    1.369   .     S
C366   C367    1.514   .     S
C366   C368    1.494   .     S
C366   H658    1.142   .     S
C367   H659    1.146   .     S
C367   H660    1.137   .     S
C368   O369    1.396   .     S
C368   O371    1.236   .     D
O369   C370    1.415   .     S
C370   H661    1.146   .     S
C370   H662    1.135   .     S
C370   H663    1.136   .     S
C372   O373    1.401   .     S
C372   O377    1.222   .     D
O373   C374    1.445   .     S
C374   C375    1.522   .     S
C374   C376    1.506   .     S
C374   C378    1.517   .     S
C375   H664    1.142   .     S
C375   H665    1.134   .     S
C375   H666    1.144   .     S
C376   H667    1.147   .     S
C376   H668    1.143   .     S
C376   H669    1.135   .     S
C378   H670    1.141   .     S
C378   H671    1.144   .     S
C378   H672    1.139   .     S
