data_231
_audit_creation_date              2023-09-08
_audit_creation_method            'Materials Studio'
_symmetry_space_group_name_H-M    'P1'
_symmetry_Int_Tables_number       1
_symmetry_cell_setting            triclinic
loop_
_symmetry_equiv_pos_as_xyz
  x,y,z
_cell_length_a                    45.3013
_cell_length_b                    48.8943
_cell_length_c                    3.9176
_cell_angle_alpha                 90.0000
_cell_angle_beta                  74.5315
_cell_angle_gamma                 90.0000
loop_
_atom_site_label
_atom_site_type_symbol
_atom_site_fract_x
_atom_site_fract_y
_atom_site_fract_z
_atom_site_U_iso_or_equiv
_atom_site_adp_type
_atom_site_occupancy
C1     C     0.44881   0.54978   0.39972   0.00000  Uiso   1.00
C2     C     0.48566   0.58667   0.47827   0.00000  Uiso   1.00
C3     C     0.47720   0.55829   0.45482   0.00000  Uiso   1.00
C4     C     0.44098   0.52250   0.36427   0.00000  Uiso   1.00
C5     C     0.41341   0.51404   0.26713   0.00000  Uiso   1.00
C6     C     0.42607   0.57099   0.38607   0.00000  Uiso   1.00
C7     C     0.43388   0.59499   0.18443   0.00000  Uiso   1.00
C8     C     0.41247   0.61528   0.18297   0.00000  Uiso   1.00
C9     C     0.38180   0.61225   0.38245   0.00000  Uiso   1.00
C10    C     0.37369   0.58802   0.58260   0.00000  Uiso   1.00
C11    C     0.39537   0.56796   0.58392   0.00000  Uiso   1.00
N12    N     0.36128   0.63336   0.37373   0.00000  Uiso   1.00
C13    C     0.31124   0.65221   0.52901   0.00000  Uiso   1.00
S14    S     0.32387   0.68286   0.33170   0.00000  Uiso   1.00
C15    C     0.28732   0.69680   0.44021   0.00000  Uiso   1.00
C16    C     0.26611   0.67757   0.62993   0.00000  Uiso   1.00
C17    C     0.27948   0.65248   0.67595   0.00000  Uiso   1.00
C18    C     0.27822   0.72448   0.38185   0.00000  Uiso   1.00
N19    N     0.29488   0.74402   0.15695   0.00000  Uiso   1.00
C20    C     0.27862   0.76895   0.17248   0.00000  Uiso   1.00
C21    C     0.25017   0.73621   0.55962   0.00000  Uiso   1.00
O22    O     0.28855   0.78919  -0.01499   0.00000  Uiso   1.00
C23    C     0.33238   0.63029   0.52926   0.00000  Uiso   1.00
C24    C     0.32379   0.73906  -0.09732   0.00000  Uiso   1.00
C25    C     0.34978   0.75523  -0.00980   0.00000  Uiso   1.00
C26    C     0.37830   0.73739  -0.09032   0.00000  Uiso   1.00
C27    C     0.40453   0.74983   0.02502   0.00000  Uiso   1.00
C28    C     0.43181   0.73095  -0.05018   0.00000  Uiso   1.00
C29    C     0.45808   0.74416   0.05899   0.00000  Uiso   1.00
C30    C     0.35440   0.78227  -0.20964   0.00000  Uiso   1.00
C31    C     0.36738   0.80497  -0.03230   0.00000  Uiso   1.00
H32    H     0.47171   0.60467   0.45878   0.00000  Uiso   1.00
H33    H     0.39701   0.52776   0.19848   0.00000  Uiso   1.00
H34    H     0.45710   0.59745   0.01330   0.00000  Uiso   1.00
H35    H     0.41930   0.63374   0.02360   0.00000  Uiso   1.00
H36    H     0.35019   0.58475   0.74482   0.00000  Uiso   1.00
H37    H     0.38857   0.54989   0.75115   0.00000  Uiso   1.00
H38    H     0.24139   0.68203   0.73419   0.00000  Uiso   1.00
H39    H     0.26710   0.63456   0.81129   0.00000  Uiso   1.00
H40    H     0.32182   0.61155   0.67464   0.00000  Uiso   1.00
H41    H     0.32117   0.74430  -0.36210   0.00000  Uiso   1.00
H42    H     0.32880   0.71686  -0.10864   0.00000  Uiso   1.00
H43    H     0.34295   0.76016   0.27518   0.00000  Uiso   1.00
H44    H     0.38569   0.73301  -0.37483   0.00000  Uiso   1.00
H45    H     0.37309   0.71684   0.02926   0.00000  Uiso   1.00
H46    H     0.39728   0.75423   0.30921   0.00000  Uiso   1.00
H47    H     0.41107   0.76993  -0.09835   0.00000  Uiso   1.00
H48    H     0.43844   0.72589  -0.33446   0.00000  Uiso   1.00
H49    H     0.42532   0.71133   0.08914   0.00000  Uiso   1.00
H50    H     0.47295   0.75562  -0.16161   0.00000  Uiso   1.00
H51    H     0.47216   0.72903   0.14950   0.00000  Uiso   1.00
H52    H     0.44976   0.75887   0.27508   0.00000  Uiso   1.00
H53    H     0.33238   0.78892  -0.25274   0.00000  Uiso   1.00
H54    H     0.36981   0.77859  -0.47166   0.00000  Uiso   1.00
H55    H     0.38045   0.81944  -0.23087   0.00000  Uiso   1.00
H56    H     0.38297   0.79726   0.11552   0.00000  Uiso   1.00
H57    H     0.34907   0.81617   0.15516   0.00000  Uiso   1.00
C58    C     0.94881   0.04978   0.39972   0.00000  Uiso   1.00
C59    C     0.98566   0.08667   0.47827   0.00000  Uiso   1.00
C60    C     0.97720   0.05829   0.45482   0.00000  Uiso   1.00
C61    C     0.94098   0.02250   0.36427   0.00000  Uiso   1.00
C62    C     0.91341   0.01404   0.26713   0.00000  Uiso   1.00
C63    C     0.92607   0.07099   0.38607   0.00000  Uiso   1.00
C64    C     0.93388   0.09499   0.18443   0.00000  Uiso   1.00
C65    C     0.91247   0.11528   0.18297   0.00000  Uiso   1.00
C66    C     0.88180   0.11225   0.38245   0.00000  Uiso   1.00
C67    C     0.87369   0.08802   0.58260   0.00000  Uiso   1.00
C68    C     0.89537   0.06796   0.58392   0.00000  Uiso   1.00
N69    N     0.86128   0.13336   0.37373   0.00000  Uiso   1.00
C70    C     0.81124   0.15221   0.52901   0.00000  Uiso   1.00
S71    S     0.82387   0.18286   0.33170   0.00000  Uiso   1.00
C72    C     0.78732   0.19680   0.44021   0.00000  Uiso   1.00
C73    C     0.76611   0.17757   0.62993   0.00000  Uiso   1.00
C74    C     0.77948   0.15248   0.67595   0.00000  Uiso   1.00
C75    C     0.77822   0.22448   0.38185   0.00000  Uiso   1.00
N76    N     0.79488   0.24402   0.15695   0.00000  Uiso   1.00
C77    C     0.77862   0.26895   0.17248   0.00000  Uiso   1.00
C78    C     0.75017   0.23621   0.55962   0.00000  Uiso   1.00
O79    O     0.78855   0.28919  -0.01499   0.00000  Uiso   1.00
C80    C     0.83238   0.13029   0.52926   0.00000  Uiso   1.00
C81    C     0.82379   0.23906  -0.09732   0.00000  Uiso   1.00
C82    C     0.84978   0.25523  -0.00980   0.00000  Uiso   1.00
C83    C     0.87830   0.23739  -0.09032   0.00000  Uiso   1.00
C84    C     0.90453   0.24983   0.02502   0.00000  Uiso   1.00
C85    C     0.93181   0.23095  -0.05018   0.00000  Uiso   1.00
C86    C     0.95808   0.24416   0.05899   0.00000  Uiso   1.00
C87    C     0.85440   0.28227  -0.20964   0.00000  Uiso   1.00
C88    C     0.86738   0.30497  -0.03230   0.00000  Uiso   1.00
H89    H     0.97171   0.10467   0.45878   0.00000  Uiso   1.00
H90    H     0.89701   0.02776   0.19848   0.00000  Uiso   1.00
H91    H     0.95710   0.09745   0.01330   0.00000  Uiso   1.00
H92    H     0.91930   0.13374   0.02360   0.00000  Uiso   1.00
H93    H     0.85019   0.08475   0.74482   0.00000  Uiso   1.00
H94    H     0.88857   0.04989   0.75115   0.00000  Uiso   1.00
H95    H     0.74139   0.18203   0.73419   0.00000  Uiso   1.00
H96    H     0.76710   0.13456   0.81129   0.00000  Uiso   1.00
H97    H     0.82182   0.11155   0.67464   0.00000  Uiso   1.00
H98    H     0.82117   0.24430  -0.36210   0.00000  Uiso   1.00
H99    H     0.82880   0.21686  -0.10864   0.00000  Uiso   1.00
H100   H     0.84295   0.26016   0.27518   0.00000  Uiso   1.00
H101   H     0.88569   0.23301  -0.37483   0.00000  Uiso   1.00
H102   H     0.87309   0.21684   0.02926   0.00000  Uiso   1.00
H103   H     0.89728   0.25423   0.30921   0.00000  Uiso   1.00
H104   H     0.91107   0.26993  -0.09835   0.00000  Uiso   1.00
H105   H     0.93844   0.22589  -0.33446   0.00000  Uiso   1.00
H106   H     0.92532   0.21133   0.08914   0.00000  Uiso   1.00
H107   H     0.97295   0.25562  -0.16161   0.00000  Uiso   1.00
H108   H     0.97216   0.22903   0.14950   0.00000  Uiso   1.00
H109   H     0.94976   0.25887   0.27508   0.00000  Uiso   1.00
H110   H     0.83238   0.28892  -0.25274   0.00000  Uiso   1.00
H111   H     0.86981   0.27859  -0.47166   0.00000  Uiso   1.00
H112   H     0.88045   0.31944  -0.23087   0.00000  Uiso   1.00
H113   H     0.88297   0.29726   0.11552   0.00000  Uiso   1.00
H114   H     0.84907   0.31617   0.15516   0.00000  Uiso   1.00
C115   C     0.55119   0.54978   0.60028   0.00000  Uiso   1.00
C116   C     0.51434   0.58667   0.52173   0.00000  Uiso   1.00
C117   C     0.52280   0.55829   0.54518   0.00000  Uiso   1.00
C118   C     0.55902   0.52250   0.63573   0.00000  Uiso   1.00
C119   C     0.58659   0.51404   0.73287   0.00000  Uiso   1.00
C120   C     0.57393   0.57099   0.61393   0.00000  Uiso   1.00
C121   C     0.56612   0.59499   0.81557   0.00000  Uiso   1.00
C122   C     0.58753   0.61528   0.81703   0.00000  Uiso   1.00
C123   C     0.61820   0.61225   0.61755   0.00000  Uiso   1.00
C124   C     0.62631   0.58802   0.41740   0.00000  Uiso   1.00
C125   C     0.60463   0.56796   0.41608   0.00000  Uiso   1.00
N126   N     0.63872   0.63336   0.62627   0.00000  Uiso   1.00
C127   C     0.68876   0.65221   0.47099   0.00000  Uiso   1.00
S128   S     0.67613   0.68286   0.66830   0.00000  Uiso   1.00
C129   C     0.71268   0.69680   0.55979   0.00000  Uiso   1.00
C130   C     0.73389   0.67757   0.37007   0.00000  Uiso   1.00
C131   C     0.72052   0.65248   0.32405   0.00000  Uiso   1.00
C132   C     0.72178   0.72448   0.61815   0.00000  Uiso   1.00
N133   N     0.70512   0.74402   0.84305   0.00000  Uiso   1.00
C134   C     0.72138   0.76895   0.82752   0.00000  Uiso   1.00
C135   C     0.74983   0.73621   0.44038   0.00000  Uiso   1.00
O136   O     0.71145   0.78919   1.01499   0.00000  Uiso   1.00
C137   C     0.66762   0.63029   0.47074   0.00000  Uiso   1.00
C138   C     0.67621   0.73906   1.09732   0.00000  Uiso   1.00
C139   C     0.65022   0.75523   1.00980   0.00000  Uiso   1.00
C140   C     0.62170   0.73739   1.09032   0.00000  Uiso   1.00
C141   C     0.59547   0.74983   0.97498   0.00000  Uiso   1.00
C142   C     0.56819   0.73095   1.05018   0.00000  Uiso   1.00
C143   C     0.54192   0.74416   0.94101   0.00000  Uiso   1.00
C144   C     0.64560   0.78227   1.20964   0.00000  Uiso   1.00
C145   C     0.63262   0.80497   1.03230   0.00000  Uiso   1.00
H146   H     0.52829   0.60467   0.54122   0.00000  Uiso   1.00
H147   H     0.60299   0.52776   0.80152   0.00000  Uiso   1.00
H148   H     0.54290   0.59745   0.98670   0.00000  Uiso   1.00
H149   H     0.58070   0.63374   0.97640   0.00000  Uiso   1.00
H150   H     0.64981   0.58475   0.25518   0.00000  Uiso   1.00
H151   H     0.61143   0.54989   0.24885   0.00000  Uiso   1.00
H152   H     0.75861   0.68203   0.26581   0.00000  Uiso   1.00
H153   H     0.73290   0.63456   0.18871   0.00000  Uiso   1.00
H154   H     0.67818   0.61155   0.32536   0.00000  Uiso   1.00
H155   H     0.67883   0.74430   1.36210   0.00000  Uiso   1.00
H156   H     0.67120   0.71686   1.10864   0.00000  Uiso   1.00
H157   H     0.65705   0.76016   0.72482   0.00000  Uiso   1.00
H158   H     0.61431   0.73301   1.37483   0.00000  Uiso   1.00
H159   H     0.62691   0.71684   0.97074   0.00000  Uiso   1.00
H160   H     0.60272   0.75423   0.69079   0.00000  Uiso   1.00
H161   H     0.58893   0.76993   1.09835   0.00000  Uiso   1.00
H162   H     0.56156   0.72589   1.33446   0.00000  Uiso   1.00
H163   H     0.57468   0.71133   0.91086   0.00000  Uiso   1.00
H164   H     0.52705   0.75562   1.16161   0.00000  Uiso   1.00
H165   H     0.52784   0.72903   0.85050   0.00000  Uiso   1.00
H166   H     0.55024   0.75887   0.72492   0.00000  Uiso   1.00
H167   H     0.66762   0.78892   1.25274   0.00000  Uiso   1.00
H168   H     0.63019   0.77859   1.47166   0.00000  Uiso   1.00
H169   H     0.61955   0.81944   1.23087   0.00000  Uiso   1.00
H170   H     0.61703   0.79726   0.88448   0.00000  Uiso   1.00
H171   H     0.65093   0.81617   0.84484   0.00000  Uiso   1.00
C172   C     0.05119   0.04978   0.60028   0.00000  Uiso   1.00
C173   C     0.01434   0.08667   0.52173   0.00000  Uiso   1.00
C174   C     0.02280   0.05829   0.54518   0.00000  Uiso   1.00
C175   C     0.05902   0.02250   0.63573   0.00000  Uiso   1.00
C176   C     0.08659   0.01404   0.73287   0.00000  Uiso   1.00
C177   C     0.07393   0.07099   0.61393   0.00000  Uiso   1.00
C178   C     0.06612   0.09499   0.81557   0.00000  Uiso   1.00
C179   C     0.08753   0.11528   0.81703   0.00000  Uiso   1.00
C180   C     0.11820   0.11225   0.61755   0.00000  Uiso   1.00
C181   C     0.12631   0.08802   0.41740   0.00000  Uiso   1.00
C182   C     0.10463   0.06796   0.41608   0.00000  Uiso   1.00
N183   N     0.13872   0.13336   0.62627   0.00000  Uiso   1.00
C184   C     0.18876   0.15221   0.47099   0.00000  Uiso   1.00
S185   S     0.17613   0.18286   0.66830   0.00000  Uiso   1.00
C186   C     0.21268   0.19680   0.55979   0.00000  Uiso   1.00
C187   C     0.23389   0.17757   0.37007   0.00000  Uiso   1.00
C188   C     0.22052   0.15248   0.32405   0.00000  Uiso   1.00
C189   C     0.22178   0.22448   0.61815   0.00000  Uiso   1.00
N190   N     0.20512   0.24402   0.84305   0.00000  Uiso   1.00
C191   C     0.22138   0.26895   0.82752   0.00000  Uiso   1.00
C192   C     0.24983   0.23621   0.44038   0.00000  Uiso   1.00
O193   O     0.21145   0.28919   1.01499   0.00000  Uiso   1.00
C194   C     0.16762   0.13029   0.47074   0.00000  Uiso   1.00
C195   C     0.17621   0.23906   1.09732   0.00000  Uiso   1.00
C196   C     0.15022   0.25523   1.00980   0.00000  Uiso   1.00
C197   C     0.12170   0.23739   1.09032   0.00000  Uiso   1.00
C198   C     0.09547   0.24983   0.97498   0.00000  Uiso   1.00
C199   C     0.06819   0.23095   1.05018   0.00000  Uiso   1.00
C200   C     0.04192   0.24416   0.94101   0.00000  Uiso   1.00
C201   C     0.14560   0.28227   1.20964   0.00000  Uiso   1.00
C202   C     0.13262   0.30497   1.03230   0.00000  Uiso   1.00
H203   H     0.02829   0.10467   0.54122   0.00000  Uiso   1.00
H204   H     0.10299   0.02776   0.80152   0.00000  Uiso   1.00
H205   H     0.04290   0.09745   0.98670   0.00000  Uiso   1.00
H206   H     0.08070   0.13374   0.97640   0.00000  Uiso   1.00
H207   H     0.14981   0.08475   0.25518   0.00000  Uiso   1.00
H208   H     0.11143   0.04989   0.24885   0.00000  Uiso   1.00
H209   H     0.25861   0.18203   0.26581   0.00000  Uiso   1.00
H210   H     0.23290   0.13456   0.18871   0.00000  Uiso   1.00
H211   H     0.17818   0.11155   0.32536   0.00000  Uiso   1.00
H212   H     0.17883   0.24430   1.36210   0.00000  Uiso   1.00
H213   H     0.17120   0.21686   1.10864   0.00000  Uiso   1.00
H214   H     0.15705   0.26016   0.72482   0.00000  Uiso   1.00
H215   H     0.11431   0.23301   1.37483   0.00000  Uiso   1.00
H216   H     0.12691   0.21684   0.97074   0.00000  Uiso   1.00
H217   H     0.10272   0.25423   0.69079   0.00000  Uiso   1.00
H218   H     0.08893   0.26993   1.09835   0.00000  Uiso   1.00
H219   H     0.06156   0.22589   1.33446   0.00000  Uiso   1.00
H220   H     0.07468   0.21133   0.91086   0.00000  Uiso   1.00
H221   H     0.02705   0.25562   1.16161   0.00000  Uiso   1.00
H222   H     0.02784   0.22903   0.85050   0.00000  Uiso   1.00
H223   H     0.05024   0.25887   0.72492   0.00000  Uiso   1.00
H224   H     0.16762   0.28892   1.25274   0.00000  Uiso   1.00
H225   H     0.13019   0.27859   1.47166   0.00000  Uiso   1.00
H226   H     0.11955   0.31944   1.23087   0.00000  Uiso   1.00
H227   H     0.11703   0.29726   0.88448   0.00000  Uiso   1.00
H228   H     0.15093   0.31617   0.84484   0.00000  Uiso   1.00
C229   C     0.55119   0.45022   0.60028   0.00000  Uiso   1.00
C230   C     0.51434   0.41333   0.52173   0.00000  Uiso   1.00
C231   C     0.52280   0.44171   0.54518   0.00000  Uiso   1.00
C232   C     0.55902   0.47750   0.63573   0.00000  Uiso   1.00
C233   C     0.58659   0.48596   0.73287   0.00000  Uiso   1.00
C234   C     0.57393   0.42901   0.61393   0.00000  Uiso   1.00
C235   C     0.56612   0.40501   0.81557   0.00000  Uiso   1.00
C236   C     0.58753   0.38472   0.81703   0.00000  Uiso   1.00
C237   C     0.61820   0.38775   0.61755   0.00000  Uiso   1.00
C238   C     0.62631   0.41198   0.41740   0.00000  Uiso   1.00
C239   C     0.60463   0.43204   0.41608   0.00000  Uiso   1.00
N240   N     0.63872   0.36664   0.62627   0.00000  Uiso   1.00
C241   C     0.68876   0.34779   0.47099   0.00000  Uiso   1.00
S242   S     0.67613   0.31714   0.66830   0.00000  Uiso   1.00
C243   C     0.71268   0.30320   0.55979   0.00000  Uiso   1.00
C244   C     0.73389   0.32243   0.37007   0.00000  Uiso   1.00
C245   C     0.72052   0.34752   0.32405   0.00000  Uiso   1.00
C246   C     0.72178   0.27552   0.61815   0.00000  Uiso   1.00
N247   N     0.70512   0.25598   0.84305   0.00000  Uiso   1.00
C248   C     0.72138   0.23105   0.82752   0.00000  Uiso   1.00
C249   C     0.74983   0.26379   0.44038   0.00000  Uiso   1.00
O250   O     0.71145   0.21081   1.01499   0.00000  Uiso   1.00
C251   C     0.66762   0.36971   0.47074   0.00000  Uiso   1.00
C252   C     0.67621   0.26094   1.09732   0.00000  Uiso   1.00
C253   C     0.65022   0.24477   1.00980   0.00000  Uiso   1.00
C254   C     0.62170   0.26261   1.09032   0.00000  Uiso   1.00
C255   C     0.59547   0.25017   0.97498   0.00000  Uiso   1.00
C256   C     0.56819   0.26905   1.05018   0.00000  Uiso   1.00
C257   C     0.54192   0.25584   0.94101   0.00000  Uiso   1.00
C258   C     0.64560   0.21773   1.20964   0.00000  Uiso   1.00
C259   C     0.63262   0.19503   1.03230   0.00000  Uiso   1.00
H260   H     0.52829   0.39533   0.54122   0.00000  Uiso   1.00
H261   H     0.60299   0.47224   0.80152   0.00000  Uiso   1.00
H262   H     0.54290   0.40255   0.98670   0.00000  Uiso   1.00
H263   H     0.58070   0.36626   0.97640   0.00000  Uiso   1.00
H264   H     0.64981   0.41525   0.25518   0.00000  Uiso   1.00
H265   H     0.61143   0.45011   0.24885   0.00000  Uiso   1.00
H266   H     0.75861   0.31797   0.26581   0.00000  Uiso   1.00
H267   H     0.73290   0.36544   0.18871   0.00000  Uiso   1.00
H268   H     0.67818   0.38845   0.32536   0.00000  Uiso   1.00
H269   H     0.67883   0.25570   1.36210   0.00000  Uiso   1.00
H270   H     0.67120   0.28314   1.10864   0.00000  Uiso   1.00
H271   H     0.65705   0.23984   0.72482   0.00000  Uiso   1.00
H272   H     0.61431   0.26699   1.37483   0.00000  Uiso   1.00
H273   H     0.62691   0.28316   0.97074   0.00000  Uiso   1.00
H274   H     0.60272   0.24577   0.69079   0.00000  Uiso   1.00
H275   H     0.58893   0.23007   1.09835   0.00000  Uiso   1.00
H276   H     0.56156   0.27411   1.33446   0.00000  Uiso   1.00
H277   H     0.57468   0.28867   0.91086   0.00000  Uiso   1.00
H278   H     0.52705   0.24438   1.16161   0.00000  Uiso   1.00
H279   H     0.52784   0.27097   0.85050   0.00000  Uiso   1.00
H280   H     0.55024   0.24113   0.72492   0.00000  Uiso   1.00
H281   H     0.66762   0.21108   1.25274   0.00000  Uiso   1.00
H282   H     0.63019   0.22141   1.47166   0.00000  Uiso   1.00
H283   H     0.61955   0.18056   1.23087   0.00000  Uiso   1.00
H284   H     0.61703   0.20274   0.88448   0.00000  Uiso   1.00
H285   H     0.65093   0.18383   0.84484   0.00000  Uiso   1.00
C286   C     0.05119   0.95022   0.60028   0.00000  Uiso   1.00
C287   C     0.01434   0.91333   0.52173   0.00000  Uiso   1.00
C288   C     0.02280   0.94171   0.54518   0.00000  Uiso   1.00
C289   C     0.05902   0.97750   0.63573   0.00000  Uiso   1.00
C290   C     0.08659   0.98596   0.73287   0.00000  Uiso   1.00
C291   C     0.07393   0.92901   0.61393   0.00000  Uiso   1.00
C292   C     0.06612   0.90501   0.81557   0.00000  Uiso   1.00
C293   C     0.08753   0.88472   0.81703   0.00000  Uiso   1.00
C294   C     0.11820   0.88775   0.61755   0.00000  Uiso   1.00
C295   C     0.12631   0.91198   0.41740   0.00000  Uiso   1.00
C296   C     0.10463   0.93204   0.41608   0.00000  Uiso   1.00
N297   N     0.13872   0.86664   0.62627   0.00000  Uiso   1.00
C298   C     0.18876   0.84779   0.47099   0.00000  Uiso   1.00
S299   S     0.17613   0.81714   0.66830   0.00000  Uiso   1.00
C300   C     0.21268   0.80320   0.55979   0.00000  Uiso   1.00
C301   C     0.23389   0.82243   0.37007   0.00000  Uiso   1.00
C302   C     0.22052   0.84752   0.32405   0.00000  Uiso   1.00
C303   C     0.22178   0.77552   0.61815   0.00000  Uiso   1.00
N304   N     0.20512   0.75598   0.84305   0.00000  Uiso   1.00
C305   C     0.22138   0.73105   0.82752   0.00000  Uiso   1.00
C306   C     0.24983   0.76379   0.44038   0.00000  Uiso   1.00
O307   O     0.21145   0.71081   1.01499   0.00000  Uiso   1.00
C308   C     0.16762   0.86971   0.47074   0.00000  Uiso   1.00
C309   C     0.17621   0.76094   1.09732   0.00000  Uiso   1.00
C310   C     0.15022   0.74477   1.00980   0.00000  Uiso   1.00
C311   C     0.12170   0.76261   1.09032   0.00000  Uiso   1.00
C312   C     0.09547   0.75017   0.97498   0.00000  Uiso   1.00
C313   C     0.06819   0.76905   1.05018   0.00000  Uiso   1.00
C314   C     0.04192   0.75584   0.94101   0.00000  Uiso   1.00
C315   C     0.14560   0.71773   1.20964   0.00000  Uiso   1.00
C316   C     0.13262   0.69503   1.03230   0.00000  Uiso   1.00
H317   H     0.02829   0.89533   0.54122   0.00000  Uiso   1.00
H318   H     0.10299   0.97224   0.80152   0.00000  Uiso   1.00
H319   H     0.04290   0.90255   0.98670   0.00000  Uiso   1.00
H320   H     0.08070   0.86626   0.97640   0.00000  Uiso   1.00
H321   H     0.14981   0.91525   0.25518   0.00000  Uiso   1.00
H322   H     0.11143   0.95011   0.24885   0.00000  Uiso   1.00
H323   H     0.25861   0.81797   0.26581   0.00000  Uiso   1.00
H324   H     0.23290   0.86544   0.18871   0.00000  Uiso   1.00
H325   H     0.17818   0.88845   0.32536   0.00000  Uiso   1.00
H326   H     0.17883   0.75570   1.36210   0.00000  Uiso   1.00
H327   H     0.17120   0.78314   1.10864   0.00000  Uiso   1.00
H328   H     0.15705   0.73984   0.72482   0.00000  Uiso   1.00
H329   H     0.11431   0.76699   1.37483   0.00000  Uiso   1.00
H330   H     0.12691   0.78316   0.97074   0.00000  Uiso   1.00
H331   H     0.10272   0.74577   0.69079   0.00000  Uiso   1.00
H332   H     0.08893   0.73007   1.09835   0.00000  Uiso   1.00
H333   H     0.06156   0.77411   1.33446   0.00000  Uiso   1.00
H334   H     0.07468   0.78867   0.91086   0.00000  Uiso   1.00
H335   H     0.02705   0.74438   1.16161   0.00000  Uiso   1.00
H336   H     0.02784   0.77097   0.85050   0.00000  Uiso   1.00
H337   H     0.05024   0.74113   0.72492   0.00000  Uiso   1.00
H338   H     0.16762   0.71108   1.25274   0.00000  Uiso   1.00
H339   H     0.13019   0.72141   1.47166   0.00000  Uiso   1.00
H340   H     0.11955   0.68056   1.23087   0.00000  Uiso   1.00
H341   H     0.11703   0.70274   0.88448   0.00000  Uiso   1.00
H342   H     0.15093   0.68383   0.84484   0.00000  Uiso   1.00
C343   C     0.44881   0.45022   0.39972   0.00000  Uiso   1.00
C344   C     0.48566   0.41333   0.47827   0.00000  Uiso   1.00
C345   C     0.47720   0.44171   0.45482   0.00000  Uiso   1.00
C346   C     0.44098   0.47750   0.36427   0.00000  Uiso   1.00
C347   C     0.41341   0.48596   0.26713   0.00000  Uiso   1.00
C348   C     0.42607   0.42901   0.38607   0.00000  Uiso   1.00
C349   C     0.43388   0.40501   0.18443   0.00000  Uiso   1.00
C350   C     0.41247   0.38472   0.18297   0.00000  Uiso   1.00
C351   C     0.38180   0.38775   0.38245   0.00000  Uiso   1.00
C352   C     0.37369   0.41198   0.58260   0.00000  Uiso   1.00
C353   C     0.39537   0.43204   0.58392   0.00000  Uiso   1.00
N354   N     0.36128   0.36664   0.37373   0.00000  Uiso   1.00
C355   C     0.31124   0.34779   0.52901   0.00000  Uiso   1.00
S356   S     0.32387   0.31714   0.33170   0.00000  Uiso   1.00
C357   C     0.28732   0.30320   0.44021   0.00000  Uiso   1.00
C358   C     0.26611   0.32243   0.62993   0.00000  Uiso   1.00
C359   C     0.27948   0.34752   0.67595   0.00000  Uiso   1.00
C360   C     0.27822   0.27552   0.38185   0.00000  Uiso   1.00
N361   N     0.29488   0.25598   0.15695   0.00000  Uiso   1.00
C362   C     0.27862   0.23105   0.17248   0.00000  Uiso   1.00
C363   C     0.25017   0.26379   0.55962   0.00000  Uiso   1.00
O364   O     0.28855   0.21081  -0.01499   0.00000  Uiso   1.00
C365   C     0.33238   0.36971   0.52926   0.00000  Uiso   1.00
C366   C     0.32379   0.26094  -0.09732   0.00000  Uiso   1.00
C367   C     0.34978   0.24477  -0.00980   0.00000  Uiso   1.00
C368   C     0.37830   0.26261  -0.09032   0.00000  Uiso   1.00
C369   C     0.40453   0.25017   0.02502   0.00000  Uiso   1.00
C370   C     0.43181   0.26905  -0.05018   0.00000  Uiso   1.00
C371   C     0.45808   0.25584   0.05899   0.00000  Uiso   1.00
C372   C     0.35440   0.21773  -0.20964   0.00000  Uiso   1.00
C373   C     0.36738   0.19503  -0.03230   0.00000  Uiso   1.00
H374   H     0.47171   0.39533   0.45878   0.00000  Uiso   1.00
H375   H     0.39701   0.47224   0.19848   0.00000  Uiso   1.00
H376   H     0.45710   0.40255   0.01330   0.00000  Uiso   1.00
H377   H     0.41930   0.36626   0.02360   0.00000  Uiso   1.00
H378   H     0.35019   0.41525   0.74482   0.00000  Uiso   1.00
H379   H     0.38857   0.45011   0.75115   0.00000  Uiso   1.00
H380   H     0.24139   0.31797   0.73419   0.00000  Uiso   1.00
H381   H     0.26710   0.36544   0.81129   0.00000  Uiso   1.00
H382   H     0.32182   0.38845   0.67464   0.00000  Uiso   1.00
H383   H     0.32117   0.25570  -0.36210   0.00000  Uiso   1.00
H384   H     0.32880   0.28314  -0.10864   0.00000  Uiso   1.00
H385   H     0.34295   0.23984   0.27518   0.00000  Uiso   1.00
H386   H     0.38569   0.26699  -0.37483   0.00000  Uiso   1.00
H387   H     0.37309   0.28316   0.02926   0.00000  Uiso   1.00
H388   H     0.39728   0.24577   0.30921   0.00000  Uiso   1.00
H389   H     0.41107   0.23007  -0.09835   0.00000  Uiso   1.00
H390   H     0.43844   0.27411  -0.33446   0.00000  Uiso   1.00
H391   H     0.42532   0.28867   0.08914   0.00000  Uiso   1.00
H392   H     0.47295   0.24438  -0.16161   0.00000  Uiso   1.00
H393   H     0.47216   0.27097   0.14950   0.00000  Uiso   1.00
H394   H     0.44976   0.24113   0.27508   0.00000  Uiso   1.00
H395   H     0.33238   0.21108  -0.25274   0.00000  Uiso   1.00
H396   H     0.36981   0.22141  -0.47166   0.00000  Uiso   1.00
H397   H     0.38045   0.18056  -0.23087   0.00000  Uiso   1.00
H398   H     0.38297   0.20274   0.11552   0.00000  Uiso   1.00
H399   H     0.34907   0.18383   0.15516   0.00000  Uiso   1.00
C400   C     0.94881   0.95022   0.39972   0.00000  Uiso   1.00
C401   C     0.98566   0.91333   0.47827   0.00000  Uiso   1.00
C402   C     0.97720   0.94171   0.45482   0.00000  Uiso   1.00
C403   C     0.94098   0.97750   0.36427   0.00000  Uiso   1.00
C404   C     0.91341   0.98596   0.26713   0.00000  Uiso   1.00
C405   C     0.92607   0.92901   0.38607   0.00000  Uiso   1.00
C406   C     0.93388   0.90501   0.18443   0.00000  Uiso   1.00
C407   C     0.91247   0.88472   0.18297   0.00000  Uiso   1.00
C408   C     0.88180   0.88775   0.38245   0.00000  Uiso   1.00
C409   C     0.87369   0.91198   0.58260   0.00000  Uiso   1.00
C410   C     0.89537   0.93204   0.58392   0.00000  Uiso   1.00
N411   N     0.86128   0.86664   0.37373   0.00000  Uiso   1.00
C412   C     0.81124   0.84779   0.52901   0.00000  Uiso   1.00
S413   S     0.82387   0.81714   0.33170   0.00000  Uiso   1.00
C414   C     0.78732   0.80320   0.44021   0.00000  Uiso   1.00
C415   C     0.76611   0.82243   0.62993   0.00000  Uiso   1.00
C416   C     0.77948   0.84752   0.67595   0.00000  Uiso   1.00
C417   C     0.77822   0.77552   0.38185   0.00000  Uiso   1.00
N418   N     0.79488   0.75598   0.15695   0.00000  Uiso   1.00
C419   C     0.77862   0.73105   0.17248   0.00000  Uiso   1.00
C420   C     0.75017   0.76379   0.55962   0.00000  Uiso   1.00
O421   O     0.78855   0.71081  -0.01499   0.00000  Uiso   1.00
C422   C     0.83238   0.86971   0.52926   0.00000  Uiso   1.00
C423   C     0.82379   0.76094  -0.09732   0.00000  Uiso   1.00
C424   C     0.84978   0.74477  -0.00980   0.00000  Uiso   1.00
C425   C     0.87830   0.76261  -0.09032   0.00000  Uiso   1.00
C426   C     0.90453   0.75017   0.02502   0.00000  Uiso   1.00
C427   C     0.93181   0.76905  -0.05018   0.00000  Uiso   1.00
C428   C     0.95808   0.75584   0.05899   0.00000  Uiso   1.00
C429   C     0.85440   0.71773  -0.20964   0.00000  Uiso   1.00
C430   C     0.86738   0.69503  -0.03230   0.00000  Uiso   1.00
H431   H     0.97171   0.89533   0.45878   0.00000  Uiso   1.00
H432   H     0.89701   0.97224   0.19848   0.00000  Uiso   1.00
H433   H     0.95710   0.90255   0.01330   0.00000  Uiso   1.00
H434   H     0.91930   0.86626   0.02360   0.00000  Uiso   1.00
H435   H     0.85019   0.91525   0.74482   0.00000  Uiso   1.00
H436   H     0.88857   0.95011   0.75115   0.00000  Uiso   1.00
H437   H     0.74139   0.81797   0.73419   0.00000  Uiso   1.00
H438   H     0.76710   0.86544   0.81129   0.00000  Uiso   1.00
H439   H     0.82182   0.88845   0.67464   0.00000  Uiso   1.00
H440   H     0.82117   0.75570  -0.36210   0.00000  Uiso   1.00
H441   H     0.82880   0.78314  -0.10864   0.00000  Uiso   1.00
H442   H     0.84295   0.73984   0.27518   0.00000  Uiso   1.00
H443   H     0.88569   0.76699  -0.37483   0.00000  Uiso   1.00
H444   H     0.87309   0.78316   0.02926   0.00000  Uiso   1.00
H445   H     0.89728   0.74577   0.30921   0.00000  Uiso   1.00
H446   H     0.91107   0.73007  -0.09835   0.00000  Uiso   1.00
H447   H     0.93844   0.77411  -0.33446   0.00000  Uiso   1.00
H448   H     0.92532   0.78867   0.08914   0.00000  Uiso   1.00
H449   H     0.97295   0.74438  -0.16161   0.00000  Uiso   1.00
H450   H     0.97216   0.77097   0.14950   0.00000  Uiso   1.00
H451   H     0.94976   0.74113   0.27508   0.00000  Uiso   1.00
H452   H     0.83238   0.71108  -0.25274   0.00000  Uiso   1.00
H453   H     0.86981   0.72141  -0.47166   0.00000  Uiso   1.00
H454   H     0.88045   0.68056  -0.23087   0.00000  Uiso   1.00
H455   H     0.88297   0.70274   0.11552   0.00000  Uiso   1.00
H456   H     0.84907   0.68383   0.15516   0.00000  Uiso   1.00
N457   N     0.50000   0.54164   0.50000   0.00000  Uiso   1.00
N458   N     0.00000   0.04164   0.50000   0.00000  Uiso   1.00
N459   N     0.50000   0.45836   0.50000   0.00000  Uiso   1.00
N460   N     0.00000   0.95836   0.50000   0.00000  Uiso   1.00
N461   N     0.45742   0.50000   0.41054   0.00000  Uiso   1.00
N462   N     0.95742   0.00000   0.41054   0.00000  Uiso   1.00
N463   N     0.54258   0.50000   0.58946   0.00000  Uiso   1.00
N464   N     0.04258   0.00000   0.58946   0.00000  Uiso   1.00
H465   H     0.97682   0.00000   0.47095   0.00000  Uiso   1.00
H466   H     0.47682   0.50000   0.47095   0.00000  Uiso   1.00
H467   H     0.02318   0.00000   0.52906   0.00000  Uiso   1.00
H468   H     0.52318   0.50000   0.52906   0.00000  Uiso   1.00
loop_
_geom_bond_atom_site_label_1
_geom_bond_atom_site_label_2
_geom_bond_distance
_geom_bond_site_symmetry_2
_ccdc_geom_bond_type
C1     C3      1.422   .     S
C1     C4      1.397   .     D
C1     C6      1.473   .     S
C2     C3      1.449   .     S
C2     H32     1.098   .     S
C2     C116    1.355   .     D
C3     N457    1.363   .     D
C4     C5      1.459   .     S
C4     N461    1.367   .     S
C5     H33     1.087   .     S
C5     C347    1.373   .     D
C6     C7      1.406   .     D
C6     C11     1.408   .     S
C7     C8      1.388   .     S
C7     H34     1.093   .     S
C8     C9      1.409   .     D
C8     H35     1.094   .     S
C9     C10     1.414   .     S
C9     N12     1.396   .     S
C10    C11     1.389   .     D
C10    H36     1.096   .     S
C11    H37     1.094   .     S
N12    C23     1.297   .     D
C13    S14     1.713   .     S
C13    C17     1.400   .     D
C13    C23     1.437   .     S
S14    C15     1.735   .     S
C15    C16     1.407   .     D
C15    C18     1.451   .     S
C16    C17     1.401   .     S
C16    H38     1.107   .     S
C17    H39     1.098   .     S
C18    N19     1.380   .     S
C18    C21     1.399   .     D
N19    C20     1.417   .     S
N19    C24     1.439   .     S
C20    O22     1.243   .     D
C20    C306    1.462   .     S
C21    C305    1.462   .     S
C21    C306    1.429   .     S
C23    H40     1.117   .     S
C24    C25     1.531   .     S
C24    H41     1.105   .     S
C24    H42     1.107   .     S
C25    C26     1.521   .     S
C25    C30     1.522   .     S
C25    H43     1.103   .     S
C26    C27     1.507   .     S
C26    H44     1.096   .     S
C26    H45     1.107   .     S
C27    C28     1.507   .     S
C27    H46     1.095   .     S
C27    H47     1.100   .     S
C28    C29     1.513   .     S
C28    H48     1.102   .     S
C28    H49     1.104   .     S
C29    H50     1.097   .     S
C29    H51     1.096   .     S
C29    H52     1.098   .     S
C30    C31     1.509   .     S
C30    H53     1.104   .     S
C30    H54     1.091   .     S
C31    H55     1.100   .     S
C31    H56     1.093   .     S
C31    H57     1.096   .     S
C58    C60     1.422   .     S
C58    C61     1.397   .     D
C58    C63     1.473   .     S
C59    C60     1.449   .     S
C59    H89     1.098   .     S
C59    C173    1.355   1_655 D
C60    N458    1.363   1_655 D
C61    C62     1.459   .     S
C61    N462    1.367   .     S
C62    H90     1.087   .     S
C62    C404    1.373   1_545 D
C63    C64     1.406   .     D
C63    C68     1.408   .     S
C64    C65     1.388   .     S
C64    H91     1.093   .     S
C65    C66     1.409   .     D
C65    H92     1.094   .     S
C66    C67     1.414   .     S
C66    N69     1.396   .     S
C67    C68     1.389   .     D
C67    H93     1.096   .     S
C68    H94     1.094   .     S
N69    C80     1.297   .     D
C70    S71     1.713   .     S
C70    C74     1.400   .     D
C70    C80     1.437   .     S
S71    C72     1.735   .     S
C72    C73     1.407   .     D
C72    C75     1.451   .     S
C73    C74     1.401   .     S
C73    H95     1.107   .     S
C74    H96     1.098   .     S
C75    N76     1.380   .     S
C75    C78     1.399   .     D
N76    C77     1.417   .     S
N76    C81     1.439   .     S
C77    O79     1.243   .     D
C77    C249    1.462   .     S
C78    C248    1.462   .     S
C78    C249    1.429   .     S
C80    H97     1.117   .     S
C81    C82     1.531   .     S
C81    H98     1.105   .     S
C81    H99     1.107   .     S
C82    C83     1.521   .     S
C82    C87     1.522   .     S
C82    H100    1.103   .     S
C83    C84     1.507   .     S
C83    H101    1.096   .     S
C83    H102    1.107   .     S
C84    C85     1.507   .     S
C84    H103    1.095   .     S
C84    H104    1.100   .     S
C85    C86     1.513   .     S
C85    H105    1.102   .     S
C85    H106    1.104   .     S
C86    H107    1.097   .     S
C86    H108    1.096   .     S
C86    H109    1.098   .     S
C87    C88     1.509   .     S
C87    H110    1.104   .     S
C87    H111    1.091   .     S
C88    H112    1.100   .     S
C88    H113    1.093   .     S
C88    H114    1.096   .     S
C115   C117    1.422   .     D
C115   C118    1.397   .     S
C115   C120    1.473   .     S
C116   C117    1.449   .     S
C116   H146    1.098   .     S
C117   N457    1.363   .     S
C118   C119    1.459   .     D
C118   N463    1.367   .     S
C119   H147    1.087   .     S
C119   C233    1.373   .     S
C120   C121    1.406   .     D
C120   C125    1.408   .     S
C121   C122    1.388   .     S
C121   H148    1.093   .     S
C122   C123    1.409   .     D
C122   H149    1.094   .     S
C123   C124    1.414   .     S
C123   N126    1.396   .     S
C124   C125    1.389   .     D
C124   H150    1.096   .     S
C125   H151    1.094   .     S
N126   C137    1.297   .     D
C127   S128    1.713   .     S
C127   C131    1.400   .     D
C127   C137    1.437   .     S
S128   C129    1.735   .     S
C129   C130    1.407   .     D
C129   C132    1.451   .     S
C130   C131    1.401   .     S
C130   H152    1.107   .     S
C131   H153    1.098   .     S
C132   N133    1.380   .     S
C132   C135    1.399   .     D
N133   C134    1.417   .     S
N133   C138    1.439   .     S
C134   O136    1.243   .     D
C134   C420    1.462   .     S
C135   C419    1.462   .     S
C135   C420    1.429   .     S
C137   H154    1.117   .     S
C138   C139    1.531   .     S
C138   H155    1.105   .     S
C138   H156    1.107   .     S
C139   C140    1.521   .     S
C139   C144    1.522   .     S
C139   H157    1.103   .     S
C140   C141    1.507   .     S
C140   H158    1.096   .     S
C140   H159    1.107   .     S
C141   C142    1.507   .     S
C141   H160    1.095   .     S
C141   H161    1.100   .     S
C142   C143    1.513   .     S
C142   H162    1.102   .     S
C142   H163    1.104   .     S
C143   H164    1.097   .     S
C143   H165    1.096   .     S
C143   H166    1.098   .     S
C144   C145    1.509   .     S
C144   H167    1.104   .     S
C144   H168    1.091   .     S
C145   H169    1.100   .     S
C145   H170    1.093   .     S
C145   H171    1.096   .     S
C172   C174    1.422   .     D
C172   C175    1.397   .     S
C172   C177    1.473   .     S
C173   C59     1.355   1_455 D
C173   C174    1.449   .     S
C173   H203    1.098   .     S
C174   N458    1.363   .     S
C175   C176    1.459   .     D
C175   N464    1.367   .     S
C176   H204    1.087   .     S
C176   C290    1.373   1_545 S
C177   C178    1.406   .     D
C177   C182    1.408   .     S
C178   C179    1.388   .     S
C178   H205    1.093   .     S
C179   C180    1.409   .     D
C179   H206    1.094   .     S
C180   C181    1.414   .     S
C180   N183    1.396   .     S
C181   C182    1.389   .     D
C181   H207    1.096   .     S
C182   H208    1.094   .     S
N183   C194    1.297   .     D
C184   S185    1.713   .     S
C184   C188    1.400   .     D
C184   C194    1.437   .     S
S185   C186    1.735   .     S
C186   C187    1.407   .     D
C186   C189    1.451   .     S
C187   C188    1.401   .     S
C187   H209    1.107   .     S
C188   H210    1.098   .     S
C189   N190    1.380   .     S
C189   C192    1.399   .     D
N190   C191    1.417   .     S
N190   C195    1.439   .     S
C191   O193    1.243   .     D
C191   C363    1.462   .     S
C192   C362    1.462   .     S
C192   C363    1.429   .     S
C194   H211    1.117   .     S
C195   C196    1.531   .     S
C195   H212    1.105   .     S
C195   H213    1.107   .     S
C196   C197    1.521   .     S
C196   C201    1.522   .     S
C196   H214    1.103   .     S
C197   C198    1.507   .     S
C197   H215    1.096   .     S
C197   H216    1.107   .     S
C198   C199    1.507   .     S
C198   H217    1.095   .     S
C198   H218    1.100   .     S
C199   C200    1.513   .     S
C199   H219    1.102   .     S
C199   H220    1.104   .     S
C200   H221    1.097   .     S
C200   H222    1.096   .     S
C200   H223    1.098   .     S
C201   C202    1.509   .     S
C201   H224    1.104   .     S
C201   H225    1.091   .     S
C202   H226    1.100   .     S
C202   H227    1.093   .     S
C202   H228    1.096   .     S
C229   C231    1.422   .     D
C229   C232    1.397   .     S
C229   C234    1.473   .     S
C230   C231    1.449   .     S
C230   H260    1.098   .     S
C230   C344    1.355   .     D
C231   N459    1.363   .     S
C232   C233    1.459   .     D
C232   N463    1.367   .     S
C233   H261    1.087   .     S
C234   C235    1.406   .     D
C234   C239    1.408   .     S
C235   C236    1.388   .     S
C235   H262    1.093   .     S
C236   C237    1.409   .     D
C236   H263    1.094   .     S
C237   C238    1.414   .     S
C237   N240    1.396   .     S
C238   C239    1.389   .     D
C238   H264    1.096   .     S
C239   H265    1.094   .     S
N240   C251    1.297   .     D
C241   S242    1.713   .     S
C241   C245    1.400   .     D
C241   C251    1.437   .     S
S242   C243    1.735   .     S
C243   C244    1.407   .     D
C243   C246    1.451   .     S
C244   C245    1.401   .     S
C244   H266    1.107   .     S
C245   H267    1.098   .     S
C246   N247    1.380   .     S
C246   C249    1.399   .     D
N247   C248    1.417   .     S
N247   C252    1.439   .     S
C248   O250    1.243   .     D
C251   H268    1.117   .     S
C252   C253    1.531   .     S
C252   H269    1.105   .     S
C252   H270    1.107   .     S
C253   C254    1.521   .     S
C253   C258    1.522   .     S
C253   H271    1.103   .     S
C254   C255    1.507   .     S
C254   H272    1.096   .     S
C254   H273    1.107   .     S
C255   C256    1.507   .     S
C255   H274    1.095   .     S
C255   H275    1.100   .     S
C256   C257    1.513   .     S
C256   H276    1.102   .     S
C256   H277    1.104   .     S
C257   H278    1.097   .     S
C257   H279    1.096   .     S
C257   H280    1.098   .     S
C258   C259    1.509   .     S
C258   H281    1.104   .     S
C258   H282    1.091   .     S
C259   H283    1.100   .     S
C259   H284    1.093   .     S
C259   H285    1.096   .     S
C286   C288    1.422   .     D
C286   C289    1.397   .     S
C286   C291    1.473   .     S
C287   C288    1.449   .     S
C287   H317    1.098   .     S
C287   C401    1.355   1_455 D
C288   N460    1.363   .     S
C289   C290    1.459   .     D
C289   N464    1.367   1_565 S
C290   C176    1.373   1_565 S
C290   H318    1.087   .     S
C291   C292    1.406   .     D
C291   C296    1.408   .     S
C292   C293    1.388   .     S
C292   H319    1.093   .     S
C293   C294    1.409   .     D
C293   H320    1.094   .     S
C294   C295    1.414   .     S
C294   N297    1.396   .     S
C295   C296    1.389   .     D
C295   H321    1.096   .     S
C296   H322    1.094   .     S
N297   C308    1.297   .     D
C298   S299    1.713   .     S
C298   C302    1.400   .     D
C298   C308    1.437   .     S
S299   C300    1.735   .     S
C300   C301    1.407   .     D
C300   C303    1.451   .     S
C301   C302    1.401   .     S
C301   H323    1.107   .     S
C302   H324    1.098   .     S
C303   N304    1.380   .     S
C303   C306    1.399   .     D
N304   C305    1.417   .     S
N304   C309    1.439   .     S
C305   O307    1.243   .     D
C308   H325    1.117   .     S
C309   C310    1.531   .     S
C309   H326    1.105   .     S
C309   H327    1.107   .     S
C310   C311    1.521   .     S
C310   C315    1.522   .     S
C310   H328    1.103   .     S
C311   C312    1.507   .     S
C311   H329    1.096   .     S
C311   H330    1.107   .     S
C312   C313    1.507   .     S
C312   H331    1.095   .     S
C312   H332    1.100   .     S
C313   C314    1.513   .     S
C313   H333    1.102   .     S
C313   H334    1.104   .     S
C314   H335    1.097   .     S
C314   H336    1.096   .     S
C314   H337    1.098   .     S
C315   C316    1.509   .     S
C315   H338    1.104   .     S
C315   H339    1.091   .     S
C316   H340    1.100   .     S
C316   H341    1.093   .     S
C316   H342    1.096   .     S
C343   C345    1.422   .     S
C343   C346    1.397   .     D
C343   C348    1.473   .     S
C344   C345    1.449   .     S
C344   H374    1.098   .     S
C345   N459    1.363   .     D
C346   C347    1.459   .     S
C346   N461    1.367   .     S
C347   H375    1.087   .     S
C348   C349    1.406   .     D
C348   C353    1.408   .     S
C349   C350    1.388   .     S
C349   H376    1.093   .     S
C350   C351    1.409   .     D
C350   H377    1.094   .     S
C351   C352    1.414   .     S
C351   N354    1.396   .     S
C352   C353    1.389   .     D
C352   H378    1.096   .     S
C353   H379    1.094   .     S
N354   C365    1.297   .     D
C355   S356    1.713   .     S
C355   C359    1.400   .     D
C355   C365    1.437   .     S
S356   C357    1.735   .     S
C357   C358    1.407   .     D
C357   C360    1.451   .     S
C358   C359    1.401   .     S
C358   H380    1.107   .     S
C359   H381    1.098   .     S
C360   N361    1.380   .     S
C360   C363    1.399   .     D
N361   C362    1.417   .     S
N361   C366    1.439   .     S
C362   O364    1.243   .     D
C365   H382    1.117   .     S
C366   C367    1.531   .     S
C366   H383    1.105   .     S
C366   H384    1.107   .     S
C367   C368    1.521   .     S
C367   C372    1.522   .     S
C367   H385    1.103   .     S
C368   C369    1.507   .     S
C368   H386    1.096   .     S
C368   H387    1.107   .     S
C369   C370    1.507   .     S
C369   H388    1.095   .     S
C369   H389    1.100   .     S
C370   C371    1.513   .     S
C370   H390    1.102   .     S
C370   H391    1.104   .     S
C371   H392    1.097   .     S
C371   H393    1.096   .     S
C371   H394    1.098   .     S
C372   C373    1.509   .     S
C372   H395    1.104   .     S
C372   H396    1.091   .     S
C373   H397    1.100   .     S
C373   H398    1.093   .     S
C373   H399    1.096   .     S
C400   C402    1.422   .     S
C400   C403    1.397   .     D
C400   C405    1.473   .     S
C401   C287    1.355   1_655 D
C401   C402    1.449   .     S
C401   H431    1.098   .     S
C402   N460    1.363   1_655 D
C403   C404    1.459   .     S
C403   N462    1.367   1_565 S
C404   C62     1.373   1_565 D
C404   H432    1.087   .     S
C405   C406    1.406   .     S
C405   C410    1.408   .     D
C406   C407    1.388   .     D
C406   H433    1.093   .     S
C407   C408    1.409   .     S
C407   H434    1.094   .     S
C408   C409    1.414   .     D
C408   N411    1.396   .     S
C409   C410    1.389   .     S
C409   H435    1.096   .     S
C410   H436    1.094   .     S
N411   C422    1.297   .     D
C412   S413    1.713   .     S
C412   C416    1.400   .     D
C412   C422    1.437   .     S
S413   C414    1.735   .     S
C414   C415    1.407   .     D
C414   C417    1.451   .     S
C415   C416    1.401   .     S
C415   H437    1.107   .     S
C416   H438    1.098   .     S
C417   N418    1.380   .     S
C417   C420    1.399   .     D
N418   C419    1.417   .     S
N418   C423    1.439   .     S
C419   O421    1.243   .     D
C422   H439    1.117   .     S
C423   C424    1.531   .     S
C423   H440    1.105   .     S
C423   H441    1.107   .     S
C424   C425    1.521   .     S
C424   C429    1.522   .     S
C424   H442    1.103   .     S
C425   C426    1.507   .     S
C425   H443    1.096   .     S
C425   H444    1.107   .     S
C426   C427    1.507   .     S
C426   H445    1.095   .     S
C426   H446    1.100   .     S
C427   C428    1.513   .     S
C427   H447    1.102   .     S
C427   H448    1.104   .     S
C428   H449    1.097   .     S
C428   H450    1.096   .     S
C428   H451    1.098   .     S
C429   C430    1.509   .     S
C429   H452    1.104   .     S
C429   H453    1.091   .     S
C430   H454    1.100   .     S
C430   H455    1.093   .     S
C430   H456    1.096   .     S
N458   C60     1.363   1_455 D
N460   C402    1.363   1_455 D
N461   H466    0.969   .     S
N462   C403    1.367   1_545 S
N462   H465    0.969   .     S
N463   H468    0.969   .     S
N464   C289    1.367   1_545 S
N464   H467    0.969   .     S
