data_233
_audit_creation_date              2023-09-08
_audit_creation_method            'Materials Studio'
_symmetry_space_group_name_H-M    'P1'
_symmetry_Int_Tables_number       1
_symmetry_cell_setting            triclinic
loop_
_symmetry_equiv_pos_as_xyz
  x,y,z
_cell_length_a                    53.0000
_cell_length_b                    53.0000
_cell_length_c                    6.8000
_cell_angle_alpha                 90.0000
_cell_angle_beta                  90.0000
_cell_angle_gamma                 120.0000
loop_
_atom_site_label
_atom_site_type_symbol
_atom_site_fract_x
_atom_site_fract_y
_atom_site_fract_z
_atom_site_U_iso_or_equiv
_atom_site_adp_type
_atom_site_occupancy
H1     H     0.04979   0.07768   0.00092   0.00000  Uiso   1.00
H2     H     0.07727   0.05048   0.00089   0.00000  Uiso   1.00
H3     H    -0.07745  -0.04994   0.00167   0.00000  Uiso   1.00
H4     H    -0.04998  -0.07717   0.00171   0.00000  Uiso   1.00
H5     H    -0.09169   0.18529   0.00078   0.00000  Uiso   1.00
H6     H    -0.18704   0.08974   0.00112   0.00000  Uiso   1.00
H7     H    -0.09171   0.22060   0.00088   0.00000  Uiso   1.00
H8     H    -0.18719   0.22046   0.00087   0.00000  Uiso   1.00
H9     H    -0.22249   0.18504   0.00081   0.00000  Uiso   1.00
H10    H    -0.22235   0.08970   0.00110   0.00000  Uiso   1.00
H11    H    -0.32933   0.12445  -0.00019   0.00000  Uiso   1.00
H12    H    -0.38227   0.09858  -0.00078   0.00000  Uiso   1.00
H13    H    -0.32930   0.04327   0.00209   0.00000  Uiso   1.00
H14    H    -0.38221   0.01612   0.00257   0.00000  Uiso   1.00
H15    H    -0.10013   0.38083   0.00133   0.00000  Uiso   1.00
H16    H    -0.12625   0.32795   0.00100   0.00000  Uiso   1.00
H17    H    -0.01792   0.38020   0.00128   0.00000  Uiso   1.00
H18    H    -0.04537   0.32732   0.00096   0.00000  Uiso   1.00
H19    H    -0.04507   0.12508  -0.00046   0.00000  Uiso   1.00
H20    H    -0.01778   0.09944  -0.00116   0.00000  Uiso   1.00
H21    H    -0.12612   0.04367   0.00231   0.00000  Uiso   1.00
H22    H    -0.10015   0.01677   0.00298   0.00000  Uiso   1.00
H23    H     0.09966  -0.01653  -0.00131   0.00000  Uiso   1.00
H24    H     0.12577  -0.04333  -0.00071   0.00000  Uiso   1.00
H25    H     0.01743  -0.09935   0.00345   0.00000  Uiso   1.00
H26    H     0.04480  -0.12481   0.00246   0.00000  Uiso   1.00
H27    H     0.09172  -0.18484   0.00108   0.00000  Uiso   1.00
H28    H     0.18697  -0.08925   0.00077   0.00000  Uiso   1.00
H29    H     0.22252  -0.08919   0.00079   0.00000  Uiso   1.00
H30    H     0.22256  -0.18456   0.00103   0.00000  Uiso   1.00
H31    H     0.09180  -0.22002   0.00087   0.00000  Uiso   1.00
H32    H     0.18733  -0.21985   0.00084   0.00000  Uiso   1.00
H33    H     0.04561  -0.32645   0.00127   0.00000  Uiso   1.00
H34    H     0.01813  -0.37939   0.00130   0.00000  Uiso   1.00
H35    H     0.12649  -0.32711   0.00127   0.00000  Uiso   1.00
H36    H     0.10030  -0.38005   0.00132   0.00000  Uiso   1.00
H37    H     0.38232  -0.09846   0.00311   0.00000  Uiso   1.00
H38    H     0.38255  -0.01585  -0.00081   0.00000  Uiso   1.00
H39    H     0.32961  -0.04289  -0.00041   0.00000  Uiso   1.00
H40    H     0.32947  -0.12415   0.00226   0.00000  Uiso   1.00
H41    H     0.03289   0.04520   0.49920   0.00000  Uiso   1.00
H42    H     0.06035   0.01797   0.49924   0.00000  Uiso   1.00
H43    H    -0.09437  -0.08245   0.50002   0.00000  Uiso   1.00
H44    H    -0.06689  -0.10965   0.49999   0.00000  Uiso   1.00
H45    H    -0.10894   0.15276   0.49982   0.00000  Uiso   1.00
H46    H    -0.20418   0.05715   0.50013   0.00000  Uiso   1.00
H47    H    -0.10902   0.18792   0.50004   0.00000  Uiso   1.00
H48    H    -0.20455   0.18776   0.50006   0.00000  Uiso   1.00
H49    H    -0.23978   0.15247   0.49987   0.00000  Uiso   1.00
H50    H    -0.23974   0.05710   0.50012   0.00000  Uiso   1.00
H51    H    -0.34667   0.09209   0.49865   0.00000  Uiso   1.00
H52    H    -0.39953   0.06641   0.49781   0.00000  Uiso   1.00
H53    H    -0.34685   0.01081   0.50131   0.00000  Uiso   1.00
H54    H    -0.39979  -0.01621   0.50172   0.00000  Uiso   1.00
H55    H    -0.11747   0.34797   0.49956   0.00000  Uiso   1.00
H56    H    -0.14367   0.29504   0.49963   0.00000  Uiso   1.00
H57    H    -0.03531   0.34728   0.49963   0.00000  Uiso   1.00
H58    H    -0.06281   0.29433   0.49965   0.00000  Uiso   1.00
H59    H    -0.06198   0.09280   0.49846   0.00000  Uiso   1.00
H60    H    -0.03457   0.06736   0.49749   0.00000  Uiso   1.00
H61    H    -0.14291   0.01129   0.50162   0.00000  Uiso   1.00
H62    H    -0.11677  -0.01548   0.50223   0.00000  Uiso   1.00
H63    H     0.08303  -0.04878   0.49797   0.00000  Uiso   1.00
H64    H     0.10898  -0.07572   0.49862   0.00000  Uiso   1.00
H65    H     0.00064  -0.13143   0.50207   0.00000  Uiso   1.00
H66    H     0.02790  -0.15709   0.50136   0.00000  Uiso   1.00
H67    H     0.07447  -0.21737   0.50013   0.00000  Uiso   1.00
H68    H     0.16984  -0.12183   0.49979   0.00000  Uiso   1.00
H69    H     0.20513  -0.12179   0.49981   0.00000  Uiso   1.00
H70    H     0.20527  -0.21713   0.50009   0.00000  Uiso   1.00
H71    H     0.07448  -0.25270   0.50003   0.00000  Uiso   1.00
H72    H     0.16997  -0.25254   0.50004   0.00000  Uiso   1.00
H73    H     0.02817  -0.35944   0.49995   0.00000  Uiso   1.00
H74    H     0.00074  -0.41232   0.49963   0.00000  Uiso   1.00
H75    H     0.10907  -0.36003   0.49990   0.00000  Uiso   1.00
H76    H     0.08296  -0.41291   0.49957   0.00000  Uiso   1.00
H77    H     0.36506  -0.13063   0.50169   0.00000  Uiso   1.00
H78    H     0.36497  -0.04818   0.49835   0.00000  Uiso   1.00
H79    H     0.31206  -0.07534   0.49883   0.00000  Uiso   1.00
H80    H     0.31212  -0.15651   0.50110   0.00000  Uiso   1.00
H81    H     0.45429  -0.10863   0.49993   0.00000  Uiso   1.00
H82    H     0.45440   0.01880   0.49926   0.00000  Uiso   1.00
H83    H     0.06006  -0.50260   0.49949   0.00000  Uiso   1.00
H84    H    -0.06694  -0.50176   0.49950   0.00000  Uiso   1.00
H85    H     0.07751  -0.46949   0.00108   0.00000  Uiso   1.00
H86    H    -0.04949  -0.46865   0.00111   0.00000  Uiso   1.00
H87    H     0.47183  -0.07607   0.00168   0.00000  Uiso   1.00
H88    H     0.47195   0.05139   0.00094   0.00000  Uiso   1.00
H89    H     0.03233   0.43655   0.49979   0.00000  Uiso   1.00
H90    H    -0.09467   0.43739   0.49982   0.00000  Uiso   1.00
H91    H    -0.07722   0.47050   0.00142   0.00000  Uiso   1.00
H92    H     0.04978   0.46966   0.00140   0.00000  Uiso   1.00
H93    H    -0.48917  -0.08343   0.49997   0.00000  Uiso   1.00
H94    H    -0.47162  -0.05084   0.00165   0.00000  Uiso   1.00
H95    H    -0.48906   0.04403   0.49923   0.00000  Uiso   1.00
H96    H    -0.47152   0.07660   0.00098   0.00000  Uiso   1.00
O97    O    -0.27562   0.08894   0.00112   0.00000  Uiso   1.00
O98    O    -0.27564   0.13248   0.00093   0.00000  Uiso   1.00
O99    O    -0.13437   0.08922   0.00111   0.00000  Uiso   1.00
O100   O    -0.09091   0.13285   0.00088   0.00000  Uiso   1.00
O101   O    -0.09108   0.27380   0.00089   0.00000  Uiso   1.00
O102   O    -0.13461   0.27378   0.00089   0.00000  Uiso   1.00
O103   O     0.09080  -0.13247   0.00101   0.00000  Uiso   1.00
O104   O     0.13420  -0.08883   0.00078   0.00000  Uiso   1.00
O105   O     0.09122  -0.27314   0.00107   0.00000  Uiso   1.00
O106   O     0.13478  -0.27311   0.00106   0.00000  Uiso   1.00
O107   O     0.27575  -0.13206   0.00098   0.00000  Uiso   1.00
O108   O     0.27580  -0.08851   0.00080   0.00000  Uiso   1.00
O109   O     0.00591   0.08186   0.00534   0.00000  Uiso   1.00
O110   O    -0.08192  -0.00645  -0.00198   0.00000  Uiso   1.00
O111   O     0.08179   0.00690   0.00558   0.00000  Uiso   1.00
O112   O    -0.00609  -0.08127  -0.00198   0.00000  Uiso   1.00
O113   O     0.08219  -0.42135   0.00016   0.00000  Uiso   1.00
O114   O    -0.00556  -0.42071   0.00031   0.00000  Uiso   1.00
O115   O    -0.42347   0.08091   0.00451   0.00000  Uiso   1.00
O116   O    -0.42365  -0.00723  -0.00106   0.00000  Uiso   1.00
O117   O    -0.08190   0.42228   0.00191   0.00000  Uiso   1.00
O118   O     0.00580   0.42166   0.00189   0.00000  Uiso   1.00
O119   O     0.42387   0.00771   0.00454   0.00000  Uiso   1.00
O120   O     0.42383  -0.08032  -0.00123   0.00000  Uiso   1.00
O121   O    -0.29302   0.05643   0.50011   0.00000  Uiso   1.00
O122   O    -0.29297   0.09997   0.49993   0.00000  Uiso   1.00
O123   O    -0.15139   0.05676   0.50012   0.00000  Uiso   1.00
O124   O    -0.10800   0.10041   0.49990   0.00000  Uiso   1.00
O125   O    -0.10843   0.24104   0.49984   0.00000  Uiso   1.00
O126   O    -0.15198   0.24102   0.49985   0.00000  Uiso   1.00
O127   O     0.07371  -0.16491   0.50002   0.00000  Uiso   1.00
O128   O     0.11718  -0.12130   0.49980   0.00000  Uiso   1.00
O129   O     0.07386  -0.30590   0.50002   0.00000  Uiso   1.00
O130   O     0.11740  -0.30586   0.50002   0.00000  Uiso   1.00
O131   O     0.25842  -0.16456   0.49997   0.00000  Uiso   1.00
O132   O     0.25839  -0.12103   0.49978   0.00000  Uiso   1.00
O133   O    -0.01103   0.04930   0.50281   0.00000  Uiso   1.00
O134   O    -0.09889  -0.03889   0.49527   0.00000  Uiso   1.00
O135   O     0.06482  -0.02555   0.50280   0.00000  Uiso   1.00
O136   O    -0.02303  -0.11383   0.49553   0.00000  Uiso   1.00
O137   O     0.06474  -0.45437   0.49901   0.00000  Uiso   1.00
O138   O    -0.02297  -0.45376   0.49901   0.00000  Uiso   1.00
O139   O    -0.44104   0.04828   0.50210   0.00000  Uiso   1.00
O140   O    -0.44110  -0.03975   0.49636   0.00000  Uiso   1.00
O141   O    -0.09935   0.38926   0.50079   0.00000  Uiso   1.00
O142   O    -0.01161   0.38861   0.50056   0.00000  Uiso   1.00
O143   O     0.40642  -0.02482   0.50194   0.00000  Uiso   1.00
O144   O     0.40626  -0.11295   0.49639   0.00000  Uiso   1.00
C145   C    -0.38775   0.05461   0.00092   0.00000  Uiso   1.00
C146   C    -0.37161   0.03991   0.00175   0.00000  Uiso   1.00
C147   C    -0.34126   0.05529   0.00157   0.00000  Uiso   1.00
C148   C    -0.32530   0.08586   0.00095   0.00000  Uiso   1.00
C149   C    -0.34125   0.10047   0.00021   0.00000  Uiso   1.00
C150   C    -0.37159   0.08547  -0.00004   0.00000  Uiso   1.00
C151   C    -0.24697   0.11181   0.00109   0.00000  Uiso   1.00
C152   C    -0.24700   0.13829   0.00099   0.00000  Uiso   1.00
C153   C    -0.22130   0.11089   0.00110   0.00000  Uiso   1.00
C154   C    -0.19450   0.13784   0.00106   0.00000  Uiso   1.00
C155   C    -0.19452   0.16489   0.00100   0.00000  Uiso   1.00
C156   C    -0.22138   0.16492   0.00093   0.00000  Uiso   1.00
C157   C    -0.16686   0.13789   0.00105   0.00000  Uiso   1.00
C158   C    -0.13983   0.16498   0.00098   0.00000  Uiso   1.00
C159   C    -0.13984   0.19263   0.00097   0.00000  Uiso   1.00
C160   C    -0.16692   0.19258   0.00097   0.00000  Uiso   1.00
C161   C    -0.16692   0.11097   0.00109   0.00000  Uiso   1.00
C162   C    -0.14028   0.11201   0.00107   0.00000  Uiso   1.00
C163   C    -0.11381   0.13854   0.00096   0.00000  Uiso   1.00
C164   C    -0.11289   0.16513   0.00090   0.00000  Uiso   1.00
C165   C    -0.11293   0.21950   0.00093   0.00000  Uiso   1.00
C166   C    -0.11390   0.24515   0.00093   0.00000  Uiso   1.00
C167   C    -0.14042   0.24512   0.00092   0.00000  Uiso   1.00
C168   C    -0.16702   0.21943   0.00093   0.00000  Uiso   1.00
C169   C    -0.08763   0.08638   0.00091   0.00000  Uiso   1.00
C170   C    -0.10214   0.05581   0.00169   0.00000  Uiso   1.00
C171   C    -0.08703   0.04056   0.00195   0.00000  Uiso   1.00
C172   C    -0.05617   0.05538   0.00091   0.00000  Uiso   1.00
C173   C    -0.04158   0.08623  -0.00026   0.00000  Uiso   1.00
C174   C    -0.05706   0.10110   0.00003   0.00000  Uiso   1.00
C175   C    -0.05527   0.00858   0.00011   0.00000  Uiso   1.00
C176   C    -0.03870  -0.00742   0.00118   0.00000  Uiso   1.00
C177   C    -0.00785   0.00799   0.00092   0.00000  Uiso   1.00
C178   C     0.00737   0.03885   0.00089   0.00000  Uiso   1.00
C179   C    -0.00878   0.05526   0.00243   0.00000  Uiso   1.00
C180   C     0.00772  -0.00743   0.00091   0.00000  Uiso   1.00
C181   C     0.03858   0.00796   0.00084   0.00000  Uiso   1.00
C182   C     0.05328   0.03841   0.00072   0.00000  Uiso   1.00
C183   C     0.03782   0.05370   0.00075   0.00000  Uiso   1.00
C184   C    -0.05346  -0.03789   0.00148   0.00000  Uiso   1.00
C185   C    -0.03800  -0.05318   0.00151   0.00000  Uiso   1.00
C186   C    -0.00753  -0.03827   0.00121   0.00000  Uiso   1.00
C187   C     0.00871  -0.05456   0.00019   0.00000  Uiso   1.00
C188   C     0.05522  -0.00794   0.00253   0.00000  Uiso   1.00
C189   C     0.05579  -0.05515   0.00110   0.00000  Uiso   1.00
C190   C     0.04123  -0.08601   0.00224   0.00000  Uiso   1.00
C191   C     0.05677  -0.10085   0.00180   0.00000  Uiso   1.00
C192   C     0.08735  -0.08610   0.00082   0.00000  Uiso   1.00
C193   C     0.10179  -0.05554  -0.00009   0.00000  Uiso   1.00
C194   C     0.08663  -0.04033  -0.00028   0.00000  Uiso   1.00
C195   C     0.11373  -0.13811   0.00099   0.00000  Uiso   1.00
C196   C     0.14018  -0.11156   0.00087   0.00000  Uiso   1.00
C197   C     0.11290  -0.16467   0.00103   0.00000  Uiso   1.00
C198   C     0.13988  -0.16447   0.00097   0.00000  Uiso   1.00
C199   C     0.16691  -0.13736   0.00091   0.00000  Uiso   1.00
C200   C     0.16686  -0.11050   0.00085   0.00000  Uiso   1.00
C201   C     0.13994  -0.19207   0.00098   0.00000  Uiso   1.00
C202   C     0.16701  -0.19202   0.00097   0.00000  Uiso   1.00
C203   C     0.19462  -0.16436   0.00096   0.00000  Uiso   1.00
C204   C     0.19459  -0.13731   0.00091   0.00000  Uiso   1.00
C205   C     0.22146  -0.16444   0.00100   0.00000  Uiso   1.00
C206   C     0.24713  -0.13783   0.00096   0.00000  Uiso   1.00
C207   C     0.24714  -0.11133   0.00087   0.00000  Uiso   1.00
C208   C     0.22145  -0.11040   0.00085   0.00000  Uiso   1.00
C209   C     0.11303  -0.21889   0.00097   0.00000  Uiso   1.00
C210   C     0.11406  -0.24450   0.00104   0.00000  Uiso   1.00
C211   C     0.14057  -0.24446   0.00103   0.00000  Uiso   1.00
C212   C     0.16717  -0.21881   0.00096   0.00000  Uiso   1.00
C213   C     0.08806  -0.32278   0.00115   0.00000  Uiso   1.00
C214   C     0.05748  -0.33855   0.00121   0.00000  Uiso   1.00
C215   C     0.04192  -0.36890   0.00118   0.00000  Uiso   1.00
C216   C     0.05642  -0.38524   0.00105   0.00000  Uiso   1.00
C217   C     0.08729  -0.36925   0.00119   0.00000  Uiso   1.00
C218   C     0.10251  -0.33890   0.00121   0.00000  Uiso   1.00
C219   C     0.00912  -0.43265   0.00068   0.00000  Uiso   1.00
C220   C    -0.00715  -0.46525   0.00086   0.00000  Uiso   1.00
C221   C     0.00802  -0.48095   0.00086   0.00000  Uiso   1.00
C222   C     0.03888  -0.46556   0.00085   0.00000  Uiso   1.00
C223   C     0.05560  -0.43298   0.00063   0.00000  Uiso   1.00
C224   C     0.05354  -0.48136   0.00100   0.00000  Uiso   1.00
C225   C    -0.03760  -0.48074   0.00102   0.00000  Uiso   1.00
C226   C     0.32547  -0.08554   0.00086   0.00000  Uiso   1.00
C227   C    -0.08789   0.32350   0.00094   0.00000  Uiso   1.00
C228   C     0.34140  -0.10018   0.00169   0.00000  Uiso   1.00
C229   C     0.37177  -0.08522   0.00208   0.00000  Uiso   1.00
C230   C     0.38798  -0.05435   0.00113   0.00000  Uiso   1.00
C231   C     0.37185  -0.03965   0.00000   0.00000  Uiso   1.00
C232   C     0.34149  -0.05497   0.00012   0.00000  Uiso   1.00
C233   C    -0.05731   0.33935   0.00102   0.00000  Uiso   1.00
C234   C    -0.04172   0.36973   0.00119   0.00000  Uiso   1.00
C235   C    -0.05621   0.38609   0.00129   0.00000  Uiso   1.00
C236   C    -0.08708   0.37006   0.00122   0.00000  Uiso   1.00
C237   C    -0.10228   0.33967   0.00104   0.00000  Uiso   1.00
C238   C    -0.48360  -0.03884   0.00144   0.00000  Uiso   1.00
C239   C    -0.46794  -0.00837   0.00115   0.00000  Uiso   1.00
C240   C    -0.48345   0.00697   0.00091   0.00000  Uiso   1.00
C241   C    -0.46786   0.03783   0.00090   0.00000  Uiso   1.00
C242   C    -0.48351   0.05262   0.00081   0.00000  Uiso   1.00
C243   C    -0.43536   0.00772   0.00040   0.00000  Uiso   1.00
C244   C    -0.43531   0.05432   0.00215   0.00000  Uiso   1.00
C245   C    -0.05526   0.43403   0.00148   0.00000  Uiso   1.00
C246   C    -0.00881   0.43371   0.00147   0.00000  Uiso   1.00
C247   C    -0.03861   0.46653   0.00116   0.00000  Uiso   1.00
C248   C     0.00742   0.46622   0.00116   0.00000  Uiso   1.00
C249   C    -0.05323   0.48237   0.00121   0.00000  Uiso   1.00
C250   C    -0.00775   0.48190   0.00103   0.00000  Uiso   1.00
C251   C     0.03789   0.48175   0.00120   0.00000  Uiso   1.00
C252   C     0.43568  -0.00707   0.00218   0.00000  Uiso   1.00
C253   C     0.43570  -0.05360   0.00042   0.00000  Uiso   1.00
C254   C     0.46821   0.00892   0.00086   0.00000  Uiso   1.00
C255   C     0.46821  -0.03724   0.00119   0.00000  Uiso   1.00
C256   C     0.48392   0.03938   0.00078   0.00000  Uiso   1.00
C257   C     0.48375  -0.00640   0.00090   0.00000  Uiso   1.00
C258   C     0.48383  -0.05208   0.00146   0.00000  Uiso   1.00
C259   C    -0.40520   0.02230   0.49978   0.00000  Uiso   1.00
C260   C    -0.38908   0.00759   0.50091   0.00000  Uiso   1.00
C261   C    -0.35873   0.02291   0.50078   0.00000  Uiso   1.00
C262   C    -0.34269   0.05347   0.50005   0.00000  Uiso   1.00
C263   C    -0.35861   0.06812   0.49922   0.00000  Uiso   1.00
C264   C    -0.38898   0.05317   0.49884   0.00000  Uiso   1.00
C265   C    -0.26436   0.07924   0.50003   0.00000  Uiso   1.00
C266   C    -0.26435   0.10574   0.49994   0.00000  Uiso   1.00
C267   C    -0.23868   0.07831   0.50005   0.00000  Uiso   1.00
C268   C    -0.21181   0.10522   0.50000   0.00000  Uiso   1.00
C269   C    -0.21184   0.13227   0.49995   0.00000  Uiso   1.00
C270   C    -0.23868   0.13234   0.49991   0.00000  Uiso   1.00
C271   C    -0.18413   0.10527   0.50000   0.00000  Uiso   1.00
C272   C    -0.15710   0.13237   0.49993   0.00000  Uiso   1.00
C273   C    -0.15716   0.15997   0.49993   0.00000  Uiso   1.00
C274   C    -0.18423   0.15993   0.49994   0.00000  Uiso   1.00
C275   C    -0.18407   0.07841   0.50006   0.00000  Uiso   1.00
C276   C    -0.15738   0.07948   0.50003   0.00000  Uiso   1.00
C277   C    -0.13094   0.10604   0.49992   0.00000  Uiso   1.00
C278   C    -0.13012   0.13259   0.49988   0.00000  Uiso   1.00
C279   C    -0.13025   0.18679   0.49994   0.00000  Uiso   1.00
C280   C    -0.13127   0.21240   0.49987   0.00000  Uiso   1.00
C281   C    -0.15778   0.21237   0.49987   0.00000  Uiso   1.00
C282   C    -0.18439   0.18672   0.49995   0.00000  Uiso   1.00
C283   C    -0.10451   0.05407   0.50009   0.00000  Uiso   1.00
C284   C    -0.11893   0.02351   0.50100   0.00000  Uiso   1.00
C285   C    -0.10376   0.00832   0.50120   0.00000  Uiso   1.00
C286   C    -0.07291   0.02315   0.49981   0.00000  Uiso   1.00
C287   C    -0.05837   0.05402   0.49868   0.00000  Uiso   1.00
C288   C    -0.07393   0.06883   0.49913   0.00000  Uiso   1.00
C289   C    -0.07232  -0.02404   0.49836   0.00000  Uiso   1.00
C290   C    -0.05568  -0.03993   0.50008   0.00000  Uiso   1.00
C291   C    -0.02482  -0.02454   0.50002   0.00000  Uiso   1.00
C292   C    -0.00956   0.00631   0.49971   0.00000  Uiso   1.00
C293   C    -0.02581   0.02258   0.50070   0.00000  Uiso   1.00
C294   C    -0.00925  -0.03996   0.50001   0.00000  Uiso   1.00
C295   C     0.02160  -0.02455   0.49974   0.00000  Uiso   1.00
C296   C     0.03636   0.00592   0.49943   0.00000  Uiso   1.00
C297   C     0.02091   0.02121   0.49941   0.00000  Uiso   1.00
C298   C    -0.07038  -0.07038   0.50019   0.00000  Uiso   1.00
C299   C    -0.05492  -0.08567   0.50017   0.00000  Uiso   1.00
C300   C    -0.02447  -0.07082   0.50002   0.00000  Uiso   1.00
C301   C    -0.00833  -0.08724   0.49846   0.00000  Uiso   1.00
C302   C     0.03817  -0.04056   0.50077   0.00000  Uiso   1.00
C303   C     0.03905  -0.08737   0.50000   0.00000  Uiso   1.00
C304   C     0.02444  -0.11822   0.50117   0.00000  Uiso   1.00
C305   C     0.03990  -0.13312   0.50088   0.00000  Uiso   1.00
C306   C     0.07047  -0.11841   0.50000   0.00000  Uiso   1.00
C307   C     0.08500  -0.08784   0.49923   0.00000  Uiso   1.00
C308   C     0.06990  -0.07258   0.49898   0.00000  Uiso   1.00
C309   C     0.09660  -0.17062   0.49995   0.00000  Uiso   1.00
C310   C     0.12308  -0.14409   0.49983   0.00000  Uiso   1.00
C311   C     0.09567  -0.19722   0.50000   0.00000  Uiso   1.00
C312   C     0.12261  -0.19708   0.49992   0.00000  Uiso   1.00
C313   C     0.14964  -0.16999   0.49985   0.00000  Uiso   1.00
C314   C     0.14971  -0.14307   0.49981   0.00000  Uiso   1.00
C315   C     0.12262  -0.22472   0.49994   0.00000  Uiso   1.00
C316   C     0.14969  -0.22467   0.49993   0.00000  Uiso   1.00
C317   C     0.17730  -0.19699   0.49991   0.00000  Uiso   1.00
C318   C     0.17728  -0.16994   0.49985   0.00000  Uiso   1.00
C319   C     0.20416  -0.19701   0.49998   0.00000  Uiso   1.00
C320   C     0.22978  -0.17038   0.49992   0.00000  Uiso   1.00
C321   C     0.22974  -0.14390   0.49982   0.00000  Uiso   1.00
C322   C     0.20408  -0.14299   0.49981   0.00000  Uiso   1.00
C323   C     0.09571  -0.25159   0.49998   0.00000  Uiso   1.00
C324   C     0.09668  -0.27725   0.49998   0.00000  Uiso   1.00
C325   C     0.12321  -0.27721   0.49998   0.00000  Uiso   1.00
C326   C     0.14981  -0.25151   0.49998   0.00000  Uiso   1.00
C327   C     0.07070  -0.35560   0.49997   0.00000  Uiso   1.00
C328   C     0.04012  -0.37145   0.49989   0.00000  Uiso   1.00
C329   C     0.02453  -0.40183   0.49972   0.00000  Uiso   1.00
C330   C     0.03904  -0.41819   0.49962   0.00000  Uiso   1.00
C331   C     0.06991  -0.40215   0.49969   0.00000  Uiso   1.00
C332   C     0.08510  -0.37176   0.49987   0.00000  Uiso   1.00
C333   C    -0.00836  -0.46581   0.49944   0.00000  Uiso   1.00
C334   C    -0.02458  -0.49832   0.49975   0.00000  Uiso   1.00
C335   C    -0.00941  -0.51400   0.49988   0.00000  Uiso   1.00
C336   C     0.02145  -0.49863   0.49974   0.00000  Uiso   1.00
C337   C     0.03810  -0.46612   0.49944   0.00000  Uiso   1.00
C338   C     0.03607  -0.51446   0.49970   0.00000  Uiso   1.00
C339   C    -0.05505  -0.51385   0.49971   0.00000  Uiso   1.00
C340   C     0.30808  -0.11792   0.49996   0.00000  Uiso   1.00
C341   C    -0.10526   0.29068   0.49976   0.00000  Uiso   1.00
C342   C     0.32403  -0.13253   0.50070   0.00000  Uiso   1.00
C343   C     0.35438  -0.11752   0.50095   0.00000  Uiso   1.00
C344   C     0.37053  -0.08666   0.49999   0.00000  Uiso   1.00
C345   C     0.35437  -0.07197   0.49916   0.00000  Uiso   1.00
C346   C     0.32402  -0.08735   0.49934   0.00000  Uiso   1.00
C347   C    -0.07467   0.30644   0.49971   0.00000  Uiso   1.00
C348   C    -0.05910   0.33679   0.49973   0.00000  Uiso   1.00
C349   C    -0.07360   0.35315   0.49985   0.00000  Uiso   1.00
C350   C    -0.10447   0.33716   0.49970   0.00000  Uiso   1.00
C351   C    -0.11970   0.30681   0.49969   0.00000  Uiso   1.00
C352   C    -0.50114  -0.07141   0.50013   0.00000  Uiso   1.00
C353   C    -0.48544  -0.04096   0.50005   0.00000  Uiso   1.00
C354   C    -0.50097  -0.02564   0.50001   0.00000  Uiso   1.00
C355   C    -0.48543   0.00520   0.49972   0.00000  Uiso   1.00
C356   C    -0.50105   0.02004   0.49945   0.00000  Uiso   1.00
C357   C    -0.45291  -0.02498   0.49872   0.00000  Uiso   1.00
C358   C    -0.45292   0.02156   0.50048   0.00000  Uiso   1.00
C359   C    -0.07276   0.40088   0.50029   0.00000  Uiso   1.00
C360   C    -0.02628   0.40055   0.50021   0.00000  Uiso   1.00
C361   C    -0.05604   0.43347   0.50006   0.00000  Uiso   1.00
C362   C    -0.01002   0.43315   0.50005   0.00000  Uiso   1.00
C363   C    -0.07070   0.44927   0.49990   0.00000  Uiso   1.00
C364   C    -0.02518   0.44885   0.50004   0.00000  Uiso   1.00
C365   C     0.02044   0.44865   0.49989   0.00000  Uiso   1.00
C366   C     0.41814  -0.03976   0.50050   0.00000  Uiso   1.00
C367   C     0.41809  -0.08636   0.49875   0.00000  Uiso   1.00
C368   C     0.45071  -0.02367   0.49976   0.00000  Uiso   1.00
C369   C     0.45064  -0.06986   0.50001   0.00000  Uiso   1.00
C370   C     0.46638   0.00680   0.49947   0.00000  Uiso   1.00
C371   C     0.46622  -0.03901   0.50000   0.00000  Uiso   1.00
C372   C     0.46629  -0.08465   0.50010   0.00000  Uiso   1.00
N373   N    -0.04005   0.03966   0.00111   0.00000  Uiso   1.00
N374   N     0.03979  -0.03924   0.00130   0.00000  Uiso   1.00
N375   N     0.04033  -0.41705   0.00087   0.00000  Uiso   1.00
N376   N    -0.41957   0.03880   0.00109   0.00000  Uiso   1.00
N377   N    -0.04005   0.41802   0.00138   0.00000  Uiso   1.00
N378   N     0.41987  -0.03835   0.00126   0.00000  Uiso   1.00
N379   N    -0.05690   0.00725   0.49961   0.00000  Uiso   1.00
N380   N     0.02294  -0.07165   0.49979   0.00000  Uiso   1.00
N381   N     0.02289  -0.45012   0.49952   0.00000  Uiso   1.00
N382   N    -0.43710   0.00631   0.49964   0.00000  Uiso   1.00
N383   N    -0.05750   0.38495   0.50004   0.00000  Uiso   1.00
N384   N     0.40235  -0.07085   0.49982   0.00000  Uiso   1.00
B385   B    -0.29270   0.10218   0.00102   0.00000  Uiso   1.00
B386   B    -0.10405   0.10255   0.00098   0.00000  Uiso   1.00
B387   B    -0.10430   0.29089   0.00088   0.00000  Uiso   1.00
B388   B     0.10389  -0.10217   0.00086   0.00000  Uiso   1.00
B389   B     0.10447  -0.29019   0.00110   0.00000  Uiso   1.00
B390   B     0.29286  -0.10176   0.00086   0.00000  Uiso   1.00
B391   B    -0.31008   0.06968   0.50004   0.00000  Uiso   1.00
B392   B    -0.12107   0.07012   0.50005   0.00000  Uiso   1.00
B393   B    -0.12168   0.25809   0.49981   0.00000  Uiso   1.00
B394   B     0.08687  -0.13461   0.49992   0.00000  Uiso   1.00
B395   B     0.08710  -0.32298   0.50003   0.00000  Uiso   1.00
B396   B     0.27548  -0.13426   0.49989   0.00000  Uiso   1.00
loop_
_geom_bond_atom_site_label_1
_geom_bond_atom_site_label_2
_geom_bond_distance
_geom_bond_site_symmetry_2
_ccdc_geom_bond_type
H1     C183    1.101   .     S
H2     C182    1.101   .     S
H3     C184    1.101   .     S
H4     C185    1.101   .     S
H5     C164    1.097   .     S
H6     C161    1.097   .     S
H7     C165    1.097   .     S
H8     C168    1.097   .     S
H9     C156    1.097   .     S
H10    C153    1.096   .     S
H11    C149    1.101   .     S
H12    C150    1.094   .     S
H13    C147    1.101   .     S
H14    C146    1.094   .     S
H15    C236    1.095   .     S
H16    C237    1.100   .     S
H17    C234    1.095   .     S
H18    C233    1.100   .     S
H19    C174    1.101   .     S
H20    C173    1.095   .     S
H21    C170    1.101   .     S
H22    C171    1.094   .     S
H23    C194    1.094   .     S
H24    C193    1.101   .     S
H25    C190    1.095   .     S
H26    C191    1.100   .     S
H27    C197    1.097   .     S
H28    C200    1.097   .     S
H29    C208    1.097   .     S
H30    C205    1.097   .     S
H31    C209    1.096   .     S
H32    C212    1.097   .     S
H33    C214    1.100   .     S
H34    C215    1.094   .     S
H35    C218    1.101   .     S
H36    C217    1.094   .     S
H37    C229    1.094   .     S
H38    C231    1.094   .     S
H39    C232    1.100   .     S
H40    C228    1.100   .     S
H41    C297    1.101   .     S
H42    C296    1.101   .     S
H43    C298    1.101   .     S
H44    C299    1.101   .     S
H45    C278    1.097   .     S
H46    C275    1.098   .     S
H47    C279    1.096   .     S
H48    C282    1.097   .     S
H49    C270    1.097   .     S
H50    C267    1.097   .     S
H51    C263    1.100   .     S
H52    C264    1.094   .     S
H53    C261    1.101   .     S
H54    C260    1.094   .     S
H55    C350    1.094   .     S
H56    C351    1.100   .     S
H57    C348    1.094   .     S
H58    C347    1.100   .     S
H59    C288    1.100   .     S
H60    C287    1.095   .     S
H61    C284    1.101   .     S
H62    C285    1.094   .     S
H63    C308    1.094   .     S
H64    C307    1.101   .     S
H65    C304    1.095   .     S
H66    C305    1.100   .     S
H67    C311    1.097   .     S
H68    C314    1.097   .     S
H69    C322    1.097   .     S
H70    C319    1.097   .     S
H71    C323    1.097   .     S
H72    C326    1.097   .     S
H73    C328    1.100   .     S
H74    C329    1.094   .     S
H75    C332    1.100   .     S
H76    C331    1.095   .     S
H77    C343    1.094   .     S
H78    C345    1.094   .     S
H79    C346    1.100   .     S
H80    C342    1.101   .     S
H81    C372    1.101   .     S
H82    C370    1.101   .     S
H83    C338    1.101   .     S
H84    C339    1.101   .     S
H85    C224    1.100   .     S
H86    C225    1.101   .     S
H87    C258    1.101   .     S
H88    C256    1.101   .     S
H89    C365    1.101   .     S
H90    C363    1.100   .     S
H91    C249    1.101   .     S
H92    C251    1.101   .     S
H93    C352    1.101   .     S
H94    C238    1.101   .     S
H95    C356    1.101   .     S
H96    C242    1.101   .     S
O97    C151    1.391   .     S
O97    B385    1.395   .     S
O98    C152    1.390   .     S
O98    B385    1.394   .     S
O99    C162    1.391   .     S
O99    B386    1.395   .     S
O100   C163    1.389   .     S
O100   B386    1.395   .     S
O101   C166    1.390   .     S
O101   B387    1.395   .     S
O102   C167    1.391   .     S
O102   B387    1.395   .     S
O103   C195    1.389   .     S
O103   B388    1.395   .     S
O104   C196    1.391   .     S
O104   B388    1.395   .     S
O105   C210    1.390   .     S
O105   B389    1.394   .     S
O106   C211    1.391   .     S
O106   B389    1.395   .     S
O107   C206    1.389   .     S
O107   B390    1.395   .     S
O108   C207    1.390   .     S
O108   B390    1.395   .     S
O109   C179    1.223   .     D
O110   C175    1.227   .     D
O111   C188    1.223   .     D
O112   C187    1.228   .     D
O113   C223    1.224   .     D
O114   C219    1.224   .     D
O115   C244    1.223   .     D
O116   C243    1.227   .     D
O117   C245    1.226   .     D
O118   C246    1.226   .     D
O119   C252    1.223   .     D
O120   C253    1.229   .     D
O121   C265    1.390   .     S
O121   B391    1.395   .     S
O122   C266    1.389   .     S
O122   B391    1.394   .     S
O123   C276    1.390   .     S
O123   B392    1.395   .     S
O124   C277    1.389   .     S
O124   B392    1.395   .     S
O125   C280    1.390   .     S
O125   B393    1.394   .     S
O126   C281    1.390   .     S
O126   B393    1.394   .     S
O127   C309    1.389   .     S
O127   B394    1.395   .     S
O128   C310    1.391   .     S
O128   B394    1.395   .     S
O129   C324    1.390   .     S
O129   B395    1.395   .     S
O130   C325    1.390   .     S
O130   B395    1.395   .     S
O131   C320    1.390   .     S
O131   B396    1.394   .     S
O132   C321    1.391   .     S
O132   B396    1.395   .     S
O133   C293    1.229   .     D
O134   C289    1.223   .     D
O135   C302    1.227   .     D
O136   C301    1.223   .     D
O137   C337    1.226   .     D
O138   C333    1.226   .     D
O139   C358    1.229   .     D
O140   C357    1.223   .     D
O141   C359    1.224   .     D
O142   C360    1.224   .     D
O143   C366    1.227   .     D
O144   C367    1.223   .     D
C145   C146    1.416   .     D
C145   C150    1.417   .     S
C145   N376    1.461   .     S
C146   C147    1.393   .     S
C147   C148    1.404   .     D
C148   C149    1.403   .     S
C148   B385    1.496   .     S
C149   C150    1.393   .     D
C151   C152    1.404   .     D
C151   C153    1.386   .     S
C152   C156    1.385   .     S
C153   C154    1.424   .     D
C154   C155    1.434   .     S
C154   C157    1.464   .     S
C155   C156    1.424   .     D
C155   C160    1.465   .     S
C157   C158    1.434   .     D
C157   C161    1.425   .     S
C158   C159    1.466   .     S
C158   C164    1.424   .     S
C159   C160    1.434   .     D
C159   C165    1.425   .     S
C160   C168    1.426   .     S
C161   C162    1.385   .     D
C162   C163    1.405   .     S
C163   C164    1.386   .     D
C165   C166    1.386   .     D
C166   C167    1.405   .     S
C167   C168    1.386   .     D
C169   C170    1.404   .     S
C169   C174    1.403   .     D
C169   B386    1.496   .     S
C170   C171    1.394   .     D
C171   C172    1.417   .     S
C172   C173    1.417   .     D
C172   N373    1.461   .     S
C173   C174    1.393   .     S
C175   C176    1.495   .     S
C175   N373    1.427   .     S
C176   C177    1.416   .     D
C176   C184    1.399   .     S
C177   C178    1.416   .     S
C177   C180    1.422   .     S
C178   C179    1.495   .     S
C178   C183    1.398   .     D
C179   N373    1.435   .     S
C180   C181    1.416   .     S
C180   C186    1.416   .     D
C181   C182    1.398   .     D
C181   C188    1.494   .     S
C182   C183    1.411   .     S
C184   C185    1.411   .     D
C185   C186    1.399   .     S
C186   C187    1.493   .     S
C187   N374    1.427   .     S
C188   N374    1.437   .     S
C189   C190    1.417   .     D
C189   C194    1.416   .     S
C189   N374    1.465   .     S
C190   C191    1.395   .     S
C191   C192    1.404   .     D
C192   C193    1.403   .     S
C192   B388    1.497   .     S
C193   C194    1.394   .     D
C195   C196    1.405   .     D
C195   C197    1.386   .     S
C196   C200    1.387   .     S
C197   C198    1.425   .     D
C198   C199    1.435   .     S
C198   C201    1.464   .     S
C199   C200    1.425   .     D
C199   C204    1.466   .     S
C201   C202    1.433   .     D
C201   C209    1.424   .     S
C202   C203    1.465   .     S
C202   C212    1.424   .     S
C203   C204    1.434   .     D
C203   C205    1.425   .     S
C204   C208    1.425   .     S
C205   C206    1.386   .     D
C206   C207    1.404   .     S
C207   C208    1.387   .     D
C209   C210    1.385   .     D
C210   C211    1.404   .     S
C211   C212    1.385   .     D
C213   C214    1.404   .     S
C213   C218    1.404   .     D
C213   B389    1.496   .     S
C214   C215    1.393   .     D
C215   C216    1.416   .     S
C216   C217    1.417   .     D
C216   N375    1.460   .     S
C217   C218    1.393   .     S
C219   C220    1.496   .     S
C219   N375    1.433   .     S
C220   C221    1.417   .     S
C220   C225    1.398   .     D
C221   C222    1.416   .     D
C221   C250    1.712   1_545 S
C222   C223    1.496   .     S
C222   C224    1.398   .     S
C223   N375    1.432   .     S
C224   C251    1.700   1_545 D
C225   C249    1.700   1_545 S
C226   C228    1.404   .     D
C226   C232    1.404   .     S
C226   B390    1.497   .     S
C227   C233    1.404   .     D
C227   C237    1.403   .     S
C227   B387    1.497   .     S
C228   C229    1.394   .     S
C229   C230    1.418   .     D
C230   C231    1.416   .     S
C230   N378    1.464   .     S
C231   C232    1.394   .     D
C233   C234    1.395   .     S
C234   C235    1.417   .     D
C235   C236    1.417   .     S
C235   N377    1.466   .     S
C236   C237    1.395   .     D
C238   C239    1.399   .     S
C238   C258    1.504   1_455 D
C239   C240    1.416   .     D
C239   C243    1.495   .     S
C240   C241    1.416   .     S
C240   C257    1.514   1_455 S
C241   C242    1.397   .     D
C241   C244    1.494   .     S
C242   C256    1.504   1_455 S
C243   N376    1.427   .     S
C244   N376    1.435   .     S
C245   C247    1.492   .     S
C245   N377    1.433   .     S
C246   C248    1.492   .     S
C246   N377    1.434   .     S
C247   C249    1.398   .     D
C247   C250    1.416   .     S
C248   C250    1.416   .     D
C248   C251    1.399   .     S
C249   C225    1.700   1_565 S
C250   C221    1.712   1_565 S
C251   C224    1.700   1_565 D
C252   C254    1.493   .     S
C252   N378    1.436   .     S
C253   C255    1.492   .     S
C253   N378    1.427   .     S
C254   C256    1.398   .     D
C254   C257    1.416   .     S
C255   C257    1.416   .     D
C255   C258    1.398   .     S
C256   C242    1.504   1_655 S
C257   C240    1.514   1_655 S
C258   C238    1.504   1_655 D
C259   C260    1.416   .     D
C259   C264    1.418   .     S
C259   N382    1.464   .     S
C260   C261    1.393   .     S
C261   C262    1.403   .     D
C262   C263    1.404   .     S
C262   B391    1.497   .     S
C263   C264    1.394   .     D
C265   C266    1.404   .     D
C265   C267    1.386   .     S
C266   C270    1.386   .     S
C267   C268    1.425   .     D
C268   C269    1.434   .     S
C268   C271    1.466   .     S
C269   C270    1.424   .     D
C269   C274    1.465   .     S
C271   C272    1.434   .     D
C271   C275    1.425   .     S
C272   C273    1.464   .     S
C272   C278    1.424   .     S
C273   C274    1.434   .     D
C273   C279    1.424   .     S
C274   C282    1.424   .     S
C275   C276    1.387   .     D
C276   C277    1.405   .     S
C277   C278    1.386   .     D
C279   C280    1.385   .     D
C280   C281    1.404   .     S
C281   C282    1.386   .     D
C283   C284    1.403   .     S
C283   C288    1.404   .     D
C283   B392    1.497   .     S
C284   C285    1.394   .     D
C285   C286    1.416   .     S
C286   C287    1.418   .     D
C286   N379    1.465   .     S
C287   C288    1.394   .     S
C289   C290    1.493   .     S
C289   N379    1.436   .     S
C290   C291    1.416   .     S
C290   C298    1.398   .     D
C291   C292    1.416   .     D
C291   C294    1.422   .     S
C292   C293    1.493   .     S
C292   C297    1.399   .     S
C293   N379    1.427   .     S
C294   C295    1.416   .     D
C294   C300    1.416   .     S
C295   C296    1.399   .     S
C295   C302    1.495   .     S
C296   C297    1.411   .     D
C298   C299    1.411   .     S
C299   C300    1.398   .     D
C300   C301    1.495   .     S
C301   N380    1.435   .     S
C302   N380    1.427   .     S
C303   C304    1.417   .     D
C303   C308    1.416   .     S
C303   N380    1.461   .     S
C304   C305    1.394   .     S
C305   C306    1.403   .     D
C306   C307    1.404   .     S
C306   B394    1.496   .     S
C307   C308    1.394   .     D
C309   C310    1.405   .     D
C309   C311    1.386   .     S
C310   C314    1.385   .     S
C311   C312    1.424   .     D
C312   C313    1.434   .     S
C312   C315    1.465   .     S
C313   C314    1.425   .     D
C313   C318    1.464   .     S
C315   C316    1.433   .     D
C315   C323    1.425   .     S
C316   C317    1.465   .     S
C316   C326    1.426   .     S
C317   C318    1.434   .     D
C317   C319    1.424   .     S
C318   C322    1.424   .     S
C319   C320    1.385   .     D
C320   C321    1.405   .     S
C321   C322    1.385   .     D
C323   C324    1.386   .     D
C324   C325    1.405   .     S
C325   C326    1.387   .     D
C327   C328    1.404   .     S
C327   C332    1.403   .     D
C327   B395    1.497   .     S
C328   C329    1.395   .     D
C329   C330    1.418   .     S
C330   C331    1.417   .     D
C330   N381    1.466   .     S
C331   C332    1.395   .     S
C333   C334    1.492   .     S
C333   N381    1.434   .     S
C334   C335    1.416   .     S
C334   C339    1.399   .     D
C335   C336    1.416   .     S
C335   C364    1.712   1_545 D
C336   C337    1.492   .     S
C336   C338    1.398   .     D
C337   N381    1.433   .     S
C338   C365    1.700   1_545 S
C339   C363    1.699   1_545 S
C340   C342    1.403   .     D
C340   C346    1.404   .     S
C340   B396    1.496   .     S
C341   C347    1.404   .     D
C341   C351    1.404   .     S
C341   B393    1.496   .     S
C342   C343    1.393   .     S
C343   C344    1.417   .     D
C344   C345    1.417   .     S
C344   N384    1.461   .     S
C345   C346    1.393   .     D
C347   C348    1.393   .     S
C348   C349    1.417   .     D
C349   C350    1.417   .     S
C349   N383    1.460   .     S
C350   C351    1.393   .     D
C352   C353    1.398   .     D
C352   C372    1.504   1_455 S
C353   C354    1.416   .     S
C353   C357    1.493   .     S
C354   C355    1.416   .     D
C354   C371    1.515   1_455 S
C355   C356    1.398   .     S
C355   C358    1.492   .     S
C356   C370    1.504   1_455 D
C357   N382    1.436   .     S
C358   N382    1.426   .     S
C359   C361    1.496   .     S
C359   N383    1.432   .     S
C360   C362    1.496   .     S
C360   N383    1.433   .     S
C361   C363    1.398   .     D
C361   C364    1.416   .     S
C362   C364    1.417   .     S
C362   C365    1.398   .     D
C363   C339    1.699   1_565 S
C364   C335    1.712   1_565 D
C365   C338    1.700   1_565 S
C366   C368    1.495   .     S
C366   N384    1.427   .     S
C367   C369    1.494   .     S
C367   N384    1.434   .     S
C368   C370    1.399   .     S
C368   C371    1.416   .     D
C369   C371    1.416   .     S
C369   C372    1.397   .     D
C370   C356    1.504   1_655 D
C371   C354    1.515   1_655 S
C372   C352    1.504   1_655 S
