data_249
_audit_creation_date              2023-09-08
_audit_creation_method            'Materials Studio'
_symmetry_space_group_name_H-M    'P1'
_symmetry_Int_Tables_number       1
_symmetry_cell_setting            triclinic
loop_
_symmetry_equiv_pos_as_xyz
  x,y,z
_cell_length_a                    50.3000
_cell_length_b                    50.3000
_cell_length_c                    3.9000
_cell_angle_alpha                 90.0000
_cell_angle_beta                  90.0000
_cell_angle_gamma                 90.0000
loop_
_atom_site_label
_atom_site_type_symbol
_atom_site_fract_x
_atom_site_fract_y
_atom_site_fract_z
_atom_site_U_iso_or_equiv
_atom_site_adp_type
_atom_site_occupancy
C1     C    -0.52708  -0.35897   0.25451   0.00000  Uiso   1.00
C2     C    -0.54645  -0.33961   0.25415   0.00000  Uiso   1.00
C3     C    -0.53888  -0.38332   0.37062   0.00000  Uiso   1.00
C4     C    -0.57081  -0.35140   0.37005   0.00000  Uiso   1.00
N5     N    -0.56539  -0.37790   0.42541   0.00000  Uiso   1.00
C6     C    -0.53946  -0.43218   0.49892   0.00000  Uiso   1.00
C7     C    -0.52681  -0.45679   0.61362   0.00000  Uiso   1.00
C8     C    -0.54592  -0.47591   0.61264   0.00000  Uiso   1.00
C9     C    -0.57051  -0.46324   0.49759   0.00000  Uiso   1.00
N10    N    -0.56601  -0.43668   0.44467   0.00000  Uiso   1.00
C11    C    -0.61936  -0.46381   0.36795   0.00000  Uiso   1.00
C12    C    -0.64368  -0.47560   0.25097   0.00000  Uiso   1.00
C13    C    -0.66305  -0.45623   0.25056   0.00000  Uiso   1.00
C14    C    -0.65128  -0.43189   0.36728   0.00000  Uiso   1.00
N15    N    -0.62478  -0.43731   0.42315   0.00000  Uiso   1.00
C16    C    -0.65075  -0.38303   0.49592   0.00000  Uiso   1.00
C17    C    -0.66345  -0.35842   0.61008   0.00000  Uiso   1.00
C18    C    -0.64432  -0.33931   0.61108   0.00000  Uiso   1.00
C19    C    -0.61969  -0.35197   0.49731   0.00000  Uiso   1.00
N20    N    -0.62419  -0.37852   0.44351   0.00000  Uiso   1.00
C21    C    -0.66444  -0.40728   0.43141   0.00000  Uiso   1.00
C22    C    -0.59475  -0.47695   0.43279   0.00000  Uiso   1.00
C23    C    -0.52575  -0.40793   0.43523   0.00000  Uiso   1.00
C24    C    -0.59544  -0.33826   0.43395   0.00000  Uiso   1.00
H25    H    -0.68364  -0.45917   0.16851   0.00000  Uiso   1.00
H26    H    -0.64660  -0.49620   0.16931   0.00000  Uiso   1.00
H27    H    -0.54305  -0.49660   0.69272   0.00000  Uiso   1.00
H28    H    -0.50615  -0.45966   0.69490   0.00000  Uiso   1.00
H29    H    -0.50647  -0.35603   0.17333   0.00000  Uiso   1.00
H30    H    -0.54352  -0.31900   0.17267   0.00000  Uiso   1.00
H31    H    -0.64721  -0.31864   0.69174   0.00000  Uiso   1.00
H32    H    -0.68415  -0.35554   0.68949   0.00000  Uiso   1.00
C33    C    -0.49618  -0.40794   0.43423   0.00000  Uiso   1.00
C34    C    -0.48170  -0.42857   0.27228   0.00000  Uiso   1.00
C35    C    -0.48161  -0.38735   0.59585   0.00000  Uiso   1.00
C36    C    -0.45403  -0.42860   0.27559   0.00000  Uiso   1.00
H37    H    -0.49221  -0.44445   0.13428   0.00000  Uiso   1.00
C38    C    -0.45394  -0.38745   0.59203   0.00000  Uiso   1.00
H39    H    -0.49200  -0.37142   0.73438   0.00000  Uiso   1.00
C40    C    -0.43985  -0.40804   0.43374   0.00000  Uiso   1.00
H41    H    -0.44216  -0.44415   0.15018   0.00000  Uiso   1.00
H42    H    -0.44193  -0.37199   0.71705   0.00000  Uiso   1.00
B43    B    -0.41013  -0.40796   0.43479   0.00000  Uiso   1.00
O44    O    -0.39437  -0.42839   0.30413   0.00000  Uiso   1.00
O45    O    -0.39462  -0.38739   0.56697   0.00000  Uiso   1.00
C46    C    -0.36826  -0.42035   0.35672   0.00000  Uiso   1.00
C47    C    -0.36841  -0.39521   0.51687   0.00000  Uiso   1.00
C48    C    -0.34493  -0.43405   0.26941   0.00000  Uiso   1.00
C49    C    -0.34525  -0.38130   0.60613   0.00000  Uiso   1.00
C50    C    -0.32177  -0.42014   0.35862   0.00000  Uiso   1.00
H51    H    -0.34481  -0.45353   0.14333   0.00000  Uiso   1.00
C52    C    -0.32193  -0.39499   0.51879   0.00000  Uiso   1.00
H53    H    -0.34538  -0.36181   0.73210   0.00000  Uiso   1.00
O54    O    -0.29557  -0.42794   0.30813   0.00000  Uiso   1.00
O55    O    -0.29582  -0.38694   0.57105   0.00000  Uiso   1.00
B56    B    -0.28006  -0.40736   0.44003   0.00000  Uiso   1.00
C57    C    -0.25033  -0.40725   0.44008   0.00000  Uiso   1.00
C58    C    -0.23627  -0.42781   0.28072   0.00000  Uiso   1.00
C59    C    -0.23614  -0.38670   0.59800   0.00000  Uiso   1.00
C60    C    -0.20860  -0.42787   0.27559   0.00000  Uiso   1.00
H61    H    -0.24830  -0.44325   0.15590   0.00000  Uiso   1.00
C62    C    -0.20847  -0.38670   0.60005   0.00000  Uiso   1.00
H63    H    -0.24798  -0.37117   0.72423   0.00000  Uiso   1.00
C64    C    -0.19401  -0.40729   0.43708   0.00000  Uiso   1.00
H65    H    -0.19823  -0.44377   0.13605   0.00000  Uiso   1.00
H66    H    -0.19794  -0.37082   0.73787   0.00000  Uiso   1.00
C67    C    -0.59474  -0.50652   0.43108   0.00000  Uiso   1.00
C68    C    -0.61533  -0.52112   0.59215   0.00000  Uiso   1.00
C69    C    -0.57410  -0.52097   0.26897   0.00000  Uiso   1.00
C70    C    -0.61523  -0.54879   0.58759   0.00000  Uiso   1.00
H71    H    -0.63128  -0.51075   0.73079   0.00000  Uiso   1.00
C72    C    -0.57407  -0.54865   0.27141   0.00000  Uiso   1.00
H73    H    -0.55821  -0.51044   0.13149   0.00000  Uiso   1.00
C74    C    -0.59463  -0.56285   0.42903   0.00000  Uiso   1.00
H75    H    -0.63069  -0.56082   0.71218   0.00000  Uiso   1.00
H76    H    -0.55851  -0.56049   0.14574   0.00000  Uiso   1.00
B77    B    -0.59473  -0.59257   0.42936   0.00000  Uiso   1.00
O78    O    -0.61529  -0.60809   0.56159   0.00000  Uiso   1.00
O79    O    -0.57431  -0.60833   0.29803   0.00000  Uiso   1.00
C80    C    -0.60748  -0.63429   0.51097   0.00000  Uiso   1.00
C81    C    -0.58236  -0.63444   0.35036   0.00000  Uiso   1.00
C82    C    -0.62139  -0.65746   0.60033   0.00000  Uiso   1.00
C83    C    -0.56867  -0.65776   0.26267   0.00000  Uiso   1.00
C84    C    -0.60770  -0.68078   0.51264   0.00000  Uiso   1.00
H85    H    -0.64085  -0.65734   0.72677   0.00000  Uiso   1.00
C86    C    -0.58257  -0.68092   0.35200   0.00000  Uiso   1.00
H87    H    -0.54920  -0.65788   0.13626   0.00000  Uiso   1.00
O88    O    -0.61573  -0.70689   0.56510   0.00000  Uiso   1.00
O89    O    -0.57476  -0.70713   0.30146   0.00000  Uiso   1.00
B90    B    -0.59532  -0.72264   0.43385   0.00000  Uiso   1.00
C91    C    -0.59542  -0.75237   0.43444   0.00000  Uiso   1.00
C92    C    -0.61596  -0.76653   0.59290   0.00000  Uiso   1.00
C93    C    -0.57486  -0.76646   0.27536   0.00000  Uiso   1.00
C94    C    -0.61596  -0.79421   0.59582   0.00000  Uiso   1.00
H95    H    -0.63148  -0.75466   0.71892   0.00000  Uiso   1.00
C96    C    -0.57481  -0.79413   0.27105   0.00000  Uiso   1.00
H97    H    -0.55941  -0.75446   0.15005   0.00000  Uiso   1.00
C98    C    -0.59538  -0.80870   0.43305   0.00000  Uiso   1.00
H99    H    -0.63183  -0.80471   0.73413   0.00000  Uiso   1.00
H100   H    -0.55891  -0.80453   0.13172   0.00000  Uiso   1.00
C101   C    -0.69401  -0.40730   0.42921   0.00000  Uiso   1.00
C102   C    -0.70847  -0.38670   0.26644   0.00000  Uiso   1.00
C103   C    -0.70860  -0.42788   0.59049   0.00000  Uiso   1.00
C104   C    -0.73614  -0.38669   0.26851   0.00000  Uiso   1.00
H105   H    -0.69794  -0.37081   0.12879   0.00000  Uiso   1.00
C106   C    -0.73627  -0.42782   0.58544   0.00000  Uiso   1.00
H107   H    -0.69823  -0.44380   0.72979   0.00000  Uiso   1.00
C108   C    -0.75034  -0.40725   0.42626   0.00000  Uiso   1.00
H109   H    -0.74799  -0.37116   0.14241   0.00000  Uiso   1.00
H110   H    -0.74830  -0.44327   0.71013   0.00000  Uiso   1.00
B111   B    -0.78006  -0.40736   0.42638   0.00000  Uiso   1.00
O112   O    -0.79582  -0.38693   0.29541   0.00000  Uiso   1.00
O113   O    -0.79557  -0.42794   0.55823   0.00000  Uiso   1.00
C114   C    -0.82193  -0.39498   0.34764   0.00000  Uiso   1.00
C115   C    -0.82178  -0.42013   0.50779   0.00000  Uiso   1.00
C116   C    -0.84526  -0.38129   0.26036   0.00000  Uiso   1.00
C117   C    -0.84494  -0.43404   0.59697   0.00000  Uiso   1.00
C118   C    -0.86841  -0.39520   0.34959   0.00000  Uiso   1.00
H119   H    -0.84538  -0.36180   0.13441   0.00000  Uiso   1.00
C120   C    -0.86826  -0.42034   0.50969   0.00000  Uiso   1.00
H121   H    -0.84481  -0.45352   0.72300   0.00000  Uiso   1.00
O122   O    -0.89462  -0.38738   0.29949   0.00000  Uiso   1.00
O123   O    -0.89437  -0.42839   0.56223   0.00000  Uiso   1.00
B124   B    -0.91013  -0.40795   0.43159   0.00000  Uiso   1.00
C125   C    -0.93985  -0.40804   0.43262   0.00000  Uiso   1.00
C126   C    -0.95394  -0.38744   0.27446   0.00000  Uiso   1.00
C127   C    -0.95403  -0.42860   0.59056   0.00000  Uiso   1.00
C128   C    -0.98161  -0.38734   0.27064   0.00000  Uiso   1.00
H129   H    -0.94193  -0.37197   0.14956   0.00000  Uiso   1.00
C130   C    -0.98170  -0.42857   0.59382   0.00000  Uiso   1.00
H131   H    -0.94216  -0.44416   0.71587   0.00000  Uiso   1.00
C132   C    -0.99618  -0.40794   0.43205   0.00000  Uiso   1.00
H133   H    -0.99201  -0.37140   0.13228   0.00000  Uiso   1.00
H134   H    -0.99221  -0.44447   0.73162   0.00000  Uiso   1.00
C135   C    -0.59543  -0.30870   0.43251   0.00000  Uiso   1.00
C136   C    -0.57487  -0.29412   0.59454   0.00000  Uiso   1.00
C137   C    -0.61603  -0.29422   0.26974   0.00000  Uiso   1.00
C138   C    -0.57495  -0.26645   0.59026   0.00000  Uiso   1.00
H139   H    -0.55897  -0.30451   0.73385   0.00000  Uiso   1.00
C140   C    -0.61605  -0.26655   0.27272   0.00000  Uiso   1.00
H141   H    -0.63189  -0.30474   0.13141   0.00000  Uiso   1.00
C142   C    -0.59552  -0.25237   0.43123   0.00000  Uiso   1.00
H143   H    -0.55952  -0.25443   0.71559   0.00000  Uiso   1.00
H144   H    -0.63158  -0.25469   0.14669   0.00000  Uiso   1.00
B145   B    -0.59543  -0.22265   0.43213   0.00000  Uiso   1.00
O146   O    -0.57488  -0.20714   0.56464   0.00000  Uiso   1.00
O147   O    -0.61585  -0.20689   0.30108   0.00000  Uiso   1.00
C148   C    -0.58269  -0.18093   0.51444   0.00000  Uiso   1.00
C149   C    -0.60782  -0.18078   0.35382   0.00000  Uiso   1.00
C150   C    -0.56879  -0.15777   0.60397   0.00000  Uiso   1.00
C151   C    -0.62151  -0.15745   0.26638   0.00000  Uiso   1.00
C152   C    -0.58248  -0.13444   0.51649   0.00000  Uiso   1.00
H153   H    -0.54932  -0.15789   0.73036   0.00000  Uiso   1.00
C154   C    -0.60761  -0.13429   0.35592   0.00000  Uiso   1.00
H155   H    -0.64098  -0.15733   0.13995   0.00000  Uiso   1.00
O156   O    -0.57444  -0.10833   0.56900   0.00000  Uiso   1.00
O157   O    -0.61541  -0.10809   0.30549   0.00000  Uiso   1.00
B158   B    -0.59485  -0.09258   0.43777   0.00000  Uiso   1.00
C159   C    -0.59474  -0.06285   0.43813   0.00000  Uiso   1.00
C160   C    -0.57417  -0.04867   0.59569   0.00000  Uiso   1.00
C161   C    -0.61533  -0.04878   0.27951   0.00000  Uiso   1.00
C162   C    -0.57418  -0.02099   0.59805   0.00000  Uiso   1.00
H163   H    -0.55862  -0.06051   0.72138   0.00000  Uiso   1.00
C164   C    -0.61541  -0.02111   0.27487   0.00000  Uiso   1.00
H165   H    -0.63080  -0.06081   0.15495   0.00000  Uiso   1.00
C166   C    -0.59481  -0.00652   0.43590   0.00000  Uiso   1.00
H167   H    -0.55828  -0.01047   0.73549   0.00000  Uiso   1.00
H168   H    -0.63135  -0.01073   0.13618   0.00000  Uiso   1.00
C169   C    -0.16444  -0.40727   0.43482   0.00000  Uiso   1.00
C170   C    -0.15075  -0.38302   0.37067   0.00000  Uiso   1.00
C171   C    -0.15128  -0.43189   0.49862   0.00000  Uiso   1.00
C172   C    -0.16345  -0.35840   0.25687   0.00000  Uiso   1.00
N173   N    -0.12419  -0.37852   0.42323   0.00000  Uiso   1.00
C174   C    -0.16305  -0.45624   0.61500   0.00000  Uiso   1.00
N175   N    -0.12479  -0.43731   0.44259   0.00000  Uiso   1.00
C176   C    -0.14433  -0.33928   0.25631   0.00000  Uiso   1.00
H177   H    -0.18414  -0.35551   0.17736   0.00000  Uiso   1.00
C178   C    -0.11970  -0.35196   0.36992   0.00000  Uiso   1.00
C179   C    -0.14369  -0.47561   0.61421   0.00000  Uiso   1.00
H180   H    -0.18364  -0.45918   0.69715   0.00000  Uiso   1.00
C181   C    -0.11936  -0.46381   0.49736   0.00000  Uiso   1.00
H182   H    -0.14722  -0.31860   0.17608   0.00000  Uiso   1.00
C183   C    -0.09544  -0.33826   0.43346   0.00000  Uiso   1.00
H184   H    -0.14661  -0.49622   0.69549   0.00000  Uiso   1.00
C185   C    -0.09475  -0.47695   0.43233   0.00000  Uiso   1.00
C186   C    -0.07081  -0.35141   0.49718   0.00000  Uiso   1.00
C187   C    -0.07052  -0.46324   0.36774   0.00000  Uiso   1.00
C188   C    -0.04646  -0.33962   0.61326   0.00000  Uiso   1.00
N189   N    -0.06540  -0.37790   0.44136   0.00000  Uiso   1.00
C190   C    -0.04592  -0.47590   0.25256   0.00000  Uiso   1.00
N191   N    -0.06601  -0.43668   0.42110   0.00000  Uiso   1.00
C192   C    -0.02708  -0.35898   0.61249   0.00000  Uiso   1.00
H193   H    -0.04352  -0.31903   0.69518   0.00000  Uiso   1.00
C194   C    -0.03889  -0.38332   0.49600   0.00000  Uiso   1.00
C195   C    -0.02681  -0.45678   0.25200   0.00000  Uiso   1.00
H196   H    -0.04305  -0.49657   0.17208   0.00000  Uiso   1.00
C197   C    -0.03947  -0.43217   0.36700   0.00000  Uiso   1.00
H198   H    -0.00647  -0.35605   0.69359   0.00000  Uiso   1.00
C199   C    -0.02575  -0.40793   0.43105   0.00000  Uiso   1.00
H200   H    -0.00615  -0.45964   0.17085   0.00000  Uiso   1.00
C201   C    -0.59540  -0.83826   0.43169   0.00000  Uiso   1.00
C202   C    -0.57078  -0.85142   0.49564   0.00000  Uiso   1.00
C203   C    -0.61966  -0.85196   0.36844   0.00000  Uiso   1.00
C204   C    -0.54642  -0.83963   0.61151   0.00000  Uiso   1.00
N205   N    -0.56538  -0.87792   0.44046   0.00000  Uiso   1.00
C206   C    -0.64429  -0.83928   0.25464   0.00000  Uiso   1.00
N207   N    -0.62417  -0.87851   0.42241   0.00000  Uiso   1.00
C208   C    -0.52706  -0.85900   0.61136   0.00000  Uiso   1.00
H209   H    -0.54347  -0.81902   0.69290   0.00000  Uiso   1.00
C210   C    -0.53887  -0.88335   0.49533   0.00000  Uiso   1.00
C211   C    -0.66342  -0.85839   0.25585   0.00000  Uiso   1.00
H212   H    -0.64717  -0.81862   0.17385   0.00000  Uiso   1.00
C213   C    -0.65074  -0.88300   0.37013   0.00000  Uiso   1.00
H214   H    -0.50645  -0.85608   0.69259   0.00000  Uiso   1.00
C215   C    -0.52575  -0.90797   0.43092   0.00000  Uiso   1.00
H216   H    -0.68412  -0.85549   0.17654   0.00000  Uiso   1.00
C217   C    -0.66444  -0.90724   0.43479   0.00000  Uiso   1.00
C218   C    -0.53948  -0.93222   0.36741   0.00000  Uiso   1.00
C219   C    -0.65129  -0.93185   0.49910   0.00000  Uiso   1.00
C220   C    -0.52684  -0.95684   0.25290   0.00000  Uiso   1.00
N221   N    -0.56603  -0.93671   0.42177   0.00000  Uiso   1.00
C222   C    -0.66308  -0.95619   0.61600   0.00000  Uiso   1.00
N223   N    -0.62480  -0.93729   0.44331   0.00000  Uiso   1.00
C224   C    -0.54596  -0.97596   0.25413   0.00000  Uiso   1.00
H225   H    -0.50619  -0.95972   0.17156   0.00000  Uiso   1.00
C226   C    -0.57055  -0.96327   0.36910   0.00000  Uiso   1.00
C227   C    -0.64372  -0.97556   0.61579   0.00000  Uiso   1.00
H228   H    -0.68368  -0.95910   0.69800   0.00000  Uiso   1.00
C229   C    -0.61939  -0.96379   0.49877   0.00000  Uiso   1.00
H230   H    -0.54310  -0.99665   0.17428   0.00000  Uiso   1.00
C231   C    -0.59479  -0.97695   0.43400   0.00000  Uiso   1.00
H232   H    -0.64666  -0.99616   0.69769   0.00000  Uiso   1.00
C233   C    -0.09474  -0.50652   0.43369   0.00000  Uiso   1.00
C234   C    -0.11533  -0.52111   0.27241   0.00000  Uiso   1.00
C235   C    -0.07410  -0.52098   0.59562   0.00000  Uiso   1.00
C236   C    -0.11522  -0.54878   0.27654   0.00000  Uiso   1.00
H237   H    -0.13128  -0.51073   0.13395   0.00000  Uiso   1.00
C238   C    -0.07406  -0.54866   0.59272   0.00000  Uiso   1.00
H239   H    -0.05821  -0.51046   0.73328   0.00000  Uiso   1.00
C240   C    -0.09462  -0.56285   0.43487   0.00000  Uiso   1.00
H241   H    -0.13068  -0.56081   0.15179   0.00000  Uiso   1.00
H242   H    -0.05850  -0.56050   0.71823   0.00000  Uiso   1.00
B243   B    -0.09471  -0.59257   0.43410   0.00000  Uiso   1.00
O244   O    -0.11528  -0.60808   0.30169   0.00000  Uiso   1.00
O245   O    -0.07430  -0.60834   0.56523   0.00000  Uiso   1.00
C246   C    -0.10748  -0.63428   0.35205   0.00000  Uiso   1.00
C247   C    -0.08235  -0.63444   0.51264   0.00000  Uiso   1.00
C248   C    -0.12138  -0.65744   0.26259   0.00000  Uiso   1.00
C249   C    -0.06867  -0.65778   0.60021   0.00000  Uiso   1.00
C250   C    -0.10770  -0.68077   0.35015   0.00000  Uiso   1.00
H251   H    -0.14085  -0.65731   0.13618   0.00000  Uiso   1.00
C252   C    -0.08258  -0.68093   0.51077   0.00000  Uiso   1.00
H253   H    -0.04920  -0.65790   0.72664   0.00000  Uiso   1.00
O254   O    -0.11575  -0.70688   0.29769   0.00000  Uiso   1.00
O255   O    -0.07478  -0.70714   0.56131   0.00000  Uiso   1.00
B256   B    -0.09535  -0.72264   0.42900   0.00000  Uiso   1.00
C257   C    -0.09546  -0.75237   0.42869   0.00000  Uiso   1.00
C258   C    -0.11601  -0.76655   0.27049   0.00000  Uiso   1.00
C259   C    -0.07491  -0.76645   0.58800   0.00000  Uiso   1.00
C260   C    -0.11601  -0.79422   0.26808   0.00000  Uiso   1.00
H261   H    -0.13153  -0.75469   0.14423   0.00000  Uiso   1.00
C262   C    -0.07485  -0.79411   0.59285   0.00000  Uiso   1.00
H263   H    -0.05946  -0.75442   0.71310   0.00000  Uiso   1.00
C264   C    -0.09542  -0.80869   0.43105   0.00000  Uiso   1.00
H265   H    -0.13187  -0.80474   0.13000   0.00000  Uiso   1.00
H266   H    -0.05896  -0.80450   0.73238   0.00000  Uiso   1.00
C267   C    -0.09542  -0.30869   0.43533   0.00000  Uiso   1.00
C268   C    -0.11601  -0.29422   0.59831   0.00000  Uiso   1.00
C269   C    -0.07485  -0.29411   0.27354   0.00000  Uiso   1.00
C270   C    -0.11601  -0.26655   0.59590   0.00000  Uiso   1.00
H271   H    -0.13187  -0.30474   0.73638   0.00000  Uiso   1.00
C272   C    -0.07491  -0.26644   0.27838   0.00000  Uiso   1.00
H273   H    -0.05896  -0.30449   0.13403   0.00000  Uiso   1.00
C274   C    -0.09546  -0.25237   0.43769   0.00000  Uiso   1.00
H275   H    -0.13153  -0.25469   0.72213   0.00000  Uiso   1.00
H276   H    -0.05947  -0.25442   0.15328   0.00000  Uiso   1.00
B277   B    -0.09535  -0.22264   0.43738   0.00000  Uiso   1.00
O278   O    -0.11576  -0.20688   0.56867   0.00000  Uiso   1.00
O279   O    -0.07478  -0.20714   0.30510   0.00000  Uiso   1.00
C280   C    -0.10771  -0.18077   0.51623   0.00000  Uiso   1.00
C281   C    -0.08258  -0.18093   0.35564   0.00000  Uiso   1.00
C282   C    -0.12139  -0.15744   0.60382   0.00000  Uiso   1.00
C283   C    -0.06867  -0.15777   0.26621   0.00000  Uiso   1.00
C284   C    -0.10748  -0.13428   0.51436   0.00000  Uiso   1.00
H285   H    -0.14086  -0.15732   0.73021   0.00000  Uiso   1.00
C286   C    -0.08235  -0.13444   0.35377   0.00000  Uiso   1.00
H287   H    -0.04920  -0.15790   0.13979   0.00000  Uiso   1.00
O288   O    -0.11528  -0.10808   0.56472   0.00000  Uiso   1.00
O289   O    -0.07431  -0.10833   0.30121   0.00000  Uiso   1.00
B290   B    -0.09472  -0.09257   0.43231   0.00000  Uiso   1.00
C291   C    -0.09463  -0.06285   0.43154   0.00000  Uiso   1.00
C292   C    -0.11523  -0.04878   0.58987   0.00000  Uiso   1.00
C293   C    -0.07407  -0.04866   0.27369   0.00000  Uiso   1.00
C294   C    -0.11534  -0.02111   0.59397   0.00000  Uiso   1.00
H295   H    -0.13069  -0.06081   0.71462   0.00000  Uiso   1.00
C296   C    -0.07411  -0.02098   0.27079   0.00000  Uiso   1.00
H297   H    -0.05851  -0.06050   0.14818   0.00000  Uiso   1.00
C298   C    -0.09475  -0.00652   0.43272   0.00000  Uiso   1.00
H299   H    -0.13129  -0.01073   0.73244   0.00000  Uiso   1.00
H300   H    -0.05822  -0.01046   0.13313   0.00000  Uiso   1.00
C301   C    -0.09544  -0.83826   0.43290   0.00000  Uiso   1.00
C302   C    -0.11970  -0.85196   0.49646   0.00000  Uiso   1.00
C303   C    -0.07081  -0.85141   0.36921   0.00000  Uiso   1.00
C304   C    -0.14433  -0.83928   0.61008   0.00000  Uiso   1.00
N305   N    -0.12419  -0.87851   0.44313   0.00000  Uiso   1.00
C306   C    -0.04646  -0.83962   0.25315   0.00000  Uiso   1.00
N307   N    -0.06540  -0.87790   0.42500   0.00000  Uiso   1.00
C308   C    -0.16345  -0.85840   0.60951   0.00000  Uiso   1.00
H309   H    -0.14721  -0.81860   0.69031   0.00000  Uiso   1.00
C310   C    -0.15076  -0.88301   0.49569   0.00000  Uiso   1.00
C311   C    -0.02709  -0.85898   0.25395   0.00000  Uiso   1.00
H312   H    -0.04352  -0.81903   0.17123   0.00000  Uiso   1.00
C313   C    -0.03889  -0.88332   0.37041   0.00000  Uiso   1.00
H314   H    -0.18414  -0.85551   0.68903   0.00000  Uiso   1.00
C315   C    -0.16444  -0.90727   0.43156   0.00000  Uiso   1.00
H316   H    -0.00647  -0.85605   0.17285   0.00000  Uiso   1.00
C317   C    -0.02575  -0.90793   0.43536   0.00000  Uiso   1.00
C318   C    -0.15128  -0.93189   0.36779   0.00000  Uiso   1.00
C319   C    -0.03947  -0.93217   0.49938   0.00000  Uiso   1.00
C320   C    -0.16306  -0.95624   0.25138   0.00000  Uiso   1.00
N321   N    -0.12479  -0.93730   0.42382   0.00000  Uiso   1.00
C322   C    -0.02682  -0.95678   0.61441   0.00000  Uiso   1.00
N323   N    -0.06602  -0.93668   0.44531   0.00000  Uiso   1.00
C324   C    -0.14370  -0.97561   0.25221   0.00000  Uiso   1.00
H325   H    -0.18365  -0.95917   0.16926   0.00000  Uiso   1.00
C326   C    -0.11937  -0.96381   0.36903   0.00000  Uiso   1.00
C327   C    -0.04593  -0.97590   0.61385   0.00000  Uiso   1.00
H328   H    -0.00616  -0.95964   0.69556   0.00000  Uiso   1.00
C329   C    -0.07052  -0.96324   0.49867   0.00000  Uiso   1.00
H330   H    -0.14662  -0.99622   0.17092   0.00000  Uiso   1.00
C331   C    -0.09476  -0.97695   0.43408   0.00000  Uiso   1.00
H332   H    -0.04306  -0.99657   0.69433   0.00000  Uiso   1.00
C333   C    -0.49618  -0.90799   0.43192   0.00000  Uiso   1.00
C334   C    -0.48171  -0.92862   0.59397   0.00000  Uiso   1.00
C335   C    -0.48160  -0.88742   0.27023   0.00000  Uiso   1.00
C336   C    -0.45404  -0.92866   0.59074   0.00000  Uiso   1.00
H337   H    -0.49223  -0.94450   0.73203   0.00000  Uiso   1.00
C338   C    -0.45394  -0.88752   0.27415   0.00000  Uiso   1.00
H339   H    -0.49199  -0.87148   0.13159   0.00000  Uiso   1.00
C340   C    -0.43986  -0.90811   0.43256   0.00000  Uiso   1.00
H341   H    -0.44219  -0.94422   0.71628   0.00000  Uiso   1.00
H342   H    -0.44192  -0.87207   0.14913   0.00000  Uiso   1.00
B343   B    -0.41013  -0.90802   0.43156   0.00000  Uiso   1.00
O344   O    -0.39437  -0.92845   0.56226   0.00000  Uiso   1.00
O345   O    -0.39463  -0.88745   0.29938   0.00000  Uiso   1.00
C346   C    -0.36826  -0.92039   0.50969   0.00000  Uiso   1.00
C347   C    -0.36842  -0.89525   0.34951   0.00000  Uiso   1.00
C348   C    -0.34493  -0.93408   0.59700   0.00000  Uiso   1.00
C349   C    -0.34527  -0.88133   0.26028   0.00000  Uiso   1.00
C350   C    -0.32177  -0.92016   0.50782   0.00000  Uiso   1.00
H351   H    -0.34480  -0.95356   0.72310   0.00000  Uiso   1.00
C352   C    -0.32194  -0.89502   0.34762   0.00000  Uiso   1.00
H353   H    -0.34540  -0.86184   0.13428   0.00000  Uiso   1.00
O354   O    -0.29557  -0.92795   0.55828   0.00000  Uiso   1.00
O355   O    -0.29583  -0.88695   0.29536   0.00000  Uiso   1.00
B356   B    -0.28006  -0.90737   0.42641   0.00000  Uiso   1.00
C357   C    -0.25034  -0.90724   0.42631   0.00000  Uiso   1.00
C358   C    -0.23627  -0.92780   0.58567   0.00000  Uiso   1.00
C359   C    -0.23615  -0.88669   0.26841   0.00000  Uiso   1.00
C360   C    -0.20861  -0.92787   0.59082   0.00000  Uiso   1.00
H361   H    -0.24831  -0.94325   0.71049   0.00000  Uiso   1.00
C362   C    -0.20847  -0.88670   0.26633   0.00000  Uiso   1.00
H363   H    -0.24799  -0.87116   0.14215   0.00000  Uiso   1.00
C364   C    -0.19401  -0.90729   0.42933   0.00000  Uiso   1.00
H365   H    -0.19823  -0.94377   0.73036   0.00000  Uiso   1.00
H366   H    -0.19794  -0.87082   0.12854   0.00000  Uiso   1.00
C367   C    -0.69401  -0.90724   0.43705   0.00000  Uiso   1.00
C368   C    -0.70862  -0.92783   0.27585   0.00000  Uiso   1.00
C369   C    -0.70846  -0.88663   0.59974   0.00000  Uiso   1.00
C370   C    -0.73628  -0.92775   0.28100   0.00000  Uiso   1.00
H371   H    -0.69825  -0.94375   0.13659   0.00000  Uiso   1.00
C372   C    -0.73614  -0.88662   0.59777   0.00000  Uiso   1.00
H373   H    -0.69793  -0.87075   0.73726   0.00000  Uiso   1.00
C374   C    -0.75034  -0.90718   0.44013   0.00000  Uiso   1.00
H375   H    -0.74832  -0.94320   0.15638   0.00000  Uiso   1.00
H376   H    -0.74797  -0.87108   0.72387   0.00000  Uiso   1.00
B377   B    -0.78006  -0.90730   0.44005   0.00000  Uiso   1.00
O378   O    -0.79557  -0.92788   0.30823   0.00000  Uiso   1.00
O379   O    -0.79583  -0.88688   0.57103   0.00000  Uiso   1.00
C380   C    -0.82177  -0.92009   0.35869   0.00000  Uiso   1.00
C381   C    -0.82194  -0.89494   0.51882   0.00000  Uiso   1.00
C382   C    -0.84493  -0.93401   0.26951   0.00000  Uiso   1.00
C383   C    -0.84527  -0.88125   0.60610   0.00000  Uiso   1.00
C384   C    -0.86826  -0.92032   0.35679   0.00000  Uiso   1.00
H385   H    -0.84480  -0.95349   0.14349   0.00000  Uiso   1.00
C386   C    -0.86842  -0.89517   0.51690   0.00000  Uiso   1.00
H387   H    -0.84540  -0.86177   0.73205   0.00000  Uiso   1.00
O388   O    -0.89437  -0.92837   0.30423   0.00000  Uiso   1.00
O389   O    -0.89463  -0.88737   0.56700   0.00000  Uiso   1.00
B390   B    -0.91013  -0.90795   0.43487   0.00000  Uiso   1.00
C391   C    -0.93986  -0.90804   0.43382   0.00000  Uiso   1.00
C392   C    -0.95403  -0.92860   0.27587   0.00000  Uiso   1.00
C393   C    -0.95394  -0.88744   0.59195   0.00000  Uiso   1.00
C394   C    -0.98170  -0.92858   0.27262   0.00000  Uiso   1.00
H395   H    -0.94217  -0.94416   0.15056   0.00000  Uiso   1.00
C396   C    -0.98161  -0.88735   0.59579   0.00000  Uiso   1.00
H397   H    -0.94193  -0.87198   0.71682   0.00000  Uiso   1.00
C398   C    -0.99618  -0.90794   0.43436   0.00000  Uiso   1.00
H399   H    -0.99221  -0.94447   0.13482   0.00000  Uiso   1.00
H400   H    -0.99201  -0.87140   0.73413   0.00000  Uiso   1.00
H401   H    -0.57911  -0.39162   0.51295   0.00000  Uiso   1.00
H402   H    -0.61108  -0.42359   0.51133   0.00000  Uiso   1.00
H403   H    -0.07912  -0.39161   0.35362   0.00000  Uiso   1.00
H404   H    -0.11108  -0.42358   0.35459   0.00000  Uiso   1.00
H405   H    -0.57911  -0.89163   0.35297   0.00000  Uiso   1.00
H406   H    -0.61109  -0.92359   0.35505   0.00000  Uiso   1.00
H407   H    -0.07912  -0.89161   0.51274   0.00000  Uiso   1.00
H408   H    -0.11109  -0.92358   0.51182   0.00000  Uiso   1.00
loop_
_geom_bond_atom_site_label_1
_geom_bond_atom_site_label_2
_geom_bond_distance
_geom_bond_site_symmetry_2
_ccdc_geom_bond_type
C1     C2      1.378   .     S
C1     C3      1.434   .     D
C1     H29     1.094   .     S
C2     C4      1.434   .     D
C2     H30     1.094   .     S
C3     N5      1.378   .     S
C3     C23     1.425   .     S
C4     N5      1.378   .     S
C4     C24     1.426   .     S
N5     H401    1.034   .     S
C6     C7      1.462   .     S
C6     N10     1.371   .     S
C6     C23     1.423   .     D
C7     C8      1.360   .     D
C7     H28     1.096   .     S
C8     C9      1.462   .     S
C8     H27     1.096   .     S
C9     N10     1.371   .     D
C9     C22     1.423   .     S
C11    C12     1.434   .     S
C11    N15     1.377   .     S
C11    C22     1.426   .     D
C12    C13     1.378   .     D
C12    H26     1.094   .     S
C13    C14     1.434   .     S
C13    H25     1.094   .     S
C14    N15     1.378   .     S
C14    C21     1.426   .     D
N15    H402    1.034   .     S
C16    C17     1.462   .     S
C16    N20     1.370   .     D
C16    C21     1.423   .     S
C17    C18     1.360   .     D
C17    H32     1.096   .     S
C18    C19     1.462   .     S
C18    H31     1.096   .     S
C19    N20     1.371   .     S
C19    C24     1.423   .     D
C21    C101    1.487   .     S
C22    C67     1.487   .     S
C23    C33     1.487   .     S
C24    C135    1.487   .     S
C33    C34     1.416   .     D
C33    C35     1.417   .     S
C34    C36     1.392   .     S
C34    H37     1.099   .     S
C35    C38     1.392   .     D
C35    H39     1.099   .     S
C36    C40     1.400   .     D
C36    H41     1.099   .     S
C38    C40     1.399   .     S
C38    H42     1.099   .     S
C40    B43     1.495   .     S
B43    O44     1.394   .     S
B43    O45     1.395   .     S
O44    C46     1.389   .     S
O45    C47     1.390   .     S
C46    C47     1.410   .     D
C46    C48     1.403   .     S
C47    C49     1.403   .     S
C48    C50     1.403   .     D
C48    H51     1.096   .     S
C49    C52     1.402   .     D
C49    H53     1.097   .     S
C50    C52     1.411   .     S
C50    O54     1.389   .     S
C52    O55     1.389   .     S
O54    B56     1.395   .     S
O55    B56     1.394   .     S
B56    C57     1.495   .     S
C57    C58     1.399   .     S
C57    C59     1.399   .     D
C58    C60     1.392   .     D
C58    H61     1.098   .     S
C59    C62     1.392   .     S
C59    H63     1.099   .     S
C60    C64     1.417   .     S
C60    H65     1.099   .     S
C62    C64     1.416   .     D
C62    H66     1.099   .     S
C64    C169    1.487   .     S
C67    C68     1.417   .     D
C67    C69     1.416   .     S
C68    C70     1.392   .     S
C68    H71     1.099   .     S
C69    C72     1.392   .     D
C69    H73     1.099   .     S
C70    C74     1.399   .     D
C70    H75     1.099   .     S
C72    C74     1.399   .     S
C72    H76     1.099   .     S
C74    B77     1.495   .     S
B77    O78     1.395   .     S
B77    O79     1.395   .     S
O78    C80     1.389   .     S
O79    C81     1.389   .     S
C80    C81     1.410   .     D
C80    C82     1.403   .     S
C81    C83     1.403   .     S
C82    C84     1.403   .     D
C82    H85     1.096   .     S
C83    C86     1.403   .     D
C83    H87     1.096   .     S
C84    C86     1.411   .     S
C84    O88     1.389   .     S
C86    O89     1.390   .     S
O88    B90     1.394   .     S
O89    B90     1.395   .     S
B90    C91     1.495   .     S
C91    C92     1.399   .     S
C91    C93     1.399   .     D
C92    C94     1.392   .     D
C92    H95     1.099   .     S
C93    C96     1.392   .     S
C93    H97     1.099   .     S
C94    C98     1.416   .     S
C94    H99     1.099   .     S
C96    C98     1.417   .     D
C96    H100    1.099   .     S
C98    C201    1.487   .     S
C101   C102    1.416   .     D
C101   C103    1.416   .     S
C102   C104    1.392   .     S
C102   H105    1.099   .     S
C103   C106    1.392   .     D
C103   H107    1.099   .     S
C104   C108    1.399   .     D
C104   H109    1.099   .     S
C106   C108    1.399   .     S
C106   H110    1.098   .     S
C108   B111    1.495   .     S
B111   O112    1.395   .     S
B111   O113    1.395   .     S
O112   C114    1.389   .     S
O113   C115    1.390   .     S
C114   C115    1.411   .     D
C114   C116    1.403   .     S
C115   C117    1.403   .     S
C116   C118    1.402   .     D
C116   H119    1.097   .     S
C117   C120    1.402   .     D
C117   H121    1.096   .     S
C118   C120    1.410   .     S
C118   O122    1.390   .     S
C120   O123    1.390   .     S
O122   B124    1.394   .     S
O123   B124    1.395   .     S
B124   C125    1.495   .     S
C125   C126    1.399   .     D
C125   C127    1.399   .     S
C126   C128    1.392   .     S
C126   H129    1.099   .     S
C127   C130    1.392   .     D
C127   H131    1.099   .     S
C128   C132    1.417   .     D
C128   H133    1.099   .     S
C130   C132    1.416   .     S
C130   H134    1.099   .     S
C132   C199    1.487   1_455 S
C135   C136    1.417   .     D
C135   C137    1.417   .     S
C136   C138    1.392   .     S
C136   H139    1.099   .     S
C137   C140    1.392   .     D
C137   H141    1.099   .     S
C138   C142    1.399   .     D
C138   H143    1.099   .     S
C140   C142    1.399   .     S
C140   H144    1.099   .     S
C142   B145    1.495   .     S
B145   O146    1.394   .     S
B145   O147    1.394   .     S
O146   C148    1.390   .     S
O147   C149    1.389   .     S
C148   C149    1.411   .     D
C148   C150    1.403   .     S
C149   C151    1.403   .     S
C150   C152    1.403   .     D
C150   H153    1.096   .     S
C151   C154    1.403   .     D
C151   H155    1.096   .     S
C152   C154    1.411   .     S
C152   O156    1.389   .     S
C154   O157    1.389   .     S
O156   B158    1.394   .     S
O157   B158    1.394   .     S
B158   C159    1.495   .     S
C159   C160    1.399   .     S
C159   C161    1.399   .     D
C160   C162    1.392   .     D
C160   H163    1.099   .     S
C161   C164    1.392   .     S
C161   H165    1.099   .     S
C162   C166    1.416   .     S
C162   H167    1.099   .     S
C164   C166    1.417   .     D
C164   H168    1.099   .     S
C166   C231    1.487   1_565 S
C169   C170    1.423   .     D
C169   C171    1.426   .     S
C170   C172    1.462   .     S
C170   N173    1.370   .     S
C171   C174    1.434   .     D
C171   N175    1.377   .     S
C172   C176    1.360   .     D
C172   H177    1.096   .     S
N173   C178    1.371   .     D
C174   C179    1.378   .     S
C174   H180    1.094   .     S
N175   C181    1.377   .     S
N175   H404    1.035   .     S
C176   C178    1.462   .     S
C176   H182    1.096   .     S
C178   C183    1.423   .     S
C179   C181    1.434   .     D
C179   H184    1.094   .     S
C181   C185    1.426   .     S
C183   C186    1.426   .     D
C183   C267    1.487   .     S
C185   C187    1.423   .     D
C185   C233    1.487   .     S
C186   C188    1.434   .     S
C186   N189    1.377   .     S
C187   C190    1.462   .     S
C187   N191    1.371   .     S
C188   C192    1.378   .     D
C188   H193    1.094   .     S
N189   C194    1.378   .     S
N189   H403    1.034   .     S
C190   C195    1.360   .     D
C190   H196    1.096   .     S
N191   C197    1.370   .     D
C192   C194    1.435   .     S
C192   H198    1.094   .     S
C194   C199    1.426   .     D
C195   C197    1.463   .     S
C195   H200    1.096   .     S
C197   C199    1.423   .     S
C199   C132    1.487   1_655 S
C201   C202    1.426   .     D
C201   C203    1.423   .     S
C202   C204    1.434   .     S
C202   N205    1.377   .     S
C203   C206    1.462   .     S
C203   N207    1.371   .     D
C204   C208    1.378   .     D
C204   H209    1.094   .     S
N205   C210    1.378   .     S
N205   H405    1.034   .     S
C206   C211    1.360   .     D
C206   H212    1.096   .     S
N207   C213    1.371   .     S
C208   C210    1.435   .     S
C208   H214    1.094   .     S
C210   C215    1.426   .     D
C211   C213    1.462   .     S
C211   H216    1.096   .     S
C213   C217    1.423   .     D
C215   C218    1.423   .     S
C215   C333    1.487   .     S
C217   C219    1.426   .     S
C217   C367    1.487   .     S
C218   C220    1.462   .     S
C218   N221    1.371   .     D
C219   C222    1.435   .     D
C219   N223    1.378   .     S
C220   C224    1.360   .     D
C220   H225    1.096   .     S
N221   C226    1.371   .     S
C222   C227    1.378   .     S
C222   H228    1.094   .     S
N223   C229    1.378   .     S
N223   H406    1.034   .     S
C224   C226    1.462   .     S
C224   H230    1.096   .     S
C226   C231    1.423   .     D
C227   C229    1.434   .     D
C227   H232    1.094   .     S
C229   C231    1.426   .     S
C231   C166    1.487   1_545 S
C233   C234    1.417   .     D
C233   C235    1.416   .     S
C234   C236    1.392   .     S
C234   H237    1.099   .     S
C235   C238    1.392   .     D
C235   H239    1.099   .     S
C236   C240    1.399   .     D
C236   H241    1.099   .     S
C238   C240    1.399   .     S
C238   H242    1.099   .     S
C240   B243    1.495   .     S
B243   O244    1.395   .     S
B243   O245    1.395   .     S
O244   C246    1.389   .     S
O245   C247    1.389   .     S
C246   C247    1.411   .     D
C246   C248    1.403   .     S
C247   C249    1.403   .     S
C248   C250    1.403   .     D
C248   H251    1.096   .     S
C249   C252    1.403   .     D
C249   H253    1.096   .     S
C250   C252    1.410   .     S
C250   O254    1.389   .     S
C252   O255    1.390   .     S
O254   B256    1.394   .     S
O255   B256    1.395   .     S
B256   C257    1.495   .     S
C257   C258    1.399   .     S
C257   C259    1.399   .     D
C258   C260    1.392   .     D
C258   H261    1.099   .     S
C259   C262    1.391   .     S
C259   H263    1.099   .     S
C260   C264    1.416   .     S
C260   H265    1.098   .     S
C262   C264    1.417   .     D
C262   H266    1.099   .     S
C264   C301    1.487   .     S
C267   C268    1.416   .     D
C267   C269    1.417   .     S
C268   C270    1.392   .     S
C268   H271    1.098   .     S
C269   C272    1.392   .     D
C269   H273    1.099   .     S
C270   C274    1.399   .     D
C270   H275    1.099   .     S
C272   C274    1.398   .     S
C272   H276    1.099   .     S
C274   B277    1.495   .     S
B277   O278    1.394   .     S
B277   O279    1.394   .     S
O278   C280    1.389   .     S
O279   C281    1.390   .     S
C280   C281    1.411   .     D
C280   C282    1.403   .     S
C281   C283    1.403   .     S
C282   C284    1.403   .     D
C282   H285    1.096   .     S
C283   C286    1.403   .     D
C283   H287    1.096   .     S
C284   C286    1.411   .     S
C284   O288    1.389   .     S
C286   O289    1.389   .     S
O288   B290    1.395   .     S
O289   B290    1.394   .     S
B290   C291    1.495   .     S
C291   C292    1.399   .     S
C291   C293    1.399   .     D
C292   C294    1.392   .     D
C292   H295    1.099   .     S
C293   C296    1.392   .     S
C293   H297    1.099   .     S
C294   C298    1.417   .     S
C294   H299    1.099   .     S
C296   C298    1.416   .     D
C296   H300    1.099   .     S
C298   C331    1.487   1_565 S
C301   C302    1.423   .     D
C301   C303    1.426   .     S
C302   C304    1.462   .     S
C302   N305    1.370   .     S
C303   C306    1.434   .     D
C303   N307    1.377   .     S
C304   C308    1.360   .     D
C304   H309    1.096   .     S
N305   C310    1.371   .     D
C306   C311    1.378   .     S
C306   H312    1.094   .     S
N307   C313    1.378   .     S
N307   H407    1.034   .     S
C308   C310    1.462   .     S
C308   H314    1.096   .     S
C310   C315    1.423   .     S
C311   C313    1.434   .     D
C311   H316    1.094   .     S
C313   C317    1.426   .     S
C315   C318    1.426   .     D
C315   C364    1.487   .     S
C317   C319    1.423   .     D
C317   C398    1.487   1_655 S
C318   C320    1.434   .     S
C318   N321    1.377   .     S
C319   C322    1.462   .     S
C319   N323    1.371   .     S
C320   C324    1.378   .     D
C320   H325    1.094   .     S
N321   C326    1.378   .     S
N321   H408    1.034   .     S
C322   C327    1.360   .     D
C322   H328    1.096   .     S
N323   C329    1.371   .     D
C324   C326    1.434   .     S
C324   H330    1.094   .     S
C326   C331    1.426   .     D
C327   C329    1.462   .     S
C327   H332    1.096   .     S
C329   C331    1.423   .     S
C331   C298    1.487   1_545 S
C333   C334    1.416   .     D
C333   C335    1.416   .     S
C334   C336    1.392   .     S
C334   H337    1.099   .     S
C335   C338    1.391   .     D
C335   H339    1.099   .     S
C336   C340    1.399   .     D
C336   H341    1.099   .     S
C338   C340    1.399   .     S
C338   H342    1.099   .     S
C340   B343    1.495   .     S
B343   O344    1.394   .     S
B343   O345    1.394   .     S
O344   C346    1.390   .     S
O345   C347    1.389   .     S
C346   C347    1.410   .     D
C346   C348    1.403   .     S
C347   C349    1.403   .     S
C348   C350    1.403   .     D
C348   H351    1.096   .     S
C349   C352    1.403   .     D
C349   H353    1.097   .     S
C350   C352    1.410   .     S
C350   O354    1.389   .     S
C352   O355    1.390   .     S
O354   B356    1.395   .     S
O355   B356    1.395   .     S
B356   C357    1.495   .     S
C357   C358    1.399   .     S
C357   C359    1.399   .     D
C358   C360    1.391   .     D
C358   H361    1.099   .     S
C359   C362    1.392   .     S
C359   H363    1.099   .     S
C360   C364    1.417   .     S
C360   H365    1.099   .     S
C362   C364    1.416   .     D
C362   H366    1.099   .     S
C367   C368    1.417   .     D
C367   C369    1.416   .     S
C368   C370    1.391   .     S
C368   H371    1.099   .     S
C369   C372    1.392   .     D
C369   H373    1.098   .     S
C370   C374    1.399   .     D
C370   H375    1.099   .     S
C372   C374    1.399   .     S
C372   H376    1.099   .     S
C374   B377    1.495   .     S
B377   O378    1.394   .     S
B377   O379    1.395   .     S
O378   C380    1.389   .     S
O379   C381    1.389   .     S
C380   C381    1.411   .     D
C380   C382    1.403   .     S
C381   C383    1.403   .     S
C382   C384    1.403   .     D
C382   H385    1.096   .     S
C383   C386    1.403   .     D
C383   H387    1.096   .     S
C384   C386    1.411   .     S
C384   O388    1.390   .     S
C386   O389    1.389   .     S
O388   B390    1.394   .     S
O389   B390    1.395   .     S
B390   C391    1.495   .     S
C391   C392    1.399   .     D
C391   C393    1.398   .     S
C392   C394    1.392   .     S
C392   H395    1.099   .     S
C393   C396    1.392   .     D
C393   H397    1.099   .     S
C394   C398    1.416   .     D
C394   H399    1.099   .     S
C396   C398    1.416   .     S
C396   H400    1.099   .     S
C398   C317    1.487   1_455 S
