data_275
_audit_creation_date              2023-09-08
_audit_creation_method            'Materials Studio'
_symmetry_space_group_name_H-M    'P1'
_symmetry_Int_Tables_number       1
_symmetry_cell_setting            triclinic
loop_
_symmetry_equiv_pos_as_xyz
  x,y,z
_cell_length_a                    39.3857
_cell_length_b                    39.3857
_cell_length_c                    5.4987
_cell_angle_alpha                 90.0000
_cell_angle_beta                  90.0000
_cell_angle_gamma                 90.0000
loop_
_atom_site_label
_atom_site_type_symbol
_atom_site_fract_x
_atom_site_fract_y
_atom_site_fract_z
_atom_site_U_iso_or_equiv
_atom_site_adp_type
_atom_site_occupancy
C1     C     0.54255   0.52587   0.81830   0.00000  Uiso   1.00
C2     C     0.57289   0.52735   0.95827   0.00000  Uiso   1.00
C3     C     0.59515   0.49980   0.97802   0.00000  Uiso   1.00
C4     C     0.58765   0.47261   0.81961   0.00000  Uiso   1.00
C5     C     0.55824   0.47198   0.66816   0.00000  Uiso   1.00
C6     C     0.53361   0.49842   0.66829   0.00000  Uiso   1.00
C7     C     0.63298   0.46705   0.28801   0.00000  Uiso   1.00
C8     C     0.65795   0.46543   0.47783   0.00000  Uiso   1.00
C9     C     0.66774   0.49586   0.60406   0.00000  Uiso   1.00
C10    C     0.65473   0.52763   0.51240   0.00000  Uiso   1.00
C11    C     0.63529   0.52781   0.29158   0.00000  Uiso   1.00
C12    C     0.62221   0.49808   0.18298   0.00000  Uiso   1.00
C13    C     0.70940   0.51375   0.93275   0.00000  Uiso   1.00
N14    N     0.68858   0.49222   0.82753   0.00000  Uiso   1.00
C15    C     0.74353   0.53297   0.29846   0.00000  Uiso   1.00
C16    C     0.73669   0.47309   0.23929   0.00000  Uiso   1.00
C17    C     0.72936   0.50617   0.16205   0.00000  Uiso   1.00
H18    H     0.52675   0.54760   0.80853   0.00000  Uiso   1.00
H19    H     0.57890   0.55053   0.05148   0.00000  Uiso   1.00
H20    H     0.60268   0.45028   0.82668   0.00000  Uiso   1.00
H21    H     0.55394   0.44851   0.57333   0.00000  Uiso   1.00
H22    H     0.62142   0.44385   0.22466   0.00000  Uiso   1.00
C23    C     0.67440   0.43125   0.55202   0.00000  Uiso   1.00
C24    C     0.65714   0.56145   0.65296   0.00000  Uiso   1.00
H25    H     0.62834   0.55209   0.21514   0.00000  Uiso   1.00
H26    H     0.71418   0.53793   0.85117   0.00000  Uiso   1.00
H27    H     0.73920   0.55886   0.24008   0.00000  Uiso   1.00
H28    H     0.72863   0.45210   0.12728   0.00000  Uiso   1.00
C29    C     0.68373   0.58546   0.54040   0.00000  Uiso   1.00
H30    H     0.66337   0.55682   0.84815   0.00000  Uiso   1.00
C31    C     0.62297   0.58028   0.66276   0.00000  Uiso   1.00
C32    C     0.67720   0.40419   0.35045   0.00000  Uiso   1.00
C33    C     0.65753   0.41519   0.77326   0.00000  Uiso   1.00
H34    H     0.70083   0.43648   0.60951   0.00000  Uiso   1.00
H35    H     0.69322   0.41313   0.19870   0.00000  Uiso   1.00
H36    H     0.65199   0.39627   0.28192   0.00000  Uiso   1.00
H37    H     0.69002   0.38119   0.42376   0.00000  Uiso   1.00
H38    H     0.67221   0.39270   0.83499   0.00000  Uiso   1.00
H39    H     0.63167   0.40648   0.73099   0.00000  Uiso   1.00
H40    H     0.65708   0.43406   0.92108   0.00000  Uiso   1.00
H41    H     0.68016   0.58774   0.33794   0.00000  Uiso   1.00
H42    H     0.70978   0.57692   0.57824   0.00000  Uiso   1.00
H43    H     0.68154   0.61115   0.62331   0.00000  Uiso   1.00
H44    H     0.60144   0.56284   0.64104   0.00000  Uiso   1.00
H45    H     0.62105   0.59865   0.51030   0.00000  Uiso   1.00
H46    H     0.62027   0.59432   0.83934   0.00000  Uiso   1.00
C47    C     0.04255   0.02587   0.31830   0.00000  Uiso   1.00
C48    C     0.07289   0.02735   0.45827   0.00000  Uiso   1.00
C49    C     0.09515   0.99980   0.47802   0.00000  Uiso   1.00
C50    C     0.08765   0.97261   0.31961   0.00000  Uiso   1.00
C51    C     0.05824   0.97198   0.16816   0.00000  Uiso   1.00
C52    C     0.03361   0.99842   0.16829   0.00000  Uiso   1.00
C53    C     0.13298   0.96705   0.78801   0.00000  Uiso   1.00
C54    C     0.15795   0.96543   0.97783   0.00000  Uiso   1.00
C55    C     0.16774   0.99586   0.10406   0.00000  Uiso   1.00
C56    C     0.15473   0.02763   0.01240   0.00000  Uiso   1.00
C57    C     0.13529   0.02781   0.79158   0.00000  Uiso   1.00
C58    C     0.12221   0.99808   0.68298   0.00000  Uiso   1.00
C59    C     0.20940   0.01375   0.43275   0.00000  Uiso   1.00
N60    N     0.18858   0.99222   0.32753   0.00000  Uiso   1.00
C61    C     0.24353   0.03297   0.79846   0.00000  Uiso   1.00
C62    C     0.23669   0.97309   0.73929   0.00000  Uiso   1.00
C63    C     0.22936   0.00617   0.66205   0.00000  Uiso   1.00
H64    H     0.02675   0.04760   0.30853   0.00000  Uiso   1.00
H65    H     0.07890   0.05053   0.55148   0.00000  Uiso   1.00
H66    H     0.10268   0.95028   0.32668   0.00000  Uiso   1.00
H67    H     0.05394   0.94851   0.07333   0.00000  Uiso   1.00
H68    H     0.12142   0.94385   0.72466   0.00000  Uiso   1.00
C69    C     0.17440   0.93125   0.05202   0.00000  Uiso   1.00
C70    C     0.15714   0.06145   0.15296   0.00000  Uiso   1.00
H71    H     0.12834   0.05209   0.71514   0.00000  Uiso   1.00
H72    H     0.21418   0.03793   0.35117   0.00000  Uiso   1.00
H73    H     0.23920   0.05886   0.74008   0.00000  Uiso   1.00
H74    H     0.22863   0.95210   0.62728   0.00000  Uiso   1.00
C75    C     0.18373   0.08546   0.04040   0.00000  Uiso   1.00
H76    H     0.16337   0.05682   0.34815   0.00000  Uiso   1.00
C77    C     0.12297   0.08028   0.16276   0.00000  Uiso   1.00
C78    C     0.17720   0.90419   0.85045   0.00000  Uiso   1.00
C79    C     0.15753   0.91519   0.27326   0.00000  Uiso   1.00
H80    H     0.20083   0.93648   0.10951   0.00000  Uiso   1.00
H81    H     0.19322   0.91313   0.69870   0.00000  Uiso   1.00
H82    H     0.15199   0.89627   0.78192   0.00000  Uiso   1.00
H83    H     0.19002   0.88119   0.92376   0.00000  Uiso   1.00
H84    H     0.17221   0.89270   0.33499   0.00000  Uiso   1.00
H85    H     0.13167   0.90648   0.23099   0.00000  Uiso   1.00
H86    H     0.15708   0.93406   0.42108   0.00000  Uiso   1.00
H87    H     0.18016   0.08774   0.83794   0.00000  Uiso   1.00
H88    H     0.20978   0.07692   0.07824   0.00000  Uiso   1.00
H89    H     0.18154   0.11115   0.12331   0.00000  Uiso   1.00
H90    H     0.10144   0.06284   0.14104   0.00000  Uiso   1.00
H91    H     0.12105   0.09865   0.01030   0.00000  Uiso   1.00
H92    H     0.12027   0.09432   0.33934   0.00000  Uiso   1.00
C93    C     0.95745   0.97413   0.31830   0.00000  Uiso   1.00
C94    C     0.92711   0.97265   0.45827   0.00000  Uiso   1.00
C95    C     0.90485   0.00020   0.47802   0.00000  Uiso   1.00
C96    C     0.91235   0.02739   0.31961   0.00000  Uiso   1.00
C97    C     0.94176   0.02802   0.16816   0.00000  Uiso   1.00
C98    C     0.96639   0.00158   0.16829   0.00000  Uiso   1.00
C99    C     0.86702   0.03295   0.78801   0.00000  Uiso   1.00
C100   C     0.84205   0.03457   0.97783   0.00000  Uiso   1.00
C101   C     0.83226   0.00414   0.10406   0.00000  Uiso   1.00
C102   C     0.84527   0.97237   0.01240   0.00000  Uiso   1.00
C103   C     0.86471   0.97219   0.79158   0.00000  Uiso   1.00
C104   C     0.87779   0.00192   0.68298   0.00000  Uiso   1.00
C105   C     0.79060   0.98625   0.43275   0.00000  Uiso   1.00
N106   N     0.81142   0.00778   0.32753   0.00000  Uiso   1.00
C107   C     0.75647   0.96703   0.79846   0.00000  Uiso   1.00
C108   C     0.76331   0.02691   0.73929   0.00000  Uiso   1.00
C109   C     0.77064   0.99383   0.66205   0.00000  Uiso   1.00
H110   H     0.97325   0.95240   0.30853   0.00000  Uiso   1.00
H111   H     0.92110   0.94947   0.55148   0.00000  Uiso   1.00
H112   H     0.89732   0.04972   0.32668   0.00000  Uiso   1.00
H113   H     0.94606   0.05149   0.07333   0.00000  Uiso   1.00
H114   H     0.87858   0.05615   0.72466   0.00000  Uiso   1.00
C115   C     0.82560   0.06875   0.05202   0.00000  Uiso   1.00
C116   C     0.84286   0.93855   0.15296   0.00000  Uiso   1.00
H117   H     0.87166   0.94791   0.71514   0.00000  Uiso   1.00
H118   H     0.78582   0.96207   0.35117   0.00000  Uiso   1.00
H119   H     0.76080   0.94114   0.74008   0.00000  Uiso   1.00
H120   H     0.77137   0.04790   0.62728   0.00000  Uiso   1.00
C121   C     0.81627   0.91454   0.04040   0.00000  Uiso   1.00
H122   H     0.83663   0.94318   0.34815   0.00000  Uiso   1.00
C123   C     0.87703   0.91972   0.16276   0.00000  Uiso   1.00
C124   C     0.82280   0.09581   0.85045   0.00000  Uiso   1.00
C125   C     0.84247   0.08481   0.27326   0.00000  Uiso   1.00
H126   H     0.79917   0.06352   0.10951   0.00000  Uiso   1.00
H127   H     0.80678   0.08687   0.69870   0.00000  Uiso   1.00
H128   H     0.84801   0.10373   0.78192   0.00000  Uiso   1.00
H129   H     0.80998   0.11881   0.92376   0.00000  Uiso   1.00
H130   H     0.82779   0.10730   0.33499   0.00000  Uiso   1.00
H131   H     0.86833   0.09352   0.23099   0.00000  Uiso   1.00
H132   H     0.84292   0.06594   0.42108   0.00000  Uiso   1.00
H133   H     0.81984   0.91226   0.83794   0.00000  Uiso   1.00
H134   H     0.79022   0.92308   0.07824   0.00000  Uiso   1.00
H135   H     0.81846   0.88885   0.12331   0.00000  Uiso   1.00
H136   H     0.89856   0.93716   0.14104   0.00000  Uiso   1.00
H137   H     0.87895   0.90135   0.01030   0.00000  Uiso   1.00
H138   H     0.87973   0.90568   0.33934   0.00000  Uiso   1.00
C139   C     0.45745   0.47413   0.81830   0.00000  Uiso   1.00
C140   C     0.42711   0.47265   0.95827   0.00000  Uiso   1.00
C141   C     0.40485   0.50020   0.97802   0.00000  Uiso   1.00
C142   C     0.41235   0.52739   0.81961   0.00000  Uiso   1.00
C143   C     0.44176   0.52802   0.66816   0.00000  Uiso   1.00
C144   C     0.46639   0.50158   0.66829   0.00000  Uiso   1.00
C145   C     0.36702   0.53295   0.28801   0.00000  Uiso   1.00
C146   C     0.34205   0.53457   0.47783   0.00000  Uiso   1.00
C147   C     0.33226   0.50414   0.60406   0.00000  Uiso   1.00
C148   C     0.34527   0.47237   0.51240   0.00000  Uiso   1.00
C149   C     0.36471   0.47219   0.29158   0.00000  Uiso   1.00
C150   C     0.37779   0.50192   0.18298   0.00000  Uiso   1.00
C151   C     0.29060   0.48625   0.93275   0.00000  Uiso   1.00
N152   N     0.31142   0.50778   0.82753   0.00000  Uiso   1.00
C153   C     0.25647   0.46703   0.29846   0.00000  Uiso   1.00
C154   C     0.26331   0.52691   0.23929   0.00000  Uiso   1.00
C155   C     0.27064   0.49383   0.16205   0.00000  Uiso   1.00
H156   H     0.47325   0.45240   0.80853   0.00000  Uiso   1.00
H157   H     0.42110   0.44947   0.05148   0.00000  Uiso   1.00
H158   H     0.39732   0.54972   0.82668   0.00000  Uiso   1.00
H159   H     0.44606   0.55149   0.57333   0.00000  Uiso   1.00
H160   H     0.37858   0.55615   0.22466   0.00000  Uiso   1.00
C161   C     0.32560   0.56875   0.55202   0.00000  Uiso   1.00
C162   C     0.34286   0.43855   0.65296   0.00000  Uiso   1.00
H163   H     0.37166   0.44791   0.21514   0.00000  Uiso   1.00
H164   H     0.28582   0.46207   0.85117   0.00000  Uiso   1.00
H165   H     0.26080   0.44114   0.24008   0.00000  Uiso   1.00
H166   H     0.27137   0.54790   0.12728   0.00000  Uiso   1.00
C167   C     0.31627   0.41454   0.54040   0.00000  Uiso   1.00
H168   H     0.33663   0.44318   0.84815   0.00000  Uiso   1.00
C169   C     0.37703   0.41972   0.66276   0.00000  Uiso   1.00
C170   C     0.32280   0.59581   0.35045   0.00000  Uiso   1.00
C171   C     0.34247   0.58481   0.77326   0.00000  Uiso   1.00
H172   H     0.29917   0.56352   0.60951   0.00000  Uiso   1.00
H173   H     0.30678   0.58687   0.19870   0.00000  Uiso   1.00
H174   H     0.34801   0.60373   0.28192   0.00000  Uiso   1.00
H175   H     0.30998   0.61881   0.42376   0.00000  Uiso   1.00
H176   H     0.32779   0.60730   0.83499   0.00000  Uiso   1.00
H177   H     0.36833   0.59352   0.73099   0.00000  Uiso   1.00
H178   H     0.34292   0.56594   0.92108   0.00000  Uiso   1.00
H179   H     0.31984   0.41226   0.33794   0.00000  Uiso   1.00
H180   H     0.29022   0.42308   0.57824   0.00000  Uiso   1.00
H181   H     0.31846   0.38885   0.62331   0.00000  Uiso   1.00
H182   H     0.39856   0.43716   0.64104   0.00000  Uiso   1.00
H183   H     0.37895   0.40135   0.51030   0.00000  Uiso   1.00
H184   H     0.37973   0.40568   0.83934   0.00000  Uiso   1.00
C185   C     0.47413   0.04255   0.06830   0.00000  Uiso   1.00
C186   C     0.47265   0.07289   0.20827   0.00000  Uiso   1.00
C187   C     0.50020   0.09515   0.22802   0.00000  Uiso   1.00
C188   C     0.52739   0.08765   0.06961   0.00000  Uiso   1.00
C189   C     0.52802   0.05824   0.91816   0.00000  Uiso   1.00
C190   C     0.50158   0.03361   0.91829   0.00000  Uiso   1.00
C191   C     0.53295   0.13298   0.53801   0.00000  Uiso   1.00
C192   C     0.53457   0.15795   0.72783   0.00000  Uiso   1.00
C193   C     0.50414   0.16774   0.85406   0.00000  Uiso   1.00
C194   C     0.47237   0.15473   0.76240   0.00000  Uiso   1.00
C195   C     0.47219   0.13529   0.54158   0.00000  Uiso   1.00
C196   C     0.50192   0.12221   0.43298   0.00000  Uiso   1.00
C197   C     0.48625   0.20940   0.18275   0.00000  Uiso   1.00
N198   N     0.50778   0.18858   0.07753   0.00000  Uiso   1.00
C199   C     0.46703   0.24353   0.54846   0.00000  Uiso   1.00
C200   C     0.52691   0.23669   0.48929   0.00000  Uiso   1.00
C201   C     0.49383   0.22936   0.41205   0.00000  Uiso   1.00
H202   H     0.45240   0.02675   0.05853   0.00000  Uiso   1.00
H203   H     0.44947   0.07890   0.30148   0.00000  Uiso   1.00
H204   H     0.54972   0.10268   0.07668   0.00000  Uiso   1.00
H205   H     0.55149   0.05394   0.82333   0.00000  Uiso   1.00
H206   H     0.55615   0.12142   0.47466   0.00000  Uiso   1.00
C207   C     0.56875   0.17440   0.80202   0.00000  Uiso   1.00
C208   C     0.43855   0.15714   0.90296   0.00000  Uiso   1.00
H209   H     0.44791   0.12834   0.46514   0.00000  Uiso   1.00
H210   H     0.46207   0.21418   0.10117   0.00000  Uiso   1.00
H211   H     0.44114   0.23920   0.49008   0.00000  Uiso   1.00
H212   H     0.54790   0.22863   0.37728   0.00000  Uiso   1.00
C213   C     0.41454   0.18373   0.79040   0.00000  Uiso   1.00
H214   H     0.44318   0.16337   0.09815   0.00000  Uiso   1.00
C215   C     0.41972   0.12297   0.91276   0.00000  Uiso   1.00
C216   C     0.59581   0.17720   0.60045   0.00000  Uiso   1.00
C217   C     0.58481   0.15753   0.02326   0.00000  Uiso   1.00
H218   H     0.56352   0.20083   0.85951   0.00000  Uiso   1.00
H219   H     0.58687   0.19322   0.44870   0.00000  Uiso   1.00
H220   H     0.60373   0.15199   0.53192   0.00000  Uiso   1.00
H221   H     0.61881   0.19002   0.67376   0.00000  Uiso   1.00
H222   H     0.60730   0.17221   0.08499   0.00000  Uiso   1.00
H223   H     0.59352   0.13167   0.98099   0.00000  Uiso   1.00
H224   H     0.56594   0.15708   0.17108   0.00000  Uiso   1.00
H225   H     0.41226   0.18016   0.58794   0.00000  Uiso   1.00
H226   H     0.42308   0.20978   0.82824   0.00000  Uiso   1.00
H227   H     0.38885   0.18154   0.87331   0.00000  Uiso   1.00
H228   H     0.43716   0.10144   0.89104   0.00000  Uiso   1.00
H229   H     0.40135   0.12105   0.76030   0.00000  Uiso   1.00
H230   H     0.40568   0.12027   0.08934   0.00000  Uiso   1.00
C231   C     0.97413   0.54255   0.56830   0.00000  Uiso   1.00
C232   C     0.97265   0.57289   0.70827   0.00000  Uiso   1.00
C233   C     0.00020   0.59515   0.72802   0.00000  Uiso   1.00
C234   C     0.02739   0.58765   0.56961   0.00000  Uiso   1.00
C235   C     0.02802   0.55824   0.41816   0.00000  Uiso   1.00
C236   C     0.00158   0.53361   0.41829   0.00000  Uiso   1.00
C237   C     0.03295   0.63298   0.03801   0.00000  Uiso   1.00
C238   C     0.03457   0.65795   0.22783   0.00000  Uiso   1.00
C239   C     0.00414   0.66774   0.35406   0.00000  Uiso   1.00
C240   C     0.97237   0.65473   0.26240   0.00000  Uiso   1.00
C241   C     0.97219   0.63529   0.04158   0.00000  Uiso   1.00
C242   C     0.00192   0.62221   0.93298   0.00000  Uiso   1.00
C243   C     0.98625   0.70940   0.68275   0.00000  Uiso   1.00
N244   N     0.00778   0.68858   0.57753   0.00000  Uiso   1.00
C245   C     0.96703   0.74353   0.04846   0.00000  Uiso   1.00
C246   C     0.02691   0.73669   0.98929   0.00000  Uiso   1.00
C247   C     0.99383   0.72936   0.91205   0.00000  Uiso   1.00
H248   H     0.95240   0.52675   0.55853   0.00000  Uiso   1.00
H249   H     0.94947   0.57890   0.80148   0.00000  Uiso   1.00
H250   H     0.04972   0.60268   0.57668   0.00000  Uiso   1.00
H251   H     0.05149   0.55394   0.32333   0.00000  Uiso   1.00
H252   H     0.05615   0.62142   0.97466   0.00000  Uiso   1.00
C253   C     0.06875   0.67440   0.30202   0.00000  Uiso   1.00
C254   C     0.93855   0.65714   0.40296   0.00000  Uiso   1.00
H255   H     0.94791   0.62834   0.96514   0.00000  Uiso   1.00
H256   H     0.96207   0.71418   0.60117   0.00000  Uiso   1.00
H257   H     0.94114   0.73920   0.99008   0.00000  Uiso   1.00
H258   H     0.04790   0.72863   0.87728   0.00000  Uiso   1.00
C259   C     0.91454   0.68373   0.29040   0.00000  Uiso   1.00
H260   H     0.94318   0.66337   0.59815   0.00000  Uiso   1.00
C261   C     0.91972   0.62297   0.41276   0.00000  Uiso   1.00
C262   C     0.09581   0.67720   0.10045   0.00000  Uiso   1.00
C263   C     0.08481   0.65753   0.52326   0.00000  Uiso   1.00
H264   H     0.06352   0.70083   0.35951   0.00000  Uiso   1.00
H265   H     0.08687   0.69322   0.94870   0.00000  Uiso   1.00
H266   H     0.10373   0.65199   0.03192   0.00000  Uiso   1.00
H267   H     0.11881   0.69002   0.17376   0.00000  Uiso   1.00
H268   H     0.10730   0.67221   0.58499   0.00000  Uiso   1.00
H269   H     0.09352   0.63167   0.48099   0.00000  Uiso   1.00
H270   H     0.06594   0.65708   0.67108   0.00000  Uiso   1.00
H271   H     0.91226   0.68016   0.08794   0.00000  Uiso   1.00
H272   H     0.92308   0.70978   0.32824   0.00000  Uiso   1.00
H273   H     0.88885   0.68154   0.37331   0.00000  Uiso   1.00
H274   H     0.93716   0.60144   0.39104   0.00000  Uiso   1.00
H275   H     0.90135   0.62105   0.26030   0.00000  Uiso   1.00
H276   H     0.90568   0.62027   0.58934   0.00000  Uiso   1.00
C277   C     0.02587   0.45745   0.56830   0.00000  Uiso   1.00
C278   C     0.02735   0.42711   0.70827   0.00000  Uiso   1.00
C279   C     0.99980   0.40485   0.72802   0.00000  Uiso   1.00
C280   C     0.97261   0.41235   0.56961   0.00000  Uiso   1.00
C281   C     0.97198   0.44176   0.41816   0.00000  Uiso   1.00
C282   C     0.99842   0.46639   0.41829   0.00000  Uiso   1.00
C283   C     0.96705   0.36702   0.03801   0.00000  Uiso   1.00
C284   C     0.96543   0.34205   0.22783   0.00000  Uiso   1.00
C285   C     0.99586   0.33226   0.35406   0.00000  Uiso   1.00
C286   C     0.02763   0.34527   0.26240   0.00000  Uiso   1.00
C287   C     0.02781   0.36471   0.04158   0.00000  Uiso   1.00
C288   C     0.99808   0.37779   0.93298   0.00000  Uiso   1.00
C289   C     0.01375   0.29060   0.68275   0.00000  Uiso   1.00
N290   N     0.99222   0.31142   0.57753   0.00000  Uiso   1.00
C291   C     0.03297   0.25647   0.04846   0.00000  Uiso   1.00
C292   C     0.97309   0.26331   0.98929   0.00000  Uiso   1.00
C293   C     0.00617   0.27064   0.91205   0.00000  Uiso   1.00
H294   H     0.04760   0.47325   0.55853   0.00000  Uiso   1.00
H295   H     0.05053   0.42110   0.80148   0.00000  Uiso   1.00
H296   H     0.95028   0.39732   0.57668   0.00000  Uiso   1.00
H297   H     0.94851   0.44606   0.32333   0.00000  Uiso   1.00
H298   H     0.94385   0.37858   0.97466   0.00000  Uiso   1.00
C299   C     0.93125   0.32560   0.30202   0.00000  Uiso   1.00
C300   C     0.06145   0.34286   0.40296   0.00000  Uiso   1.00
H301   H     0.05209   0.37166   0.96514   0.00000  Uiso   1.00
H302   H     0.03793   0.28582   0.60117   0.00000  Uiso   1.00
H303   H     0.05886   0.26080   0.99008   0.00000  Uiso   1.00
H304   H     0.95210   0.27137   0.87728   0.00000  Uiso   1.00
C305   C     0.08546   0.31627   0.29040   0.00000  Uiso   1.00
H306   H     0.05682   0.33663   0.59815   0.00000  Uiso   1.00
C307   C     0.08028   0.37703   0.41276   0.00000  Uiso   1.00
C308   C     0.90419   0.32280   0.10045   0.00000  Uiso   1.00
C309   C     0.91519   0.34247   0.52326   0.00000  Uiso   1.00
H310   H     0.93648   0.29917   0.35951   0.00000  Uiso   1.00
H311   H     0.91313   0.30678   0.94870   0.00000  Uiso   1.00
H312   H     0.89627   0.34801   0.03192   0.00000  Uiso   1.00
H313   H     0.88119   0.30998   0.17376   0.00000  Uiso   1.00
H314   H     0.89270   0.32779   0.58499   0.00000  Uiso   1.00
H315   H     0.90648   0.36833   0.48099   0.00000  Uiso   1.00
H316   H     0.93406   0.34292   0.67108   0.00000  Uiso   1.00
H317   H     0.08774   0.31984   0.08794   0.00000  Uiso   1.00
H318   H     0.07692   0.29022   0.32824   0.00000  Uiso   1.00
H319   H     0.11115   0.31846   0.37331   0.00000  Uiso   1.00
H320   H     0.06284   0.39856   0.39104   0.00000  Uiso   1.00
H321   H     0.09865   0.37895   0.26030   0.00000  Uiso   1.00
H322   H     0.09432   0.37973   0.58934   0.00000  Uiso   1.00
C323   C     0.52587   0.95745   0.06830   0.00000  Uiso   1.00
C324   C     0.52735   0.92711   0.20827   0.00000  Uiso   1.00
C325   C     0.49980   0.90485   0.22802   0.00000  Uiso   1.00
C326   C     0.47261   0.91235   0.06961   0.00000  Uiso   1.00
C327   C     0.47198   0.94176   0.91816   0.00000  Uiso   1.00
C328   C     0.49842   0.96639   0.91829   0.00000  Uiso   1.00
C329   C     0.46705   0.86702   0.53801   0.00000  Uiso   1.00
C330   C     0.46543   0.84205   0.72783   0.00000  Uiso   1.00
C331   C     0.49586   0.83226   0.85406   0.00000  Uiso   1.00
C332   C     0.52763   0.84527   0.76240   0.00000  Uiso   1.00
C333   C     0.52781   0.86471   0.54158   0.00000  Uiso   1.00
C334   C     0.49808   0.87779   0.43298   0.00000  Uiso   1.00
C335   C     0.51375   0.79060   0.18275   0.00000  Uiso   1.00
N336   N     0.49222   0.81142   0.07753   0.00000  Uiso   1.00
C337   C     0.53297   0.75647   0.54846   0.00000  Uiso   1.00
C338   C     0.47309   0.76331   0.48929   0.00000  Uiso   1.00
C339   C     0.50617   0.77064   0.41205   0.00000  Uiso   1.00
H340   H     0.54760   0.97325   0.05853   0.00000  Uiso   1.00
H341   H     0.55053   0.92110   0.30148   0.00000  Uiso   1.00
H342   H     0.45028   0.89732   0.07668   0.00000  Uiso   1.00
H343   H     0.44851   0.94606   0.82333   0.00000  Uiso   1.00
H344   H     0.44385   0.87858   0.47466   0.00000  Uiso   1.00
C345   C     0.43125   0.82560   0.80202   0.00000  Uiso   1.00
C346   C     0.56145   0.84286   0.90296   0.00000  Uiso   1.00
H347   H     0.55209   0.87166   0.46514   0.00000  Uiso   1.00
H348   H     0.53793   0.78582   0.10117   0.00000  Uiso   1.00
H349   H     0.55886   0.76080   0.49008   0.00000  Uiso   1.00
H350   H     0.45210   0.77137   0.37728   0.00000  Uiso   1.00
C351   C     0.58546   0.81627   0.79040   0.00000  Uiso   1.00
H352   H     0.55682   0.83663   0.09815   0.00000  Uiso   1.00
C353   C     0.58028   0.87703   0.91276   0.00000  Uiso   1.00
C354   C     0.40419   0.82280   0.60045   0.00000  Uiso   1.00
C355   C     0.41519   0.84247   0.02326   0.00000  Uiso   1.00
H356   H     0.43648   0.79917   0.85951   0.00000  Uiso   1.00
H357   H     0.41313   0.80678   0.44870   0.00000  Uiso   1.00
H358   H     0.39627   0.84801   0.53192   0.00000  Uiso   1.00
H359   H     0.38119   0.80998   0.67376   0.00000  Uiso   1.00
H360   H     0.39270   0.82779   0.08499   0.00000  Uiso   1.00
H361   H     0.40648   0.86833   0.98099   0.00000  Uiso   1.00
H362   H     0.43406   0.84292   0.17108   0.00000  Uiso   1.00
H363   H     0.58774   0.81984   0.58794   0.00000  Uiso   1.00
H364   H     0.57692   0.79022   0.82824   0.00000  Uiso   1.00
H365   H     0.61115   0.81846   0.87331   0.00000  Uiso   1.00
H366   H     0.56284   0.89856   0.89104   0.00000  Uiso   1.00
H367   H     0.59865   0.87895   0.76030   0.00000  Uiso   1.00
H368   H     0.59432   0.87973   0.08934   0.00000  Uiso   1.00
C369   C     0.45745   0.97413   0.43170   0.00000  Uiso   1.00
C370   C     0.42711   0.97265   0.29173   0.00000  Uiso   1.00
C371   C     0.40485   0.00020   0.27198   0.00000  Uiso   1.00
C372   C     0.41235   0.02739   0.43039   0.00000  Uiso   1.00
C373   C     0.44176   0.02802   0.58184   0.00000  Uiso   1.00
C374   C     0.46639   0.00158   0.58171   0.00000  Uiso   1.00
C375   C     0.36702   0.03295   0.96199   0.00000  Uiso   1.00
C376   C     0.34205   0.03457   0.77217   0.00000  Uiso   1.00
C377   C     0.33226   0.00414   0.64594   0.00000  Uiso   1.00
C378   C     0.34527   0.97237   0.73760   0.00000  Uiso   1.00
C379   C     0.36471   0.97219   0.95842   0.00000  Uiso   1.00
C380   C     0.37779   0.00192   0.06702   0.00000  Uiso   1.00
C381   C     0.29060   0.98625   0.31725   0.00000  Uiso   1.00
N382   N     0.31142   0.00778   0.42247   0.00000  Uiso   1.00
C383   C     0.25647   0.96703   0.95154   0.00000  Uiso   1.00
C384   C     0.26331   0.02691   0.01071   0.00000  Uiso   1.00
C385   C     0.27064   0.99383   0.08795   0.00000  Uiso   1.00
H386   H     0.47325   0.95240   0.44147   0.00000  Uiso   1.00
H387   H     0.42110   0.94947   0.19852   0.00000  Uiso   1.00
H388   H     0.39732   0.04972   0.42332   0.00000  Uiso   1.00
H389   H     0.44606   0.05149   0.67667   0.00000  Uiso   1.00
H390   H     0.37858   0.05615   0.02534   0.00000  Uiso   1.00
C391   C     0.32560   0.06875   0.69798   0.00000  Uiso   1.00
C392   C     0.34286   0.93855   0.59704   0.00000  Uiso   1.00
H393   H     0.37166   0.94791   0.03486   0.00000  Uiso   1.00
H394   H     0.28582   0.96207   0.39883   0.00000  Uiso   1.00
H395   H     0.26080   0.94114   0.00992   0.00000  Uiso   1.00
H396   H     0.27137   0.04790   0.12272   0.00000  Uiso   1.00
C397   C     0.31627   0.91454   0.70960   0.00000  Uiso   1.00
H398   H     0.33663   0.94318   0.40185   0.00000  Uiso   1.00
C399   C     0.37703   0.91972   0.58724   0.00000  Uiso   1.00
C400   C     0.32280   0.09581   0.89955   0.00000  Uiso   1.00
C401   C     0.34247   0.08481   0.47674   0.00000  Uiso   1.00
H402   H     0.29917   0.06352   0.64049   0.00000  Uiso   1.00
H403   H     0.30678   0.08687   0.05130   0.00000  Uiso   1.00
H404   H     0.34801   0.10373   0.96808   0.00000  Uiso   1.00
H405   H     0.30998   0.11881   0.82624   0.00000  Uiso   1.00
H406   H     0.32779   0.10730   0.41501   0.00000  Uiso   1.00
H407   H     0.36833   0.09352   0.51901   0.00000  Uiso   1.00
H408   H     0.34292   0.06594   0.32892   0.00000  Uiso   1.00
H409   H     0.31984   0.91226   0.91206   0.00000  Uiso   1.00
H410   H     0.29022   0.92308   0.67176   0.00000  Uiso   1.00
H411   H     0.31846   0.88885   0.62669   0.00000  Uiso   1.00
H412   H     0.39856   0.93716   0.60896   0.00000  Uiso   1.00
H413   H     0.37895   0.90135   0.73970   0.00000  Uiso   1.00
H414   H     0.37973   0.90568   0.41066   0.00000  Uiso   1.00
C415   C     0.95745   0.47413   0.93170   0.00000  Uiso   1.00
C416   C     0.92711   0.47265   0.79173   0.00000  Uiso   1.00
C417   C     0.90485   0.50020   0.77198   0.00000  Uiso   1.00
C418   C     0.91235   0.52739   0.93039   0.00000  Uiso   1.00
C419   C     0.94176   0.52802   0.08184   0.00000  Uiso   1.00
C420   C     0.96639   0.50158   0.08171   0.00000  Uiso   1.00
C421   C     0.86702   0.53295   0.46199   0.00000  Uiso   1.00
C422   C     0.84205   0.53457   0.27217   0.00000  Uiso   1.00
C423   C     0.83226   0.50414   0.14594   0.00000  Uiso   1.00
C424   C     0.84527   0.47237   0.23760   0.00000  Uiso   1.00
C425   C     0.86471   0.47219   0.45842   0.00000  Uiso   1.00
C426   C     0.87779   0.50192   0.56702   0.00000  Uiso   1.00
C427   C     0.79060   0.48625   0.81725   0.00000  Uiso   1.00
N428   N     0.81142   0.50778   0.92247   0.00000  Uiso   1.00
C429   C     0.75647   0.46703   0.45154   0.00000  Uiso   1.00
C430   C     0.76331   0.52691   0.51071   0.00000  Uiso   1.00
C431   C     0.77064   0.49383   0.58795   0.00000  Uiso   1.00
H432   H     0.97325   0.45240   0.94147   0.00000  Uiso   1.00
H433   H     0.92110   0.44947   0.69852   0.00000  Uiso   1.00
H434   H     0.89732   0.54972   0.92332   0.00000  Uiso   1.00
H435   H     0.94606   0.55149   0.17667   0.00000  Uiso   1.00
H436   H     0.87858   0.55615   0.52534   0.00000  Uiso   1.00
C437   C     0.82560   0.56875   0.19798   0.00000  Uiso   1.00
C438   C     0.84286   0.43855   0.09704   0.00000  Uiso   1.00
H439   H     0.87166   0.44791   0.53486   0.00000  Uiso   1.00
H440   H     0.78582   0.46207   0.89883   0.00000  Uiso   1.00
H441   H     0.76080   0.44114   0.50992   0.00000  Uiso   1.00
H442   H     0.77137   0.54790   0.62272   0.00000  Uiso   1.00
C443   C     0.81627   0.41454   0.20960   0.00000  Uiso   1.00
H444   H     0.83663   0.44318   0.90185   0.00000  Uiso   1.00
C445   C     0.87703   0.41972   0.08724   0.00000  Uiso   1.00
C446   C     0.82280   0.59581   0.39955   0.00000  Uiso   1.00
C447   C     0.84247   0.58481   0.97674   0.00000  Uiso   1.00
H448   H     0.79917   0.56352   0.14049   0.00000  Uiso   1.00
H449   H     0.80678   0.58687   0.55130   0.00000  Uiso   1.00
H450   H     0.84801   0.60373   0.46808   0.00000  Uiso   1.00
H451   H     0.80998   0.61881   0.32624   0.00000  Uiso   1.00
H452   H     0.82779   0.60730   0.91501   0.00000  Uiso   1.00
H453   H     0.86833   0.59352   0.01901   0.00000  Uiso   1.00
H454   H     0.84292   0.56594   0.82892   0.00000  Uiso   1.00
H455   H     0.81984   0.41226   0.41206   0.00000  Uiso   1.00
H456   H     0.79022   0.42308   0.17176   0.00000  Uiso   1.00
H457   H     0.81846   0.38885   0.12669   0.00000  Uiso   1.00
H458   H     0.89856   0.43716   0.10896   0.00000  Uiso   1.00
H459   H     0.87895   0.40135   0.23970   0.00000  Uiso   1.00
H460   H     0.87973   0.40568   0.91066   0.00000  Uiso   1.00
C461   C     0.04255   0.52587   0.93170   0.00000  Uiso   1.00
C462   C     0.07289   0.52735   0.79173   0.00000  Uiso   1.00
C463   C     0.09515   0.49980   0.77198   0.00000  Uiso   1.00
C464   C     0.08765   0.47261   0.93039   0.00000  Uiso   1.00
C465   C     0.05824   0.47198   0.08184   0.00000  Uiso   1.00
C466   C     0.03361   0.49842   0.08171   0.00000  Uiso   1.00
C467   C     0.13298   0.46705   0.46199   0.00000  Uiso   1.00
C468   C     0.15795   0.46543   0.27217   0.00000  Uiso   1.00
C469   C     0.16774   0.49586   0.14594   0.00000  Uiso   1.00
C470   C     0.15473   0.52763   0.23760   0.00000  Uiso   1.00
C471   C     0.13529   0.52781   0.45842   0.00000  Uiso   1.00
C472   C     0.12221   0.49808   0.56702   0.00000  Uiso   1.00
C473   C     0.20940   0.51375   0.81725   0.00000  Uiso   1.00
N474   N     0.18858   0.49222   0.92247   0.00000  Uiso   1.00
C475   C     0.24353   0.53297   0.45154   0.00000  Uiso   1.00
C476   C     0.23669   0.47309   0.51071   0.00000  Uiso   1.00
C477   C     0.22936   0.50617   0.58795   0.00000  Uiso   1.00
H478   H     0.02675   0.54760   0.94147   0.00000  Uiso   1.00
H479   H     0.07890   0.55053   0.69852   0.00000  Uiso   1.00
H480   H     0.10268   0.45028   0.92332   0.00000  Uiso   1.00
H481   H     0.05394   0.44851   0.17667   0.00000  Uiso   1.00
H482   H     0.12142   0.44385   0.52534   0.00000  Uiso   1.00
C483   C     0.17440   0.43125   0.19798   0.00000  Uiso   1.00
C484   C     0.15714   0.56145   0.09704   0.00000  Uiso   1.00
H485   H     0.12834   0.55209   0.53486   0.00000  Uiso   1.00
H486   H     0.21418   0.53793   0.89883   0.00000  Uiso   1.00
H487   H     0.23920   0.55886   0.50992   0.00000  Uiso   1.00
H488   H     0.22863   0.45210   0.62272   0.00000  Uiso   1.00
C489   C     0.18373   0.58546   0.20960   0.00000  Uiso   1.00
H490   H     0.16337   0.55682   0.90185   0.00000  Uiso   1.00
C491   C     0.12297   0.58028   0.08724   0.00000  Uiso   1.00
C492   C     0.17720   0.40419   0.39955   0.00000  Uiso   1.00
C493   C     0.15753   0.41519   0.97674   0.00000  Uiso   1.00
H494   H     0.20083   0.43648   0.14049   0.00000  Uiso   1.00
H495   H     0.19322   0.41313   0.55130   0.00000  Uiso   1.00
H496   H     0.15199   0.39627   0.46808   0.00000  Uiso   1.00
H497   H     0.19002   0.38119   0.32624   0.00000  Uiso   1.00
H498   H     0.17221   0.39270   0.91501   0.00000  Uiso   1.00
H499   H     0.13167   0.40648   0.01901   0.00000  Uiso   1.00
H500   H     0.15708   0.43406   0.82892   0.00000  Uiso   1.00
H501   H     0.18016   0.58774   0.41206   0.00000  Uiso   1.00
H502   H     0.20978   0.57692   0.17176   0.00000  Uiso   1.00
H503   H     0.18154   0.61115   0.12669   0.00000  Uiso   1.00
H504   H     0.10144   0.56284   0.10896   0.00000  Uiso   1.00
H505   H     0.12105   0.59865   0.23970   0.00000  Uiso   1.00
H506   H     0.12027   0.59432   0.91066   0.00000  Uiso   1.00
C507   C     0.54255   0.02587   0.43170   0.00000  Uiso   1.00
C508   C     0.57289   0.02735   0.29173   0.00000  Uiso   1.00
C509   C     0.59515   0.99980   0.27198   0.00000  Uiso   1.00
C510   C     0.58765   0.97261   0.43039   0.00000  Uiso   1.00
C511   C     0.55824   0.97198   0.58184   0.00000  Uiso   1.00
C512   C     0.53361   0.99842   0.58171   0.00000  Uiso   1.00
C513   C     0.63298   0.96705   0.96199   0.00000  Uiso   1.00
C514   C     0.65795   0.96543   0.77217   0.00000  Uiso   1.00
C515   C     0.66774   0.99586   0.64594   0.00000  Uiso   1.00
C516   C     0.65473   0.02763   0.73760   0.00000  Uiso   1.00
C517   C     0.63529   0.02781   0.95842   0.00000  Uiso   1.00
C518   C     0.62221   0.99808   0.06702   0.00000  Uiso   1.00
C519   C     0.70940   0.01375   0.31725   0.00000  Uiso   1.00
N520   N     0.68858   0.99222   0.42247   0.00000  Uiso   1.00
C521   C     0.74353   0.03297   0.95154   0.00000  Uiso   1.00
C522   C     0.73669   0.97309   0.01071   0.00000  Uiso   1.00
C523   C     0.72936   0.00617   0.08795   0.00000  Uiso   1.00
H524   H     0.52675   0.04760   0.44147   0.00000  Uiso   1.00
H525   H     0.57890   0.05053   0.19852   0.00000  Uiso   1.00
H526   H     0.60268   0.95028   0.42332   0.00000  Uiso   1.00
H527   H     0.55394   0.94851   0.67667   0.00000  Uiso   1.00
H528   H     0.62142   0.94385   0.02534   0.00000  Uiso   1.00
C529   C     0.67440   0.93125   0.69798   0.00000  Uiso   1.00
C530   C     0.65714   0.06145   0.59704   0.00000  Uiso   1.00
H531   H     0.62834   0.05209   0.03486   0.00000  Uiso   1.00
H532   H     0.71418   0.03793   0.39883   0.00000  Uiso   1.00
H533   H     0.73920   0.05886   0.00992   0.00000  Uiso   1.00
H534   H     0.72863   0.95210   0.12272   0.00000  Uiso   1.00
C535   C     0.68373   0.08546   0.70960   0.00000  Uiso   1.00
H536   H     0.66337   0.05682   0.40185   0.00000  Uiso   1.00
C537   C     0.62297   0.08028   0.58724   0.00000  Uiso   1.00
C538   C     0.67720   0.90419   0.89955   0.00000  Uiso   1.00
C539   C     0.65753   0.91519   0.47674   0.00000  Uiso   1.00
H540   H     0.70083   0.93648   0.64049   0.00000  Uiso   1.00
H541   H     0.69322   0.91313   0.05130   0.00000  Uiso   1.00
H542   H     0.65199   0.89627   0.96808   0.00000  Uiso   1.00
H543   H     0.69002   0.88119   0.82624   0.00000  Uiso   1.00
H544   H     0.67221   0.89270   0.41501   0.00000  Uiso   1.00
H545   H     0.63167   0.90648   0.51901   0.00000  Uiso   1.00
H546   H     0.65708   0.93406   0.32892   0.00000  Uiso   1.00
H547   H     0.68016   0.08774   0.91206   0.00000  Uiso   1.00
H548   H     0.70978   0.07692   0.67176   0.00000  Uiso   1.00
H549   H     0.68154   0.11115   0.62669   0.00000  Uiso   1.00
H550   H     0.60144   0.06284   0.60896   0.00000  Uiso   1.00
H551   H     0.62105   0.09865   0.73970   0.00000  Uiso   1.00
H552   H     0.62027   0.09432   0.41066   0.00000  Uiso   1.00
C553   C     0.52587   0.45745   0.18170   0.00000  Uiso   1.00
C554   C     0.52735   0.42711   0.04173   0.00000  Uiso   1.00
C555   C     0.49980   0.40485   0.02198   0.00000  Uiso   1.00
C556   C     0.47261   0.41235   0.18039   0.00000  Uiso   1.00
C557   C     0.47198   0.44176   0.33184   0.00000  Uiso   1.00
C558   C     0.49842   0.46639   0.33171   0.00000  Uiso   1.00
C559   C     0.46705   0.36702   0.71199   0.00000  Uiso   1.00
C560   C     0.46543   0.34205   0.52217   0.00000  Uiso   1.00
C561   C     0.49586   0.33226   0.39594   0.00000  Uiso   1.00
C562   C     0.52763   0.34527   0.48760   0.00000  Uiso   1.00
C563   C     0.52781   0.36471   0.70842   0.00000  Uiso   1.00
C564   C     0.49808   0.37779   0.81702   0.00000  Uiso   1.00
C565   C     0.51375   0.29060   0.06725   0.00000  Uiso   1.00
N566   N     0.49222   0.31142   0.17247   0.00000  Uiso   1.00
C567   C     0.53297   0.25647   0.70154   0.00000  Uiso   1.00
C568   C     0.47309   0.26331   0.76071   0.00000  Uiso   1.00
C569   C     0.50617   0.27064   0.83795   0.00000  Uiso   1.00
H570   H     0.54760   0.47325   0.19147   0.00000  Uiso   1.00
H571   H     0.55053   0.42110   0.94852   0.00000  Uiso   1.00
H572   H     0.45028   0.39732   0.17332   0.00000  Uiso   1.00
H573   H     0.44851   0.44606   0.42667   0.00000  Uiso   1.00
H574   H     0.44385   0.37858   0.77534   0.00000  Uiso   1.00
C575   C     0.43125   0.32560   0.44798   0.00000  Uiso   1.00
C576   C     0.56145   0.34286   0.34704   0.00000  Uiso   1.00
H577   H     0.55209   0.37166   0.78486   0.00000  Uiso   1.00
H578   H     0.53793   0.28582   0.14883   0.00000  Uiso   1.00
H579   H     0.55886   0.26080   0.75992   0.00000  Uiso   1.00
H580   H     0.45210   0.27137   0.87272   0.00000  Uiso   1.00
C581   C     0.58546   0.31627   0.45960   0.00000  Uiso   1.00
H582   H     0.55682   0.33663   0.15185   0.00000  Uiso   1.00
C583   C     0.58028   0.37703   0.33724   0.00000  Uiso   1.00
C584   C     0.40419   0.32280   0.64955   0.00000  Uiso   1.00
C585   C     0.41519   0.34247   0.22674   0.00000  Uiso   1.00
H586   H     0.43648   0.29917   0.39049   0.00000  Uiso   1.00
H587   H     0.41313   0.30678   0.80130   0.00000  Uiso   1.00
H588   H     0.39627   0.34801   0.71808   0.00000  Uiso   1.00
H589   H     0.38119   0.30998   0.57624   0.00000  Uiso   1.00
H590   H     0.39270   0.32779   0.16501   0.00000  Uiso   1.00
H591   H     0.40648   0.36833   0.26901   0.00000  Uiso   1.00
H592   H     0.43406   0.34292   0.07892   0.00000  Uiso   1.00
H593   H     0.58774   0.31984   0.66206   0.00000  Uiso   1.00
H594   H     0.57692   0.29022   0.42176   0.00000  Uiso   1.00
H595   H     0.61115   0.31846   0.37669   0.00000  Uiso   1.00
H596   H     0.56284   0.39856   0.35896   0.00000  Uiso   1.00
H597   H     0.59865   0.37895   0.48970   0.00000  Uiso   1.00
H598   H     0.59432   0.37973   0.16066   0.00000  Uiso   1.00
C599   C     0.02587   0.95745   0.68170   0.00000  Uiso   1.00
C600   C     0.02735   0.92711   0.54173   0.00000  Uiso   1.00
C601   C     0.99980   0.90485   0.52198   0.00000  Uiso   1.00
C602   C     0.97261   0.91235   0.68039   0.00000  Uiso   1.00
C603   C     0.97198   0.94176   0.83184   0.00000  Uiso   1.00
C604   C     0.99842   0.96639   0.83171   0.00000  Uiso   1.00
C605   C     0.96705   0.86702   0.21199   0.00000  Uiso   1.00
C606   C     0.96543   0.84205   0.02217   0.00000  Uiso   1.00
C607   C     0.99586   0.83226   0.89594   0.00000  Uiso   1.00
C608   C     0.02763   0.84527   0.98760   0.00000  Uiso   1.00
C609   C     0.02781   0.86471   0.20842   0.00000  Uiso   1.00
C610   C     0.99808   0.87779   0.31702   0.00000  Uiso   1.00
C611   C     0.01375   0.79060   0.56725   0.00000  Uiso   1.00
N612   N     0.99222   0.81142   0.67247   0.00000  Uiso   1.00
C613   C     0.03297   0.75647   0.20154   0.00000  Uiso   1.00
C614   C     0.97309   0.76331   0.26071   0.00000  Uiso   1.00
C615   C     0.00617   0.77064   0.33795   0.00000  Uiso   1.00
H616   H     0.04760   0.97325   0.69147   0.00000  Uiso   1.00
H617   H     0.05053   0.92110   0.44852   0.00000  Uiso   1.00
H618   H     0.95028   0.89732   0.67332   0.00000  Uiso   1.00
H619   H     0.94851   0.94606   0.92667   0.00000  Uiso   1.00
H620   H     0.94385   0.87858   0.27534   0.00000  Uiso   1.00
C621   C     0.93125   0.82560   0.94798   0.00000  Uiso   1.00
C622   C     0.06145   0.84286   0.84704   0.00000  Uiso   1.00
H623   H     0.05209   0.87166   0.28486   0.00000  Uiso   1.00
H624   H     0.03793   0.78582   0.64883   0.00000  Uiso   1.00
H625   H     0.05886   0.76080   0.25992   0.00000  Uiso   1.00
H626   H     0.95210   0.77137   0.37272   0.00000  Uiso   1.00
C627   C     0.08546   0.81627   0.95960   0.00000  Uiso   1.00
H628   H     0.05682   0.83663   0.65185   0.00000  Uiso   1.00
C629   C     0.08028   0.87703   0.83724   0.00000  Uiso   1.00
C630   C     0.90419   0.82280   0.14955   0.00000  Uiso   1.00
C631   C     0.91519   0.84247   0.72674   0.00000  Uiso   1.00
H632   H     0.93648   0.79917   0.89049   0.00000  Uiso   1.00
H633   H     0.91313   0.80678   0.30130   0.00000  Uiso   1.00
H634   H     0.89627   0.84801   0.21808   0.00000  Uiso   1.00
H635   H     0.88119   0.80998   0.07624   0.00000  Uiso   1.00
H636   H     0.89270   0.82779   0.66501   0.00000  Uiso   1.00
H637   H     0.90648   0.86833   0.76901   0.00000  Uiso   1.00
H638   H     0.93406   0.84292   0.57892   0.00000  Uiso   1.00
H639   H     0.08774   0.81984   0.16206   0.00000  Uiso   1.00
H640   H     0.07692   0.79022   0.92176   0.00000  Uiso   1.00
H641   H     0.11115   0.81846   0.87669   0.00000  Uiso   1.00
H642   H     0.06284   0.89856   0.85896   0.00000  Uiso   1.00
H643   H     0.09865   0.87895   0.98970   0.00000  Uiso   1.00
H644   H     0.09432   0.87973   0.66066   0.00000  Uiso   1.00
C645   C     0.97413   0.04255   0.68170   0.00000  Uiso   1.00
C646   C     0.97265   0.07289   0.54173   0.00000  Uiso   1.00
C647   C     0.00020   0.09515   0.52198   0.00000  Uiso   1.00
C648   C     0.02739   0.08765   0.68039   0.00000  Uiso   1.00
C649   C     0.02802   0.05824   0.83184   0.00000  Uiso   1.00
C650   C     0.00158   0.03361   0.83171   0.00000  Uiso   1.00
C651   C     0.03295   0.13298   0.21199   0.00000  Uiso   1.00
C652   C     0.03457   0.15795   0.02217   0.00000  Uiso   1.00
C653   C     0.00414   0.16774   0.89594   0.00000  Uiso   1.00
C654   C     0.97237   0.15473   0.98760   0.00000  Uiso   1.00
C655   C     0.97219   0.13529   0.20842   0.00000  Uiso   1.00
C656   C     0.00192   0.12221   0.31702   0.00000  Uiso   1.00
C657   C     0.98625   0.20940   0.56725   0.00000  Uiso   1.00
N658   N     0.00778   0.18858   0.67247   0.00000  Uiso   1.00
C659   C     0.96703   0.24353   0.20154   0.00000  Uiso   1.00
C660   C     0.02691   0.23669   0.26071   0.00000  Uiso   1.00
C661   C     0.99383   0.22936   0.33795   0.00000  Uiso   1.00
H662   H     0.95240   0.02675   0.69147   0.00000  Uiso   1.00
H663   H     0.94947   0.07890   0.44852   0.00000  Uiso   1.00
H664   H     0.04972   0.10268   0.67332   0.00000  Uiso   1.00
H665   H     0.05149   0.05394   0.92667   0.00000  Uiso   1.00
H666   H     0.05615   0.12142   0.27534   0.00000  Uiso   1.00
C667   C     0.06875   0.17440   0.94798   0.00000  Uiso   1.00
C668   C     0.93855   0.15714   0.84704   0.00000  Uiso   1.00
H669   H     0.94791   0.12834   0.28486   0.00000  Uiso   1.00
H670   H     0.96207   0.21418   0.64883   0.00000  Uiso   1.00
H671   H     0.94114   0.23920   0.25992   0.00000  Uiso   1.00
H672   H     0.04790   0.22863   0.37272   0.00000  Uiso   1.00
C673   C     0.91454   0.18373   0.95960   0.00000  Uiso   1.00
H674   H     0.94318   0.16337   0.65185   0.00000  Uiso   1.00
C675   C     0.91972   0.12297   0.83724   0.00000  Uiso   1.00
C676   C     0.09581   0.17720   0.14955   0.00000  Uiso   1.00
C677   C     0.08481   0.15753   0.72674   0.00000  Uiso   1.00
H678   H     0.06352   0.20083   0.89049   0.00000  Uiso   1.00
H679   H     0.08687   0.19322   0.30130   0.00000  Uiso   1.00
H680   H     0.10373   0.15199   0.21808   0.00000  Uiso   1.00
H681   H     0.11881   0.19002   0.07624   0.00000  Uiso   1.00
H682   H     0.10730   0.17221   0.66501   0.00000  Uiso   1.00
H683   H     0.09352   0.13167   0.76901   0.00000  Uiso   1.00
H684   H     0.06594   0.15708   0.57892   0.00000  Uiso   1.00
H685   H     0.91226   0.18016   0.16206   0.00000  Uiso   1.00
H686   H     0.92308   0.20978   0.92176   0.00000  Uiso   1.00
H687   H     0.88885   0.18154   0.87669   0.00000  Uiso   1.00
H688   H     0.93716   0.10144   0.85896   0.00000  Uiso   1.00
H689   H     0.90135   0.12105   0.98970   0.00000  Uiso   1.00
H690   H     0.90568   0.12027   0.66066   0.00000  Uiso   1.00
C691   C     0.47413   0.54255   0.18170   0.00000  Uiso   1.00
C692   C     0.47265   0.57289   0.04173   0.00000  Uiso   1.00
C693   C     0.50020   0.59515   0.02198   0.00000  Uiso   1.00
C694   C     0.52739   0.58765   0.18039   0.00000  Uiso   1.00
C695   C     0.52802   0.55824   0.33184   0.00000  Uiso   1.00
C696   C     0.50158   0.53361   0.33171   0.00000  Uiso   1.00
C697   C     0.53295   0.63298   0.71199   0.00000  Uiso   1.00
C698   C     0.53457   0.65795   0.52217   0.00000  Uiso   1.00
C699   C     0.50414   0.66774   0.39594   0.00000  Uiso   1.00
C700   C     0.47237   0.65473   0.48760   0.00000  Uiso   1.00
C701   C     0.47219   0.63529   0.70842   0.00000  Uiso   1.00
C702   C     0.50192   0.62221   0.81702   0.00000  Uiso   1.00
C703   C     0.48625   0.70940   0.06725   0.00000  Uiso   1.00
N704   N     0.50778   0.68858   0.17247   0.00000  Uiso   1.00
C705   C     0.46703   0.74353   0.70154   0.00000  Uiso   1.00
C706   C     0.52691   0.73669   0.76071   0.00000  Uiso   1.00
C707   C     0.49383   0.72936   0.83795   0.00000  Uiso   1.00
H708   H     0.45240   0.52675   0.19147   0.00000  Uiso   1.00
H709   H     0.44947   0.57890   0.94852   0.00000  Uiso   1.00
H710   H     0.54972   0.60268   0.17332   0.00000  Uiso   1.00
H711   H     0.55149   0.55394   0.42667   0.00000  Uiso   1.00
H712   H     0.55615   0.62142   0.77534   0.00000  Uiso   1.00
C713   C     0.56875   0.67440   0.44798   0.00000  Uiso   1.00
C714   C     0.43855   0.65714   0.34704   0.00000  Uiso   1.00
H715   H     0.44791   0.62834   0.78486   0.00000  Uiso   1.00
H716   H     0.46207   0.71418   0.14883   0.00000  Uiso   1.00
H717   H     0.44114   0.73920   0.75992   0.00000  Uiso   1.00
H718   H     0.54790   0.72863   0.87272   0.00000  Uiso   1.00
C719   C     0.41454   0.68373   0.45960   0.00000  Uiso   1.00
H720   H     0.44318   0.66337   0.15185   0.00000  Uiso   1.00
C721   C     0.41972   0.62297   0.33724   0.00000  Uiso   1.00
C722   C     0.59581   0.67720   0.64955   0.00000  Uiso   1.00
C723   C     0.58481   0.65753   0.22674   0.00000  Uiso   1.00
H724   H     0.56352   0.70083   0.39049   0.00000  Uiso   1.00
H725   H     0.58687   0.69322   0.80130   0.00000  Uiso   1.00
H726   H     0.60373   0.65199   0.71808   0.00000  Uiso   1.00
H727   H     0.61881   0.69002   0.57624   0.00000  Uiso   1.00
H728   H     0.60730   0.67221   0.16501   0.00000  Uiso   1.00
H729   H     0.59352   0.63167   0.26901   0.00000  Uiso   1.00
H730   H     0.56594   0.65708   0.07892   0.00000  Uiso   1.00
H731   H     0.41226   0.68016   0.66206   0.00000  Uiso   1.00
H732   H     0.42308   0.70978   0.42176   0.00000  Uiso   1.00
H733   H     0.38885   0.68154   0.37669   0.00000  Uiso   1.00
H734   H     0.43716   0.60144   0.35896   0.00000  Uiso   1.00
H735   H     0.40135   0.62105   0.48970   0.00000  Uiso   1.00
H736   H     0.40568   0.62027   0.16066   0.00000  Uiso   1.00
C737   C     0.50000   0.50000   0.50000   0.00000  Uiso   1.00
C738   C     0.00000   0.00000   0.00000   0.00000  Uiso   1.00
C739   C     0.50000   0.00000   0.75000   0.00000  Uiso   1.00
C740   C     0.00000   0.50000   0.25000   0.00000  Uiso   1.00
loop_
_geom_bond_atom_site_label_1
_geom_bond_atom_site_label_2
_geom_bond_distance
_geom_bond_site_symmetry_2
_ccdc_geom_bond_type
C1     C2      1.423   .     S
C1     C6      1.405   .     D
C1     H18     1.060   .     S
C2     C3      1.399   .     D
C2     H19     1.073   1_556 S
C3     C4      1.412   .     S
C3     C12     1.553   1_556 S
C4     C5      1.427   .     D
C4     H20     1.061   .     S
C5     C6      1.423   .     S
C5     H21     1.075   .     S
C6     C737    1.616   .     S
C7     C8      1.436   .     S
C7     C12     1.417   .     D
C7     H22     1.079   .     S
C8     C9      1.438   .     D
C8     C23     1.549   .     S
C9     C10     1.443   .     S
C9     N14     1.485   .     S
C10    C11     1.435   .     D
C10    C24     1.543   .     S
C11    C12     1.412   .     S
C11    H25     1.080   .     S
C12    C3      1.553   1_554 S
C13    N14     1.314   .     D
C13    C17     1.516   1_556 S
C13    H26     1.069   .     S
C15    C17     1.410   .     S
C15    H27     1.083   .     S
C15    C430    1.423   .     D
C16    C17     1.400   .     D
C16    H28     1.079   .     S
C16    C429    1.423   .     S
C17    C13     1.516   1_554 S
H19    C2      1.073   1_554 S
C23    C32     1.542   .     S
C23    C33     1.524   .     S
C23    H34     1.107   .     S
C24    C29     1.541   .     S
C24    H30     1.116   .     S
C24    C31     1.538   .     S
C29    H41     1.126   .     S
C29    H42     1.100   .     S
C29    H43     1.113   .     S
C31    H44     1.098   .     S
C31    H45     1.110   .     S
C31    H46     1.122   .     S
C32    H35     1.104   .     S
C32    H36     1.107   .     S
C32    H37     1.113   .     S
C33    H38     1.111   .     S
C33    H39     1.100   .     S
C33    H40     1.102   .     S
C47    C48     1.423   .     S
C47    C52     1.405   1_545 D
C47    H64     1.060   .     S
C48    C49     1.399   1_545 D
C48    H65     1.073   .     S
C49    C48     1.399   1_565 D
C49    C50     1.412   .     S
C49    C58     1.553   .     S
C50    C51     1.427   .     D
C50    H66     1.061   .     S
C51    C52     1.423   .     S
C51    H67     1.075   .     S
C52    C47     1.405   1_565 D
C52    C738    1.616   1_565 S
C53    C54     1.436   .     S
C53    C58     1.417   .     D
C53    H68     1.079   .     S
C54    C55     1.438   1_556 D
C54    C69     1.549   1_556 S
C55    C54     1.438   1_554 D
C55    C56     1.443   1_565 S
C55    N60     1.485   .     S
C56    C55     1.443   1_545 S
C56    C57     1.435   1_554 D
C56    C70     1.543   .     S
C57    C56     1.435   1_556 D
C57    C58     1.412   1_545 S
C57    H71     1.080   .     S
C58    C57     1.412   1_565 S
C59    N60     1.314   1_545 D
C59    C63     1.516   .     S
C59    H72     1.069   .     S
N60    C59     1.314   1_565 D
C61    C63     1.410   .     D
C61    H73     1.083   .     S
C61    C384    1.423   1_556 S
C62    C63     1.400   1_565 S
C62    H74     1.079   .     S
C62    C383    1.423   .     D
C63    C62     1.400   1_545 S
C69    C54     1.549   1_554 S
C69    C78     1.542   1_554 S
C69    C79     1.524   .     S
C69    H80     1.107   .     S
C70    C75     1.541   .     S
C70    H76     1.116   .     S
C70    C77     1.538   .     S
C75    H87     1.126   1_554 S
C75    H88     1.100   .     S
C75    H89     1.113   .     S
C77    H90     1.098   .     S
C77    H91     1.110   .     S
C77    H92     1.122   .     S
C78    C69     1.542   1_556 S
C78    H81     1.104   .     S
C78    H82     1.107   .     S
C78    H83     1.113   .     S
C79    H84     1.111   .     S
C79    H85     1.100   .     S
C79    H86     1.102   .     S
H87    C75     1.126   1_556 S
C93    C94     1.423   .     D
C93    C98     1.405   1_565 S
C93    H110    1.060   .     S
C94    C95     1.399   1_565 S
C94    H111    1.073   .     S
C95    C94     1.399   1_545 S
C95    C96     1.412   .     D
C95    C104    1.553   .     S
C96    C97     1.427   .     S
C96    H112    1.061   .     S
C97    C98     1.423   .     D
C97    H113    1.075   .     S
C98    C93     1.405   1_545 S
C98    C738    1.616   1_655 S
C99    C100    1.436   .     D
C99    C104    1.417   .     S
C99    H114    1.079   .     S
C100   C101    1.438   1_556 S
C100   C115    1.549   1_556 S
C101   C100    1.438   1_554 S
C101   C102    1.443   1_545 D
C101   N106    1.485   .     S
C102   C101    1.443   1_565 D
C102   C103    1.435   1_554 S
C102   C116    1.543   .     S
C103   C102    1.435   1_556 S
C103   C104    1.412   1_565 D
C103   H117    1.080   .     S
C104   C103    1.412   1_545 D
C105   N106    1.314   1_565 D
C105   C109    1.516   .     S
C105   H118    1.069   .     S
N106   C105    1.314   1_545 D
C107   C109    1.410   .     S
C107   H119    1.083   .     S
C107   C522    1.423   1_556 D
C108   C109    1.400   1_545 D
C108   H120    1.079   .     S
C108   C521    1.423   .     S
C109   C108    1.400   1_565 D
C115   C100    1.549   1_554 S
C115   C124    1.542   1_554 S
C115   C125    1.524   .     S
C115   H126    1.107   .     S
C116   C121    1.541   .     S
C116   H122    1.116   .     S
C116   C123    1.538   .     S
C121   H133    1.126   1_554 S
C121   H134    1.100   .     S
C121   H135    1.113   .     S
C123   H136    1.098   .     S
C123   H137    1.110   .     S
C123   H138    1.122   .     S
C124   C115    1.542   1_556 S
C124   H127    1.104   .     S
C124   H128    1.107   .     S
C124   H129    1.113   .     S
C125   H130    1.111   .     S
C125   H131    1.100   .     S
C125   H132    1.102   .     S
H133   C121    1.126   1_556 S
C139   C140    1.423   .     S
C139   C144    1.405   .     D
C139   H156    1.060   .     S
C140   C141    1.399   .     D
C140   H157    1.073   1_556 S
C141   C142    1.412   .     S
C141   C150    1.553   1_556 S
C142   C143    1.427   .     D
C142   H158    1.061   .     S
C143   C144    1.423   .     S
C143   H159    1.075   .     S
C144   C737    1.616   .     S
C145   C146    1.436   .     S
C145   C150    1.417   .     D
C145   H160    1.079   .     S
C146   C147    1.438   .     D
C146   C161    1.549   .     S
C147   C148    1.443   .     S
C147   N152    1.485   .     S
C148   C149    1.435   .     D
C148   C162    1.543   .     S
C149   C150    1.412   .     S
C149   H163    1.080   .     S
C150   C141    1.553   1_554 S
C151   N152    1.314   .     D
C151   C155    1.516   1_556 S
C151   H164    1.069   .     S
C153   C155    1.410   .     S
C153   H165    1.083   .     S
C153   C476    1.423   .     D
C154   C155    1.400   .     D
C154   H166    1.079   .     S
C154   C475    1.423   .     S
C155   C151    1.516   1_554 S
H157   C140    1.073   1_554 S
C161   C170    1.542   .     S
C161   C171    1.524   .     S
C161   H172    1.107   .     S
C162   C167    1.541   .     S
C162   H168    1.116   .     S
C162   C169    1.538   .     S
C167   H179    1.126   .     S
C167   H180    1.100   .     S
C167   H181    1.113   .     S
C169   H182    1.098   .     S
C169   H183    1.110   .     S
C169   H184    1.122   .     S
C170   H173    1.104   .     S
C170   H174    1.107   .     S
C170   H175    1.113   .     S
C171   H176    1.111   .     S
C171   H177    1.100   .     S
C171   H178    1.102   .     S
C185   C186    1.423   .     S
C185   C190    1.405   1_554 D
C185   H202    1.060   .     S
C186   C187    1.399   .     D
C186   H203    1.073   .     S
C187   C188    1.412   .     S
C187   C196    1.553   .     S
C188   C189    1.427   1_554 D
C188   H204    1.061   .     S
C189   C188    1.427   1_556 D
C189   C190    1.423   .     S
C189   H205    1.075   .     S
C190   C185    1.405   1_556 D
C190   C739    1.616   .     S
C191   C192    1.436   .     S
C191   C196    1.417   .     D
C191   H206    1.079   .     S
C192   C193    1.438   .     D
C192   C207    1.549   .     S
C193   C194    1.443   .     S
C193   N198    1.485   1_556 S
C194   C195    1.435   .     D
C194   C208    1.543   .     S
C195   C196    1.412   .     S
C195   H209    1.080   .     S
C197   N198    1.314   .     D
C197   C201    1.516   .     S
C197   H210    1.069   .     S
N198   C193    1.485   1_554 S
C199   C201    1.410   .     S
C199   H211    1.083   .     S
C199   C568    1.423   .     D
C200   C201    1.400   .     D
C200   H212    1.079   .     S
C200   C567    1.423   .     S
C207   C216    1.542   .     S
C207   C217    1.524   1_556 S
C207   H218    1.107   .     S
C208   C213    1.541   .     S
C208   H214    1.116   1_556 S
C208   C215    1.538   .     S
C213   H225    1.126   .     S
C213   H226    1.100   .     S
C213   H227    1.113   .     S
H214   C208    1.116   1_554 S
C215   H228    1.098   .     S
C215   H229    1.110   .     S
C215   H230    1.122   1_556 S
C216   H219    1.104   .     S
C216   H220    1.107   .     S
C216   H221    1.113   .     S
C217   C207    1.524   1_554 S
C217   H222    1.111   .     S
C217   H223    1.100   1_554 S
C217   H224    1.102   .     S
H223   C217    1.100   1_556 S
H230   C215    1.122   1_554 S
C231   C232    1.423   .     D
C231   C236    1.405   1_655 S
C231   H248    1.060   .     S
C232   C233    1.399   1_655 S
C232   H249    1.073   .     S
C233   C232    1.399   1_455 S
C233   C234    1.412   .     D
C233   C242    1.553   .     S
C234   C235    1.427   .     S
C234   H250    1.061   .     S
C235   C236    1.423   .     D
C235   H251    1.075   .     S
C236   C231    1.405   1_455 S
C236   C740    1.616   .     S
C237   C238    1.436   .     D
C237   C242    1.417   1_554 S
C237   H252    1.079   1_554 S
C238   C239    1.438   .     S
C238   C253    1.549   .     S
C239   C240    1.443   1_455 D
C239   N244    1.485   .     S
C240   C239    1.443   1_655 D
C240   C241    1.435   .     S
C240   C254    1.543   .     S
C241   C242    1.412   1_654 D
C241   H255    1.080   1_554 S
C242   C237    1.417   1_556 S
C242   C241    1.412   1_456 D
C243   N244    1.314   1_655 D
C243   C247    1.516   .     S
C243   H256    1.069   .     S
N244   C243    1.314   1_455 D
C245   C247    1.410   1_554 D
C245   H257    1.083   1_554 S
C245   C614    1.423   .     S
C246   C247    1.400   1_455 S
C246   H258    1.079   .     S
C246   C613    1.423   1_556 D
C247   C246    1.400   1_655 S
C247   C245    1.410   1_556 D
H252   C237    1.079   1_556 S
C253   C262    1.542   .     S
C253   C263    1.524   .     S
C253   H264    1.107   .     S
C254   C259    1.541   .     S
C254   H260    1.116   .     S
C254   C261    1.538   .     S
H255   C241    1.080   1_556 S
H257   C245    1.083   1_556 S
C259   H271    1.126   .     S
C259   H272    1.100   .     S
C259   H273    1.113   .     S
C261   H274    1.098   .     S
C261   H275    1.110   .     S
C261   H276    1.122   .     S
C262   H265    1.104   1_554 S
C262   H266    1.107   .     S
C262   H267    1.113   .     S
C263   H268    1.111   .     S
C263   H269    1.100   .     S
C263   H270    1.102   .     S
H265   C262    1.104   1_556 S
C277   C278    1.423   .     D
C277   C282    1.405   1_455 S
C277   H294    1.060   .     S
C278   C279    1.399   1_455 S
C278   H295    1.073   .     S
C279   C278    1.399   1_655 S
C279   C280    1.412   .     D
C279   C288    1.553   .     S
C280   C281    1.427   .     S
C280   H296    1.061   .     S
C281   C282    1.423   .     D
C281   H297    1.075   .     S
C282   C277    1.405   1_655 S
C282   C740    1.616   1_655 S
C283   C284    1.436   .     D
C283   C288    1.417   1_554 S
C283   H298    1.079   1_554 S
C284   C285    1.438   .     S
C284   C299    1.549   .     S
C285   C286    1.443   1_655 D
C285   N290    1.485   .     S
C286   C285    1.443   1_455 D
C286   C287    1.435   .     S
C286   C300    1.543   .     S
C287   C288    1.412   1_454 D
C287   H301    1.080   1_554 S
C288   C287    1.412   1_656 D
C288   C283    1.417   1_556 S
C289   N290    1.314   1_455 D
C289   C293    1.516   .     S
C289   H302    1.069   .     S
N290   C289    1.314   1_655 D
C291   C293    1.410   1_554 S
C291   H303    1.083   1_554 S
C291   C660    1.423   .     D
C292   C293    1.400   1_655 D
C292   H304    1.079   .     S
C292   C659    1.423   1_556 S
C293   C291    1.410   1_556 S
C293   C292    1.400   1_455 D
H298   C283    1.079   1_556 S
C299   C308    1.542   .     S
C299   C309    1.524   .     S
C299   H310    1.107   .     S
C300   C305    1.541   .     S
C300   H306    1.116   .     S
C300   C307    1.538   .     S
H301   C287    1.080   1_556 S
H303   C291    1.083   1_556 S
C305   H317    1.126   .     S
C305   H318    1.100   .     S
C305   H319    1.113   .     S
C307   H320    1.098   .     S
C307   H321    1.110   .     S
C307   H322    1.122   .     S
C308   H311    1.104   1_554 S
C308   H312    1.107   .     S
C308   H313    1.113   .     S
C309   H314    1.111   .     S
C309   H315    1.100   .     S
C309   H316    1.102   .     S
H311   C308    1.104   1_556 S
C323   C324    1.423   .     S
C323   C328    1.405   1_554 D
C323   H340    1.060   .     S
C324   C325    1.399   .     D
C324   H341    1.073   .     S
C325   C326    1.412   .     S
C325   C334    1.553   .     S
C326   C327    1.427   1_554 D
C326   H342    1.061   .     S
C327   C326    1.427   1_556 D
C327   C328    1.423   .     S
C327   H343    1.075   .     S
C328   C323    1.405   1_556 D
C328   C739    1.616   1_565 S
C329   C330    1.436   .     S
C329   C334    1.417   .     D
C329   H344    1.079   .     S
C330   C331    1.438   .     D
C330   C345    1.549   .     S
C331   C332    1.443   .     S
C331   N336    1.485   1_556 S
C332   C333    1.435   .     D
C332   C346    1.543   .     S
C333   C334    1.412   .     S
C333   H347    1.080   .     S
C335   N336    1.314   .     D
C335   C339    1.516   .     S
C335   H348    1.069   .     S
N336   C331    1.485   1_554 S
C337   C339    1.410   .     S
C337   H349    1.083   .     S
C337   C706    1.423   .     D
C338   C339    1.400   .     D
C338   H350    1.079   .     S
C338   C705    1.423   .     S
C345   C354    1.542   .     S
C345   C355    1.524   1_556 S
C345   H356    1.107   .     S
C346   C351    1.541   .     S
C346   H352    1.116   1_556 S
C346   C353    1.538   .     S
C351   H363    1.126   .     S
C351   H364    1.100   .     S
C351   H365    1.113   .     S
H352   C346    1.116   1_554 S
C353   H366    1.098   .     S
C353   H367    1.110   .     S
C353   H368    1.122   1_556 S
C354   H357    1.104   .     S
C354   H358    1.107   .     S
C354   H359    1.113   .     S
C355   C345    1.524   1_554 S
C355   H360    1.111   .     S
C355   H361    1.100   1_554 S
C355   H362    1.102   .     S
H361   C355    1.100   1_556 S
H368   C353    1.122   1_554 S
C369   C370    1.423   .     S
C369   C374    1.405   1_565 D
C369   H386    1.060   .     S
C370   C371    1.399   1_565 D
C370   H387    1.073   .     S
C371   C370    1.399   1_545 D
C371   C372    1.412   .     S
C371   C380    1.553   .     S
C372   C373    1.427   .     D
C372   H388    1.061   .     S
C373   C374    1.423   .     S
C373   H389    1.075   .     S
C374   C369    1.405   1_545 D
C374   C739    1.616   .     S
C375   C376    1.436   .     S
C375   C380    1.417   1_556 D
C375   H390    1.079   1_556 S
C376   C377    1.438   .     D
C376   C391    1.549   .     S
C377   C378    1.443   1_545 S
C377   N382    1.485   .     S
C378   C377    1.443   1_565 S
C378   C379    1.435   .     D
C378   C392    1.543   .     S
C379   C380    1.412   1_566 S
C379   H393    1.080   1_556 S
C380   C375    1.417   1_554 D
C380   C379    1.412   1_544 S
C381   N382    1.314   1_565 D
C381   C385    1.516   .     S
C381   H394    1.069   .     S
N382   C381    1.314   1_545 D
C383   C385    1.410   1_556 S
C383   H395    1.083   1_556 S
C384   C61     1.423   1_554 S
C384   C385    1.400   1_545 D
C384   H396    1.079   .     S
C385   C384    1.400   1_565 D
C385   C383    1.410   1_554 S
H390   C375    1.079   1_554 S
C391   C400    1.542   .     S
C391   C401    1.524   .     S
C391   H402    1.107   .     S
C392   C397    1.541   .     S
C392   H398    1.116   .     S
C392   C399    1.538   .     S
H393   C379    1.080   1_554 S
H395   C383    1.083   1_554 S
C397   H409    1.126   .     S
C397   H410    1.100   .     S
C397   H411    1.113   .     S
C399   H412    1.098   .     S
C399   H413    1.110   .     S
C399   H414    1.122   .     S
C400   H403    1.104   1_556 S
C400   H404    1.107   .     S
C400   H405    1.113   .     S
C401   H406    1.111   .     S
C401   H407    1.100   .     S
C401   H408    1.102   .     S
H403   C400    1.104   1_554 S
C415   C416    1.423   .     S
C415   C420    1.405   1_556 D
C415   H432    1.060   .     S
C416   C417    1.399   .     D
C416   H433    1.073   .     S
C417   C418    1.412   .     S
C417   C426    1.553   .     S
C418   C419    1.427   1_556 D
C418   H434    1.061   .     S
C419   C418    1.427   1_554 D
C419   C420    1.423   .     S
C419   H435    1.075   .     S
C420   C415    1.405   1_554 D
C420   C740    1.616   1_655 S
C421   C422    1.436   .     S
C421   C426    1.417   .     D
C421   H436    1.079   .     S
C422   C423    1.438   .     D
C422   C437    1.549   .     S
C423   C424    1.443   .     S
C423   N428    1.485   1_554 S
C424   C425    1.435   .     D
C424   C438    1.543   .     S
C425   C426    1.412   .     S
C425   H439    1.080   .     S
C427   N428    1.314   .     D
C427   C431    1.516   .     S
C427   H440    1.069   .     S
N428   C423    1.485   1_556 S
C429   C431    1.410   .     D
C429   H441    1.083   .     S
C430   C431    1.400   .     S
C430   H442    1.079   .     S
C437   C446    1.542   .     S
C437   C447    1.524   1_554 S
C437   H448    1.107   .     S
C438   C443    1.541   .     S
C438   H444    1.116   1_554 S
C438   C445    1.538   .     S
C443   H455    1.126   .     S
C443   H456    1.100   .     S
C443   H457    1.113   .     S
H444   C438    1.116   1_556 S
C445   H458    1.098   .     S
C445   H459    1.110   .     S
C445   H460    1.122   1_554 S
C446   H449    1.104   .     S
C446   H450    1.107   .     S
C446   H451    1.113   .     S
C447   C437    1.524   1_556 S
C447   H452    1.111   .     S
C447   H453    1.100   1_556 S
C447   H454    1.102   .     S
H453   C447    1.100   1_554 S
H460   C445    1.122   1_556 S
C461   C462    1.423   .     S
C461   C466    1.405   1_556 D
C461   H478    1.060   .     S
C462   C463    1.399   .     D
C462   H479    1.073   .     S
C463   C464    1.412   .     S
C463   C472    1.553   .     S
C464   C465    1.427   1_556 D
C464   H480    1.061   .     S
C465   C464    1.427   1_554 D
C465   C466    1.423   .     S
C465   H481    1.075   .     S
C466   C461    1.405   1_554 D
C466   C740    1.616   .     S
C467   C468    1.436   .     S
C467   C472    1.417   .     D
C467   H482    1.079   .     S
C468   C469    1.438   .     D
C468   C483    1.549   .     S
C469   C470    1.443   .     S
C469   N474    1.485   1_554 S
C470   C471    1.435   .     D
C470   C484    1.543   .     S
C471   C472    1.412   .     S
C471   H485    1.080   .     S
C473   N474    1.314   .     D
C473   C477    1.516   .     S
C473   H486    1.069   .     S
N474   C469    1.485   1_556 S
C475   C477    1.410   .     D
C475   H487    1.083   .     S
C476   C477    1.400   .     S
C476   H488    1.079   .     S
C483   C492    1.542   .     S
C483   C493    1.524   1_554 S
C483   H494    1.107   .     S
C484   C489    1.541   .     S
C484   H490    1.116   1_554 S
C484   C491    1.538   .     S
C489   H501    1.126   .     S
C489   H502    1.100   .     S
C489   H503    1.113   .     S
H490   C484    1.116   1_556 S
C491   H504    1.098   .     S
C491   H505    1.110   .     S
C491   H506    1.122   1_554 S
C492   H495    1.104   .     S
C492   H496    1.107   .     S
C492   H497    1.113   .     S
C493   C483    1.524   1_556 S
C493   H498    1.111   .     S
C493   H499    1.100   1_556 S
C493   H500    1.102   .     S
H499   C493    1.100   1_554 S
H506   C491    1.122   1_556 S
C507   C508    1.423   .     D
C507   C512    1.405   1_545 S
C507   H524    1.060   .     S
C508   C509    1.399   1_545 S
C508   H525    1.073   .     S
C509   C508    1.399   1_565 S
C509   C510    1.412   .     D
C509   C518    1.553   .     S
C510   C511    1.427   .     S
C510   H526    1.061   .     S
C511   C512    1.423   .     D
C511   H527    1.075   .     S
C512   C507    1.405   1_565 S
C512   C739    1.616   1_565 S
C513   C514    1.436   .     S
C513   C518    1.417   1_556 D
C513   H528    1.079   1_556 S
C514   C515    1.438   .     D
C514   C529    1.549   .     S
C515   C516    1.443   1_565 S
C515   N520    1.485   .     S
C516   C515    1.443   1_545 S
C516   C517    1.435   .     D
C516   C530    1.543   .     S
C517   C518    1.412   1_546 S
C517   H531    1.080   1_556 S
C518   C517    1.412   1_564 S
C518   C513    1.417   1_554 D
C519   N520    1.314   1_545 D
C519   C523    1.516   .     S
C519   H532    1.069   .     S
N520   C519    1.314   1_565 D
C521   C523    1.410   1_556 D
C521   H533    1.083   1_556 S
C522   C107    1.423   1_554 D
C522   C523    1.400   1_565 S
C522   H534    1.079   .     S
C523   C522    1.400   1_545 S
C523   C521    1.410   1_554 D
H528   C513    1.079   1_554 S
C529   C538    1.542   .     S
C529   C539    1.524   .     S
C529   H540    1.107   .     S
C530   C535    1.541   .     S
C530   H536    1.116   .     S
C530   C537    1.538   .     S
H531   C517    1.080   1_554 S
H533   C521    1.083   1_554 S
C535   H547    1.126   .     S
C535   H548    1.100   .     S
C535   H549    1.113   .     S
C537   H550    1.098   .     S
C537   H551    1.110   .     S
C537   H552    1.122   .     S
C538   H541    1.104   1_556 S
C538   H542    1.107   .     S
C538   H543    1.113   .     S
C539   H544    1.111   .     S
C539   H545    1.100   .     S
C539   H546    1.102   .     S
H541   C538    1.104   1_554 S
C553   C554    1.423   .     S
C553   C558    1.405   .     D
C553   H570    1.060   .     S
C554   C555    1.399   .     D
C554   H571    1.073   1_554 S
C555   C556    1.412   .     S
C555   C564    1.553   1_554 S
C556   C557    1.427   .     D
C556   H572    1.061   .     S
C557   C558    1.423   .     S
C557   H573    1.075   .     S
C558   C737    1.616   .     S
C559   C560    1.436   .     S
C559   C564    1.417   .     D
C559   H574    1.079   .     S
C560   C561    1.438   .     D
C560   C575    1.549   .     S
C561   C562    1.443   .     S
C561   N566    1.485   .     S
C562   C563    1.435   .     D
C562   C576    1.543   .     S
C563   C564    1.412   .     S
C563   H577    1.080   .     S
C564   C555    1.553   1_556 S
C565   N566    1.314   .     D
C565   C569    1.516   1_554 S
C565   H578    1.069   .     S
C567   C569    1.410   .     D
C567   H579    1.083   .     S
C568   C569    1.400   .     S
C568   H580    1.079   .     S
C569   C565    1.516   1_556 S
H571   C554    1.073   1_556 S
C575   C584    1.542   .     S
C575   C585    1.524   .     S
C575   H586    1.107   .     S
C576   C581    1.541   .     S
C576   H582    1.116   .     S
C576   C583    1.538   .     S
C581   H593    1.126   .     S
C581   H594    1.100   .     S
C581   H595    1.113   .     S
C583   H596    1.098   .     S
C583   H597    1.110   .     S
C583   H598    1.122   .     S
C584   H587    1.104   .     S
C584   H588    1.107   .     S
C584   H589    1.113   .     S
C585   H590    1.111   .     S
C585   H591    1.100   .     S
C585   H592    1.102   .     S
C599   C600    1.423   .     D
C599   C604    1.405   1_455 S
C599   H616    1.060   .     S
C600   C601    1.399   1_455 S
C600   H617    1.073   .     S
C601   C600    1.399   1_655 S
C601   C602    1.412   .     D
C601   C610    1.553   .     S
C602   C603    1.427   .     S
C602   H618    1.061   .     S
C603   C604    1.423   .     D
C603   H619    1.075   .     S
C604   C599    1.405   1_655 S
C604   C738    1.616   1_666 S
C605   C606    1.436   .     S
C605   C610    1.417   .     D
C605   H620    1.079   .     S
C606   C607    1.438   1_554 D
C606   C621    1.549   1_554 S
C607   C606    1.438   1_556 D
C607   C608    1.443   1_655 S
C607   N612    1.485   .     S
C608   C607    1.443   1_455 S
C608   C609    1.435   1_556 D
C608   C622    1.543   .     S
C609   C608    1.435   1_554 D
C609   C610    1.412   1_455 S
C609   H623    1.080   .     S
C610   C609    1.412   1_655 S
C611   N612    1.314   1_455 D
C611   C615    1.516   .     S
C611   H624    1.069   .     S
N612   C611    1.314   1_655 D
C613   C246    1.423   1_554 D
C613   C615    1.410   .     S
C613   H625    1.083   .     S
C614   C615    1.400   1_655 D
C614   H626    1.079   .     S
C615   C614    1.400   1_455 D
C621   C606    1.549   1_556 S
C621   C630    1.542   1_556 S
C621   C631    1.524   .     S
C621   H632    1.107   .     S
C622   C627    1.541   .     S
C622   H628    1.116   .     S
C622   C629    1.538   .     S
C627   H639    1.126   1_556 S
C627   H640    1.100   .     S
C627   H641    1.113   .     S
C629   H642    1.098   .     S
C629   H643    1.110   .     S
C629   H644    1.122   .     S
C630   C621    1.542   1_554 S
C630   H633    1.104   .     S
C630   H634    1.107   .     S
C630   H635    1.113   .     S
C631   H636    1.111   .     S
C631   H637    1.100   .     S
C631   H638    1.102   .     S
H639   C627    1.126   1_554 S
C645   C646    1.423   .     D
C645   C650    1.405   1_655 S
C645   H662    1.060   .     S
C646   C647    1.399   1_655 S
C646   H663    1.073   .     S
C647   C646    1.399   1_455 S
C647   C648    1.412   .     D
C647   C656    1.553   .     S
C648   C649    1.427   .     S
C648   H664    1.061   .     S
C649   C650    1.423   .     D
C649   H665    1.075   .     S
C650   C645    1.405   1_455 S
C650   C738    1.616   1_556 S
C651   C652    1.436   .     D
C651   C656    1.417   .     S
C651   H666    1.079   .     S
C652   C653    1.438   1_554 S
C652   C667    1.549   1_554 S
C653   C652    1.438   1_556 S
C653   C654    1.443   1_455 D
C653   N658    1.485   .     S
C654   C653    1.443   1_655 D
C654   C655    1.435   1_556 S
C654   C668    1.543   .     S
C655   C654    1.435   1_554 S
C655   C656    1.412   1_655 D
C655   H669    1.080   .     S
C656   C655    1.412   1_455 D
C657   N658    1.314   1_655 D
C657   C661    1.516   .     S
C657   H670    1.069   .     S
N658   C657    1.314   1_455 D
C659   C292    1.423   1_554 S
C659   C661    1.410   .     D
C659   H671    1.083   .     S
C660   C661    1.400   1_455 S
C660   H672    1.079   .     S
C661   C660    1.400   1_655 S
C667   C652    1.549   1_556 S
C667   C676    1.542   1_556 S
C667   C677    1.524   .     S
C667   H678    1.107   .     S
C668   C673    1.541   .     S
C668   H674    1.116   .     S
C668   C675    1.538   .     S
C673   H685    1.126   1_556 S
C673   H686    1.100   .     S
C673   H687    1.113   .     S
C675   H688    1.098   .     S
C675   H689    1.110   .     S
C675   H690    1.122   .     S
C676   C667    1.542   1_554 S
C676   H679    1.104   .     S
C676   H680    1.107   .     S
C676   H681    1.113   .     S
C677   H682    1.111   .     S
C677   H683    1.100   .     S
C677   H684    1.102   .     S
H685   C673    1.126   1_554 S
C691   C692    1.423   .     S
C691   C696    1.405   .     D
C691   H708    1.060   .     S
C692   C693    1.399   .     D
C692   H709    1.073   1_554 S
C693   C694    1.412   .     S
C693   C702    1.553   1_554 S
C694   C695    1.427   .     D
C694   H710    1.061   .     S
C695   C696    1.423   .     S
C695   H711    1.075   .     S
C696   C737    1.616   .     S
C697   C698    1.436   .     S
C697   C702    1.417   .     D
C697   H712    1.079   .     S
C698   C699    1.438   .     D
C698   C713    1.549   .     S
C699   C700    1.443   .     S
C699   N704    1.485   .     S
C700   C701    1.435   .     D
C700   C714    1.543   .     S
C701   C702    1.412   .     S
C701   H715    1.080   .     S
C702   C693    1.553   1_556 S
C703   N704    1.314   .     D
C703   C707    1.516   1_554 S
C703   H716    1.069   .     S
C705   C707    1.410   .     D
C705   H717    1.083   .     S
C706   C707    1.400   .     S
C706   H718    1.079   .     S
C707   C703    1.516   1_556 S
H709   C692    1.073   1_556 S
C713   C722    1.542   .     S
C713   C723    1.524   .     S
C713   H724    1.107   .     S
C714   C719    1.541   .     S
C714   H720    1.116   .     S
C714   C721    1.538   .     S
C719   H731    1.126   .     S
C719   H732    1.100   .     S
C719   H733    1.113   .     S
C721   H734    1.098   .     S
C721   H735    1.110   .     S
C721   H736    1.122   .     S
C722   H725    1.104   .     S
C722   H726    1.107   .     S
C722   H727    1.113   .     S
C723   H728    1.111   .     S
C723   H729    1.100   .     S
C723   H730    1.102   .     S
C738   C98     1.616   1_455 S
C738   C52     1.616   1_545 S
C738   C650    1.616   1_554 S
C738   C604    1.616   1_444 S
C739   C328    1.616   1_545 S
C739   C512    1.616   1_545 S
C740   C420    1.616   1_455 S
C740   C282    1.616   1_455 S
