data_276
_audit_creation_date              2023-09-08
_audit_creation_method            'Materials Studio'
_symmetry_space_group_name_H-M    'P1'
_symmetry_Int_Tables_number       1
_symmetry_cell_setting            triclinic
loop_
_symmetry_equiv_pos_as_xyz
  x,y,z
_cell_length_a                    43.9123
_cell_length_b                    43.9123
_cell_length_c                    5.4124
_cell_angle_alpha                 90.0000
_cell_angle_beta                  90.0000
_cell_angle_gamma                 90.0000
loop_
_atom_site_label
_atom_site_type_symbol
_atom_site_fract_x
_atom_site_fract_y
_atom_site_fract_z
_atom_site_U_iso_or_equiv
_atom_site_adp_type
_atom_site_occupancy
C1     C     0.27055   0.77750   0.46174   0.00000  Uiso   1.00
C2     C     0.29135   0.77747   0.65649   0.00000  Uiso   1.00
C3     C     0.36346   0.77776   0.40618   0.00000  Uiso   1.00
C4     C     0.38498   0.77744   0.59697   0.00000  Uiso   1.00
C5     C     0.42997   0.72283   0.99245   0.00000  Uiso   1.00
C6     C     0.45606   0.72291   0.14035   0.00000  Uiso   1.00
C7     C     0.47291   0.29394   0.39034   0.00000  Uiso   1.00
C8     C     0.47283   0.32003   0.24243   0.00000  Uiso   1.00
C9     C     0.52744   0.36503   0.84697   0.00000  Uiso   1.00
C10    C     0.52776   0.38654   0.65618   0.00000  Uiso   1.00
C11    C     0.47253   0.45865   0.90649   0.00000  Uiso   1.00
C12    C     0.47250   0.47945   0.71174   0.00000  Uiso   1.00
C13    C     0.64747   0.19236   0.69616   0.00000  Uiso   1.00
C14    C     0.66031   0.17188   0.49745   0.00000  Uiso   1.00
C15    C     0.62204   0.17586   0.82931   0.00000  Uiso   1.00
C16    C     0.44236   0.39747   0.55384   0.00000  Uiso   1.00
C17    C     0.42586   0.37204   0.42068   0.00000  Uiso   1.00
C18    C     0.42188   0.41031   0.75255   0.00000  Uiso   1.00
H19    H     0.26174   0.80001   0.38530   0.00000  Uiso   1.00
H20    H     0.29968   0.79995   0.73672   0.00000  Uiso   1.00
H21    H     0.39441   0.79979   0.67152   0.00000  Uiso   1.00
H22    H     0.41842   0.70036   0.94374   0.00000  Uiso   1.00
H23    H     0.46599   0.70049   0.20907   0.00000  Uiso   1.00
H24    H     0.45049   0.28401   0.45906   0.00000  Uiso   1.00
H25    H     0.45036   0.33158   0.19373   0.00000  Uiso   1.00
H26    H     0.54979   0.35559   0.92152   0.00000  Uiso   1.00
H27    H     0.45005   0.45032   0.98672   0.00000  Uiso   1.00
H28    H     0.44999   0.48826   0.63530   0.00000  Uiso   1.00
H29    H     0.66641   0.19729   0.83328   0.00000  Uiso   1.00
H30    H     0.68625   0.17194   0.50795   0.00000  Uiso   1.00
H31    H     0.65279   0.18066   0.31064   0.00000  Uiso   1.00
H32    H     0.65152   0.14768   0.52456   0.00000  Uiso   1.00
H33    H     0.63225   0.15869   0.96266   0.00000  Uiso   1.00
H34    H     0.60712   0.16342   0.69091   0.00000  Uiso   1.00
H35    H     0.60765   0.19306   0.93444   0.00000  Uiso   1.00
H36    H     0.44729   0.41641   0.41673   0.00000  Uiso   1.00
H37    H     0.44092   0.35089   0.41595   0.00000  Uiso   1.00
H38    H     0.42054   0.37957   0.22565   0.00000  Uiso   1.00
H39    H     0.40371   0.36656   0.52033   0.00000  Uiso   1.00
H40    H     0.40487   0.42684   0.66775   0.00000  Uiso   1.00
H41    H     0.43634   0.42281   0.89375   0.00000  Uiso   1.00
H42    H     0.40906   0.39090   0.84537   0.00000  Uiso   1.00
C43    C     0.77055   0.27750   0.96174   0.00000  Uiso   1.00
C44    C     0.79135   0.27747   0.15649   0.00000  Uiso   1.00
C45    C     0.86346   0.27776   0.90618   0.00000  Uiso   1.00
C46    C     0.88498   0.27744   0.09697   0.00000  Uiso   1.00
C47    C     0.92997   0.22283   0.49245   0.00000  Uiso   1.00
C48    C     0.95606   0.22291   0.64035   0.00000  Uiso   1.00
C49    C     0.97291   0.79394   0.89034   0.00000  Uiso   1.00
C50    C     0.97283   0.82003   0.74243   0.00000  Uiso   1.00
C51    C     0.02744   0.86503   0.34697   0.00000  Uiso   1.00
C52    C     0.02776   0.88654   0.15618   0.00000  Uiso   1.00
C53    C     0.97253   0.95865   0.40649   0.00000  Uiso   1.00
C54    C     0.97250   0.97945   0.21174   0.00000  Uiso   1.00
C55    C     0.14747   0.69236   0.19616   0.00000  Uiso   1.00
C56    C     0.16031   0.67188   0.99745   0.00000  Uiso   1.00
C57    C     0.12204   0.67586   0.32931   0.00000  Uiso   1.00
C58    C     0.94236   0.89747   0.05384   0.00000  Uiso   1.00
C59    C     0.92586   0.87204   0.92068   0.00000  Uiso   1.00
C60    C     0.92188   0.91031   0.25255   0.00000  Uiso   1.00
H61    H     0.76174   0.30001   0.88530   0.00000  Uiso   1.00
H62    H     0.79968   0.29995   0.23672   0.00000  Uiso   1.00
H63    H     0.89441   0.29979   0.17152   0.00000  Uiso   1.00
H64    H     0.91842   0.20036   0.44374   0.00000  Uiso   1.00
H65    H     0.96599   0.20049   0.70907   0.00000  Uiso   1.00
H66    H     0.95049   0.78401   0.95906   0.00000  Uiso   1.00
H67    H     0.95036   0.83158   0.69373   0.00000  Uiso   1.00
H68    H     0.04979   0.85559   0.42152   0.00000  Uiso   1.00
H69    H     0.95005   0.95032   0.48672   0.00000  Uiso   1.00
H70    H     0.94999   0.98826   0.13530   0.00000  Uiso   1.00
H71    H     0.16641   0.69729   0.33328   0.00000  Uiso   1.00
H72    H     0.18625   0.67194   0.00795   0.00000  Uiso   1.00
H73    H     0.15279   0.68066   0.81064   0.00000  Uiso   1.00
H74    H     0.15152   0.64768   0.02456   0.00000  Uiso   1.00
H75    H     0.13225   0.65869   0.46266   0.00000  Uiso   1.00
H76    H     0.10712   0.66342   0.19091   0.00000  Uiso   1.00
H77    H     0.10765   0.69306   0.43444   0.00000  Uiso   1.00
H78    H     0.94729   0.91641   0.91673   0.00000  Uiso   1.00
H79    H     0.94092   0.85089   0.91595   0.00000  Uiso   1.00
H80    H     0.92054   0.87957   0.72565   0.00000  Uiso   1.00
H81    H     0.90371   0.86656   0.02033   0.00000  Uiso   1.00
H82    H     0.90487   0.92684   0.16775   0.00000  Uiso   1.00
H83    H     0.93634   0.92281   0.39375   0.00000  Uiso   1.00
H84    H     0.90906   0.89090   0.34537   0.00000  Uiso   1.00
C85    C     0.72945   0.72250   0.46174   0.00000  Uiso   1.00
C86    C     0.70865   0.72253   0.65649   0.00000  Uiso   1.00
C87    C     0.63654   0.72224   0.40618   0.00000  Uiso   1.00
C88    C     0.61502   0.72256   0.59697   0.00000  Uiso   1.00
C89    C     0.57003   0.77717   0.99245   0.00000  Uiso   1.00
C90    C     0.54394   0.77709   0.14035   0.00000  Uiso   1.00
C91    C     0.52709   0.20606   0.39034   0.00000  Uiso   1.00
C92    C     0.52717   0.17997   0.24243   0.00000  Uiso   1.00
C93    C     0.47256   0.13497   0.84697   0.00000  Uiso   1.00
C94    C     0.47224   0.11346   0.65618   0.00000  Uiso   1.00
C95    C     0.52747   0.04135   0.90649   0.00000  Uiso   1.00
C96    C     0.52750   0.02055   0.71174   0.00000  Uiso   1.00
C97    C     0.35253   0.30764   0.69616   0.00000  Uiso   1.00
C98    C     0.33969   0.32812   0.49745   0.00000  Uiso   1.00
C99    C     0.37796   0.32414   0.82931   0.00000  Uiso   1.00
C100   C     0.55764   0.10253   0.55384   0.00000  Uiso   1.00
C101   C     0.57414   0.12796   0.42068   0.00000  Uiso   1.00
C102   C     0.57812   0.08969   0.75255   0.00000  Uiso   1.00
H103   H     0.73826   0.69999   0.38530   0.00000  Uiso   1.00
H104   H     0.70032   0.70005   0.73672   0.00000  Uiso   1.00
H105   H     0.60559   0.70021   0.67152   0.00000  Uiso   1.00
H106   H     0.58158   0.79964   0.94374   0.00000  Uiso   1.00
H107   H     0.53401   0.79951   0.20907   0.00000  Uiso   1.00
H108   H     0.54951   0.21599   0.45906   0.00000  Uiso   1.00
H109   H     0.54964   0.16842   0.19373   0.00000  Uiso   1.00
H110   H     0.45021   0.14441   0.92152   0.00000  Uiso   1.00
H111   H     0.54995   0.04968   0.98672   0.00000  Uiso   1.00
H112   H     0.55001   0.01174   0.63530   0.00000  Uiso   1.00
H113   H     0.33359   0.30271   0.83328   0.00000  Uiso   1.00
H114   H     0.31375   0.32806   0.50795   0.00000  Uiso   1.00
H115   H     0.34721   0.31934   0.31064   0.00000  Uiso   1.00
H116   H     0.34848   0.35232   0.52456   0.00000  Uiso   1.00
H117   H     0.36775   0.34131   0.96266   0.00000  Uiso   1.00
H118   H     0.39288   0.33658   0.69091   0.00000  Uiso   1.00
H119   H     0.39235   0.30694   0.93444   0.00000  Uiso   1.00
H120   H     0.55271   0.08359   0.41673   0.00000  Uiso   1.00
H121   H     0.55908   0.14911   0.41595   0.00000  Uiso   1.00
H122   H     0.57946   0.12043   0.22565   0.00000  Uiso   1.00
H123   H     0.59629   0.13344   0.52033   0.00000  Uiso   1.00
H124   H     0.59513   0.07316   0.66775   0.00000  Uiso   1.00
H125   H     0.56366   0.07719   0.89375   0.00000  Uiso   1.00
H126   H     0.59094   0.10910   0.84537   0.00000  Uiso   1.00
C127   C     0.22945   0.22250   0.96174   0.00000  Uiso   1.00
C128   C     0.20865   0.22253   0.15649   0.00000  Uiso   1.00
C129   C     0.13654   0.22224   0.90618   0.00000  Uiso   1.00
C130   C     0.11502   0.22256   0.09697   0.00000  Uiso   1.00
C131   C     0.07003   0.27717   0.49245   0.00000  Uiso   1.00
C132   C     0.04394   0.27709   0.64035   0.00000  Uiso   1.00
C133   C     0.02709   0.70606   0.89034   0.00000  Uiso   1.00
C134   C     0.02717   0.67997   0.74243   0.00000  Uiso   1.00
C135   C     0.97256   0.63497   0.34697   0.00000  Uiso   1.00
C136   C     0.97224   0.61346   0.15618   0.00000  Uiso   1.00
C137   C     0.02747   0.54135   0.40649   0.00000  Uiso   1.00
C138   C     0.02750   0.52055   0.21174   0.00000  Uiso   1.00
C139   C     0.85253   0.80764   0.19616   0.00000  Uiso   1.00
C140   C     0.83969   0.82812   0.99745   0.00000  Uiso   1.00
C141   C     0.87796   0.82414   0.32931   0.00000  Uiso   1.00
C142   C     0.05764   0.60253   0.05384   0.00000  Uiso   1.00
C143   C     0.07414   0.62796   0.92068   0.00000  Uiso   1.00
C144   C     0.07812   0.58969   0.25255   0.00000  Uiso   1.00
H145   H     0.23826   0.19999   0.88530   0.00000  Uiso   1.00
H146   H     0.20032   0.20005   0.23672   0.00000  Uiso   1.00
H147   H     0.10559   0.20021   0.17152   0.00000  Uiso   1.00
H148   H     0.08158   0.29964   0.44374   0.00000  Uiso   1.00
H149   H     0.03401   0.29951   0.70907   0.00000  Uiso   1.00
H150   H     0.04951   0.71599   0.95906   0.00000  Uiso   1.00
H151   H     0.04964   0.66842   0.69373   0.00000  Uiso   1.00
H152   H     0.95021   0.64441   0.42152   0.00000  Uiso   1.00
H153   H     0.04995   0.54968   0.48672   0.00000  Uiso   1.00
H154   H     0.05001   0.51174   0.13530   0.00000  Uiso   1.00
H155   H     0.83359   0.80271   0.33328   0.00000  Uiso   1.00
H156   H     0.81375   0.82806   0.00795   0.00000  Uiso   1.00
H157   H     0.84721   0.81934   0.81064   0.00000  Uiso   1.00
H158   H     0.84848   0.85232   0.02456   0.00000  Uiso   1.00
H159   H     0.86775   0.84131   0.46266   0.00000  Uiso   1.00
H160   H     0.89288   0.83658   0.19091   0.00000  Uiso   1.00
H161   H     0.89235   0.80694   0.43444   0.00000  Uiso   1.00
H162   H     0.05271   0.58359   0.91673   0.00000  Uiso   1.00
H163   H     0.05908   0.64911   0.91595   0.00000  Uiso   1.00
H164   H     0.07946   0.62043   0.72565   0.00000  Uiso   1.00
H165   H     0.09629   0.63344   0.02033   0.00000  Uiso   1.00
H166   H     0.09513   0.57316   0.16775   0.00000  Uiso   1.00
H167   H     0.06366   0.57719   0.39375   0.00000  Uiso   1.00
H168   H     0.09094   0.60910   0.34537   0.00000  Uiso   1.00
C169   C     0.72945   0.27750   0.53826   0.00000  Uiso   1.00
C170   C     0.70865   0.27747   0.34351   0.00000  Uiso   1.00
C171   C     0.63654   0.27776   0.59382   0.00000  Uiso   1.00
C172   C     0.61502   0.27744   0.40303   0.00000  Uiso   1.00
C173   C     0.57003   0.22283   0.00755   0.00000  Uiso   1.00
C174   C     0.54394   0.22291   0.85965   0.00000  Uiso   1.00
C175   C     0.52709   0.79394   0.60966   0.00000  Uiso   1.00
C176   C     0.52717   0.82003   0.75757   0.00000  Uiso   1.00
C177   C     0.47256   0.86503   0.15303   0.00000  Uiso   1.00
C178   C     0.47224   0.88654   0.34382   0.00000  Uiso   1.00
C179   C     0.52747   0.95865   0.09351   0.00000  Uiso   1.00
C180   C     0.52750   0.97945   0.28826   0.00000  Uiso   1.00
C181   C     0.35253   0.69236   0.30384   0.00000  Uiso   1.00
C182   C     0.33969   0.67188   0.50255   0.00000  Uiso   1.00
C183   C     0.37796   0.67586   0.17069   0.00000  Uiso   1.00
C184   C     0.55764   0.89747   0.44616   0.00000  Uiso   1.00
C185   C     0.57414   0.87204   0.57932   0.00000  Uiso   1.00
C186   C     0.57812   0.91031   0.24745   0.00000  Uiso   1.00
H187   H     0.73826   0.30001   0.61470   0.00000  Uiso   1.00
H188   H     0.70032   0.29995   0.26328   0.00000  Uiso   1.00
H189   H     0.60559   0.29979   0.32848   0.00000  Uiso   1.00
H190   H     0.58158   0.20036   0.05626   0.00000  Uiso   1.00
H191   H     0.53401   0.20049   0.79093   0.00000  Uiso   1.00
H192   H     0.54951   0.78401   0.54094   0.00000  Uiso   1.00
H193   H     0.54964   0.83158   0.80627   0.00000  Uiso   1.00
H194   H     0.45021   0.85559   0.07848   0.00000  Uiso   1.00
H195   H     0.54995   0.95032   0.01328   0.00000  Uiso   1.00
H196   H     0.55001   0.98826   0.36470   0.00000  Uiso   1.00
H197   H     0.33359   0.69729   0.16672   0.00000  Uiso   1.00
H198   H     0.31375   0.67194   0.49205   0.00000  Uiso   1.00
H199   H     0.34721   0.68066   0.68936   0.00000  Uiso   1.00
H200   H     0.34848   0.64768   0.47544   0.00000  Uiso   1.00
H201   H     0.36775   0.65869   0.03734   0.00000  Uiso   1.00
H202   H     0.39288   0.66342   0.30909   0.00000  Uiso   1.00
H203   H     0.39235   0.69306   0.06556   0.00000  Uiso   1.00
H204   H     0.55271   0.91641   0.58327   0.00000  Uiso   1.00
H205   H     0.55908   0.85089   0.58405   0.00000  Uiso   1.00
H206   H     0.57946   0.87957   0.77435   0.00000  Uiso   1.00
H207   H     0.59629   0.86656   0.47967   0.00000  Uiso   1.00
H208   H     0.59513   0.92684   0.33225   0.00000  Uiso   1.00
H209   H     0.56366   0.92281   0.10625   0.00000  Uiso   1.00
H210   H     0.59094   0.89090   0.15463   0.00000  Uiso   1.00
C211   C     0.22945   0.77750   0.03826   0.00000  Uiso   1.00
C212   C     0.20865   0.77747   0.84351   0.00000  Uiso   1.00
C213   C     0.13654   0.77776   0.09382   0.00000  Uiso   1.00
C214   C     0.11502   0.77744   0.90303   0.00000  Uiso   1.00
C215   C     0.07003   0.72283   0.50755   0.00000  Uiso   1.00
C216   C     0.04394   0.72291   0.35965   0.00000  Uiso   1.00
C217   C     0.02709   0.29394   0.10966   0.00000  Uiso   1.00
C218   C     0.02717   0.32003   0.25757   0.00000  Uiso   1.00
C219   C     0.97256   0.36503   0.65303   0.00000  Uiso   1.00
C220   C     0.97224   0.38654   0.84382   0.00000  Uiso   1.00
C221   C     0.02747   0.45865   0.59351   0.00000  Uiso   1.00
C222   C     0.02750   0.47945   0.78826   0.00000  Uiso   1.00
C223   C     0.85253   0.19236   0.80384   0.00000  Uiso   1.00
C224   C     0.83969   0.17188   0.00255   0.00000  Uiso   1.00
C225   C     0.87796   0.17586   0.67069   0.00000  Uiso   1.00
C226   C     0.05764   0.39747   0.94616   0.00000  Uiso   1.00
C227   C     0.07414   0.37204   0.07932   0.00000  Uiso   1.00
C228   C     0.07812   0.41031   0.74745   0.00000  Uiso   1.00
H229   H     0.23826   0.80001   0.11470   0.00000  Uiso   1.00
H230   H     0.20032   0.79995   0.76328   0.00000  Uiso   1.00
H231   H     0.10559   0.79979   0.82848   0.00000  Uiso   1.00
H232   H     0.08158   0.70036   0.55626   0.00000  Uiso   1.00
H233   H     0.03401   0.70049   0.29093   0.00000  Uiso   1.00
H234   H     0.04951   0.28401   0.04094   0.00000  Uiso   1.00
H235   H     0.04964   0.33158   0.30627   0.00000  Uiso   1.00
H236   H     0.95021   0.35559   0.57848   0.00000  Uiso   1.00
H237   H     0.04995   0.45032   0.51328   0.00000  Uiso   1.00
H238   H     0.05001   0.48826   0.86470   0.00000  Uiso   1.00
H239   H     0.83359   0.19729   0.66672   0.00000  Uiso   1.00
H240   H     0.81375   0.17194   0.99205   0.00000  Uiso   1.00
H241   H     0.84721   0.18066   0.18936   0.00000  Uiso   1.00
H242   H     0.84848   0.14768   0.97544   0.00000  Uiso   1.00
H243   H     0.86775   0.15869   0.53734   0.00000  Uiso   1.00
H244   H     0.89288   0.16342   0.80909   0.00000  Uiso   1.00
H245   H     0.89235   0.19306   0.56556   0.00000  Uiso   1.00
H246   H     0.05271   0.41641   0.08327   0.00000  Uiso   1.00
H247   H     0.05908   0.35089   0.08405   0.00000  Uiso   1.00
H248   H     0.07946   0.37957   0.27435   0.00000  Uiso   1.00
H249   H     0.09629   0.36656   0.97967   0.00000  Uiso   1.00
H250   H     0.09513   0.42684   0.83225   0.00000  Uiso   1.00
H251   H     0.06366   0.42281   0.60625   0.00000  Uiso   1.00
H252   H     0.09094   0.39090   0.65463   0.00000  Uiso   1.00
C253   C     0.27055   0.22250   0.53826   0.00000  Uiso   1.00
C254   C     0.29135   0.22253   0.34351   0.00000  Uiso   1.00
C255   C     0.36346   0.22224   0.59382   0.00000  Uiso   1.00
C256   C     0.38498   0.22256   0.40303   0.00000  Uiso   1.00
C257   C     0.42997   0.27717   0.00755   0.00000  Uiso   1.00
C258   C     0.45606   0.27709   0.85965   0.00000  Uiso   1.00
C259   C     0.47291   0.70606   0.60966   0.00000  Uiso   1.00
C260   C     0.47283   0.67997   0.75757   0.00000  Uiso   1.00
C261   C     0.52744   0.63497   0.15303   0.00000  Uiso   1.00
C262   C     0.52776   0.61346   0.34382   0.00000  Uiso   1.00
C263   C     0.47253   0.54135   0.09351   0.00000  Uiso   1.00
C264   C     0.47250   0.52055   0.28826   0.00000  Uiso   1.00
C265   C     0.64747   0.80764   0.30384   0.00000  Uiso   1.00
C266   C     0.66031   0.82812   0.50255   0.00000  Uiso   1.00
C267   C     0.62204   0.82414   0.17069   0.00000  Uiso   1.00
C268   C     0.44236   0.60253   0.44616   0.00000  Uiso   1.00
C269   C     0.42586   0.62796   0.57932   0.00000  Uiso   1.00
C270   C     0.42188   0.58969   0.24745   0.00000  Uiso   1.00
H271   H     0.26174   0.19999   0.61470   0.00000  Uiso   1.00
H272   H     0.29968   0.20005   0.26328   0.00000  Uiso   1.00
H273   H     0.39441   0.20021   0.32848   0.00000  Uiso   1.00
H274   H     0.41842   0.29964   0.05626   0.00000  Uiso   1.00
H275   H     0.46599   0.29951   0.79093   0.00000  Uiso   1.00
H276   H     0.45049   0.71599   0.54094   0.00000  Uiso   1.00
H277   H     0.45036   0.66842   0.80627   0.00000  Uiso   1.00
H278   H     0.54979   0.64441   0.07848   0.00000  Uiso   1.00
H279   H     0.45005   0.54968   0.01328   0.00000  Uiso   1.00
H280   H     0.44999   0.51174   0.36470   0.00000  Uiso   1.00
H281   H     0.66641   0.80271   0.16672   0.00000  Uiso   1.00
H282   H     0.68625   0.82806   0.49205   0.00000  Uiso   1.00
H283   H     0.65279   0.81934   0.68936   0.00000  Uiso   1.00
H284   H     0.65152   0.85232   0.47544   0.00000  Uiso   1.00
H285   H     0.63225   0.84131   0.03734   0.00000  Uiso   1.00
H286   H     0.60712   0.83658   0.30909   0.00000  Uiso   1.00
H287   H     0.60765   0.80694   0.06556   0.00000  Uiso   1.00
H288   H     0.44729   0.58359   0.58327   0.00000  Uiso   1.00
H289   H     0.44092   0.64911   0.58405   0.00000  Uiso   1.00
H290   H     0.42054   0.62043   0.77435   0.00000  Uiso   1.00
H291   H     0.40371   0.63344   0.47967   0.00000  Uiso   1.00
H292   H     0.40487   0.57316   0.33225   0.00000  Uiso   1.00
H293   H     0.43634   0.57719   0.10625   0.00000  Uiso   1.00
H294   H     0.40906   0.60910   0.15463   0.00000  Uiso   1.00
C295   C     0.77055   0.72250   0.03826   0.00000  Uiso   1.00
C296   C     0.79135   0.72253   0.84351   0.00000  Uiso   1.00
C297   C     0.86346   0.72224   0.09382   0.00000  Uiso   1.00
C298   C     0.88498   0.72256   0.90303   0.00000  Uiso   1.00
C299   C     0.92997   0.77717   0.50755   0.00000  Uiso   1.00
C300   C     0.95606   0.77709   0.35965   0.00000  Uiso   1.00
C301   C     0.97291   0.20606   0.10966   0.00000  Uiso   1.00
C302   C     0.97283   0.17997   0.25757   0.00000  Uiso   1.00
C303   C     0.02744   0.13497   0.65303   0.00000  Uiso   1.00
C304   C     0.02776   0.11346   0.84382   0.00000  Uiso   1.00
C305   C     0.97253   0.04135   0.59351   0.00000  Uiso   1.00
C306   C     0.97250   0.02055   0.78826   0.00000  Uiso   1.00
C307   C     0.14747   0.30764   0.80384   0.00000  Uiso   1.00
C308   C     0.16031   0.32812   0.00255   0.00000  Uiso   1.00
C309   C     0.12204   0.32414   0.67069   0.00000  Uiso   1.00
C310   C     0.94236   0.10253   0.94616   0.00000  Uiso   1.00
C311   C     0.92586   0.12796   0.07932   0.00000  Uiso   1.00
C312   C     0.92188   0.08969   0.74745   0.00000  Uiso   1.00
H313   H     0.76174   0.69999   0.11470   0.00000  Uiso   1.00
H314   H     0.79968   0.70005   0.76328   0.00000  Uiso   1.00
H315   H     0.89441   0.70021   0.82848   0.00000  Uiso   1.00
H316   H     0.91842   0.79964   0.55626   0.00000  Uiso   1.00
H317   H     0.96599   0.79951   0.29093   0.00000  Uiso   1.00
H318   H     0.95049   0.21599   0.04094   0.00000  Uiso   1.00
H319   H     0.95036   0.16842   0.30627   0.00000  Uiso   1.00
H320   H     0.04979   0.14441   0.57848   0.00000  Uiso   1.00
H321   H     0.95005   0.04968   0.51328   0.00000  Uiso   1.00
H322   H     0.94999   0.01174   0.86470   0.00000  Uiso   1.00
H323   H     0.16641   0.30271   0.66672   0.00000  Uiso   1.00
H324   H     0.18625   0.32806   0.99205   0.00000  Uiso   1.00
H325   H     0.15279   0.31934   0.18936   0.00000  Uiso   1.00
H326   H     0.15152   0.35232   0.97544   0.00000  Uiso   1.00
H327   H     0.13225   0.34131   0.53734   0.00000  Uiso   1.00
H328   H     0.10712   0.33658   0.80909   0.00000  Uiso   1.00
H329   H     0.10765   0.30694   0.56556   0.00000  Uiso   1.00
H330   H     0.94729   0.08359   0.08327   0.00000  Uiso   1.00
H331   H     0.94092   0.14911   0.08405   0.00000  Uiso   1.00
H332   H     0.92054   0.12043   0.27435   0.00000  Uiso   1.00
H333   H     0.90371   0.13344   0.97967   0.00000  Uiso   1.00
H334   H     0.90487   0.07316   0.83225   0.00000  Uiso   1.00
H335   H     0.93634   0.07719   0.60625   0.00000  Uiso   1.00
H336   H     0.90906   0.10910   0.65463   0.00000  Uiso   1.00
C337   C     0.72945   0.22250   0.53826   0.00000  Uiso   1.00
C338   C     0.70865   0.22253   0.34351   0.00000  Uiso   1.00
C339   C     0.63654   0.22224   0.59382   0.00000  Uiso   1.00
C340   C     0.61502   0.22256   0.40303   0.00000  Uiso   1.00
C341   C     0.57003   0.27717   0.00755   0.00000  Uiso   1.00
C342   C     0.54394   0.27709   0.85965   0.00000  Uiso   1.00
C343   C     0.52709   0.70606   0.60966   0.00000  Uiso   1.00
C344   C     0.52717   0.67997   0.75757   0.00000  Uiso   1.00
C345   C     0.47256   0.63497   0.15303   0.00000  Uiso   1.00
C346   C     0.47224   0.61346   0.34382   0.00000  Uiso   1.00
C347   C     0.52747   0.54135   0.09351   0.00000  Uiso   1.00
C348   C     0.52750   0.52055   0.28826   0.00000  Uiso   1.00
C349   C     0.35253   0.80764   0.30384   0.00000  Uiso   1.00
C350   C     0.33969   0.82812   0.50255   0.00000  Uiso   1.00
C351   C     0.37796   0.82414   0.17069   0.00000  Uiso   1.00
C352   C     0.55764   0.60253   0.44616   0.00000  Uiso   1.00
C353   C     0.57414   0.62796   0.57932   0.00000  Uiso   1.00
C354   C     0.57812   0.58969   0.24745   0.00000  Uiso   1.00
H355   H     0.73826   0.19999   0.61470   0.00000  Uiso   1.00
H356   H     0.70032   0.20005   0.26328   0.00000  Uiso   1.00
H357   H     0.60559   0.20021   0.32848   0.00000  Uiso   1.00
H358   H     0.58158   0.29964   0.05626   0.00000  Uiso   1.00
H359   H     0.53401   0.29951   0.79093   0.00000  Uiso   1.00
H360   H     0.54951   0.71599   0.54094   0.00000  Uiso   1.00
H361   H     0.54964   0.66842   0.80627   0.00000  Uiso   1.00
H362   H     0.45021   0.64441   0.07848   0.00000  Uiso   1.00
H363   H     0.54995   0.54968   0.01328   0.00000  Uiso   1.00
H364   H     0.55001   0.51174   0.36470   0.00000  Uiso   1.00
H365   H     0.33359   0.80271   0.16672   0.00000  Uiso   1.00
H366   H     0.31375   0.82806   0.49205   0.00000  Uiso   1.00
H367   H     0.34721   0.81934   0.68936   0.00000  Uiso   1.00
H368   H     0.34848   0.85232   0.47544   0.00000  Uiso   1.00
H369   H     0.36775   0.84131   0.03734   0.00000  Uiso   1.00
H370   H     0.39288   0.83658   0.30909   0.00000  Uiso   1.00
H371   H     0.39235   0.80694   0.06556   0.00000  Uiso   1.00
H372   H     0.55271   0.58359   0.58327   0.00000  Uiso   1.00
H373   H     0.55908   0.64911   0.58405   0.00000  Uiso   1.00
H374   H     0.57946   0.62043   0.77435   0.00000  Uiso   1.00
H375   H     0.59629   0.63344   0.47967   0.00000  Uiso   1.00
H376   H     0.59513   0.57316   0.33225   0.00000  Uiso   1.00
H377   H     0.56366   0.57719   0.10625   0.00000  Uiso   1.00
H378   H     0.59094   0.60910   0.15463   0.00000  Uiso   1.00
C379   C     0.22945   0.72250   0.03826   0.00000  Uiso   1.00
C380   C     0.20865   0.72253   0.84351   0.00000  Uiso   1.00
C381   C     0.13654   0.72224   0.09382   0.00000  Uiso   1.00
C382   C     0.11502   0.72256   0.90303   0.00000  Uiso   1.00
C383   C     0.07003   0.77717   0.50755   0.00000  Uiso   1.00
C384   C     0.04394   0.77709   0.35965   0.00000  Uiso   1.00
C385   C     0.02709   0.20606   0.10966   0.00000  Uiso   1.00
C386   C     0.02717   0.17997   0.25757   0.00000  Uiso   1.00
C387   C     0.97256   0.13497   0.65303   0.00000  Uiso   1.00
C388   C     0.97224   0.11346   0.84382   0.00000  Uiso   1.00
C389   C     0.02747   0.04135   0.59351   0.00000  Uiso   1.00
C390   C     0.02750   0.02055   0.78826   0.00000  Uiso   1.00
C391   C     0.85253   0.30764   0.80384   0.00000  Uiso   1.00
C392   C     0.83969   0.32812   0.00255   0.00000  Uiso   1.00
C393   C     0.87796   0.32414   0.67069   0.00000  Uiso   1.00
C394   C     0.05764   0.10253   0.94616   0.00000  Uiso   1.00
C395   C     0.07414   0.12796   0.07932   0.00000  Uiso   1.00
C396   C     0.07812   0.08969   0.74745   0.00000  Uiso   1.00
H397   H     0.23826   0.69999   0.11470   0.00000  Uiso   1.00
H398   H     0.20032   0.70005   0.76328   0.00000  Uiso   1.00
H399   H     0.10559   0.70021   0.82848   0.00000  Uiso   1.00
H400   H     0.08158   0.79964   0.55626   0.00000  Uiso   1.00
H401   H     0.03401   0.79951   0.29093   0.00000  Uiso   1.00
H402   H     0.04951   0.21599   0.04094   0.00000  Uiso   1.00
H403   H     0.04964   0.16842   0.30627   0.00000  Uiso   1.00
H404   H     0.95021   0.14441   0.57848   0.00000  Uiso   1.00
H405   H     0.04995   0.04968   0.51328   0.00000  Uiso   1.00
H406   H     0.05001   0.01174   0.86470   0.00000  Uiso   1.00
H407   H     0.83359   0.30271   0.66672   0.00000  Uiso   1.00
H408   H     0.81375   0.32806   0.99205   0.00000  Uiso   1.00
H409   H     0.84721   0.31934   0.18936   0.00000  Uiso   1.00
H410   H     0.84848   0.35232   0.97544   0.00000  Uiso   1.00
H411   H     0.86775   0.34131   0.53734   0.00000  Uiso   1.00
H412   H     0.89288   0.33658   0.80909   0.00000  Uiso   1.00
H413   H     0.89235   0.30694   0.56556   0.00000  Uiso   1.00
H414   H     0.05271   0.08359   0.08327   0.00000  Uiso   1.00
H415   H     0.05908   0.14911   0.08405   0.00000  Uiso   1.00
H416   H     0.07946   0.12043   0.27435   0.00000  Uiso   1.00
H417   H     0.09629   0.13344   0.97967   0.00000  Uiso   1.00
H418   H     0.09513   0.07316   0.83225   0.00000  Uiso   1.00
H419   H     0.06366   0.07719   0.60625   0.00000  Uiso   1.00
H420   H     0.09094   0.10910   0.65463   0.00000  Uiso   1.00
C421   C     0.27055   0.27750   0.53826   0.00000  Uiso   1.00
C422   C     0.29135   0.27747   0.34351   0.00000  Uiso   1.00
C423   C     0.36346   0.27776   0.59382   0.00000  Uiso   1.00
C424   C     0.38498   0.27744   0.40303   0.00000  Uiso   1.00
C425   C     0.42997   0.22283   0.00755   0.00000  Uiso   1.00
C426   C     0.45606   0.22291   0.85965   0.00000  Uiso   1.00
C427   C     0.47291   0.79394   0.60966   0.00000  Uiso   1.00
C428   C     0.47283   0.82003   0.75757   0.00000  Uiso   1.00
C429   C     0.52744   0.86503   0.15303   0.00000  Uiso   1.00
C430   C     0.52776   0.88654   0.34382   0.00000  Uiso   1.00
C431   C     0.47253   0.95865   0.09351   0.00000  Uiso   1.00
C432   C     0.47250   0.97945   0.28826   0.00000  Uiso   1.00
C433   C     0.64747   0.69236   0.30384   0.00000  Uiso   1.00
C434   C     0.66031   0.67188   0.50255   0.00000  Uiso   1.00
C435   C     0.62204   0.67586   0.17069   0.00000  Uiso   1.00
C436   C     0.44236   0.89747   0.44616   0.00000  Uiso   1.00
C437   C     0.42586   0.87204   0.57932   0.00000  Uiso   1.00
C438   C     0.42188   0.91031   0.24745   0.00000  Uiso   1.00
H439   H     0.26174   0.30001   0.61470   0.00000  Uiso   1.00
H440   H     0.29968   0.29995   0.26328   0.00000  Uiso   1.00
H441   H     0.39441   0.29979   0.32848   0.00000  Uiso   1.00
H442   H     0.41842   0.20036   0.05626   0.00000  Uiso   1.00
H443   H     0.46599   0.20049   0.79093   0.00000  Uiso   1.00
H444   H     0.45049   0.78401   0.54094   0.00000  Uiso   1.00
H445   H     0.45036   0.83158   0.80627   0.00000  Uiso   1.00
H446   H     0.54979   0.85559   0.07848   0.00000  Uiso   1.00
H447   H     0.45005   0.95032   0.01328   0.00000  Uiso   1.00
H448   H     0.44999   0.98826   0.36470   0.00000  Uiso   1.00
H449   H     0.66641   0.69729   0.16672   0.00000  Uiso   1.00
H450   H     0.68625   0.67194   0.49205   0.00000  Uiso   1.00
H451   H     0.65279   0.68066   0.68936   0.00000  Uiso   1.00
H452   H     0.65152   0.64768   0.47544   0.00000  Uiso   1.00
H453   H     0.63225   0.65869   0.03734   0.00000  Uiso   1.00
H454   H     0.60712   0.66342   0.30909   0.00000  Uiso   1.00
H455   H     0.60765   0.69306   0.06556   0.00000  Uiso   1.00
H456   H     0.44729   0.91641   0.58327   0.00000  Uiso   1.00
H457   H     0.44092   0.85089   0.58405   0.00000  Uiso   1.00
H458   H     0.42054   0.87957   0.77435   0.00000  Uiso   1.00
H459   H     0.40371   0.86656   0.47967   0.00000  Uiso   1.00
H460   H     0.40487   0.92684   0.33225   0.00000  Uiso   1.00
H461   H     0.43634   0.92281   0.10625   0.00000  Uiso   1.00
H462   H     0.40906   0.89090   0.15463   0.00000  Uiso   1.00
C463   C     0.77055   0.77750   0.03826   0.00000  Uiso   1.00
C464   C     0.79135   0.77747   0.84351   0.00000  Uiso   1.00
C465   C     0.86346   0.77776   0.09382   0.00000  Uiso   1.00
C466   C     0.88498   0.77744   0.90303   0.00000  Uiso   1.00
C467   C     0.92997   0.72283   0.50755   0.00000  Uiso   1.00
C468   C     0.95606   0.72291   0.35965   0.00000  Uiso   1.00
C469   C     0.97291   0.29394   0.10966   0.00000  Uiso   1.00
C470   C     0.97283   0.32003   0.25757   0.00000  Uiso   1.00
C471   C     0.02744   0.36503   0.65303   0.00000  Uiso   1.00
C472   C     0.02776   0.38654   0.84382   0.00000  Uiso   1.00
C473   C     0.97253   0.45865   0.59351   0.00000  Uiso   1.00
C474   C     0.97250   0.47945   0.78826   0.00000  Uiso   1.00
C475   C     0.14747   0.19236   0.80384   0.00000  Uiso   1.00
C476   C     0.16031   0.17188   0.00255   0.00000  Uiso   1.00
C477   C     0.12204   0.17586   0.67069   0.00000  Uiso   1.00
C478   C     0.94236   0.39747   0.94616   0.00000  Uiso   1.00
C479   C     0.92586   0.37204   0.07932   0.00000  Uiso   1.00
C480   C     0.92188   0.41031   0.74745   0.00000  Uiso   1.00
H481   H     0.76174   0.80001   0.11470   0.00000  Uiso   1.00
H482   H     0.79968   0.79995   0.76328   0.00000  Uiso   1.00
H483   H     0.89441   0.79979   0.82848   0.00000  Uiso   1.00
H484   H     0.91842   0.70036   0.55626   0.00000  Uiso   1.00
H485   H     0.96599   0.70049   0.29093   0.00000  Uiso   1.00
H486   H     0.95049   0.28401   0.04094   0.00000  Uiso   1.00
H487   H     0.95036   0.33158   0.30627   0.00000  Uiso   1.00
H488   H     0.04979   0.35559   0.57848   0.00000  Uiso   1.00
H489   H     0.95005   0.45032   0.51328   0.00000  Uiso   1.00
H490   H     0.94999   0.48826   0.86470   0.00000  Uiso   1.00
H491   H     0.16641   0.19729   0.66672   0.00000  Uiso   1.00
H492   H     0.18625   0.17194   0.99205   0.00000  Uiso   1.00
H493   H     0.15279   0.18066   0.18936   0.00000  Uiso   1.00
H494   H     0.15152   0.14768   0.97544   0.00000  Uiso   1.00
H495   H     0.13225   0.15869   0.53734   0.00000  Uiso   1.00
H496   H     0.10712   0.16342   0.80909   0.00000  Uiso   1.00
H497   H     0.10765   0.19306   0.56556   0.00000  Uiso   1.00
H498   H     0.94729   0.41641   0.08327   0.00000  Uiso   1.00
H499   H     0.94092   0.35089   0.08405   0.00000  Uiso   1.00
H500   H     0.92054   0.37957   0.27435   0.00000  Uiso   1.00
H501   H     0.90371   0.36656   0.97967   0.00000  Uiso   1.00
H502   H     0.90487   0.42684   0.83225   0.00000  Uiso   1.00
H503   H     0.93634   0.42281   0.60625   0.00000  Uiso   1.00
H504   H     0.90906   0.39090   0.65463   0.00000  Uiso   1.00
C505   C     0.27055   0.72250   0.46174   0.00000  Uiso   1.00
C506   C     0.29135   0.72253   0.65649   0.00000  Uiso   1.00
C507   C     0.36346   0.72224   0.40618   0.00000  Uiso   1.00
C508   C     0.38498   0.72256   0.59697   0.00000  Uiso   1.00
C509   C     0.42997   0.77717   0.99245   0.00000  Uiso   1.00
C510   C     0.45606   0.77709   0.14035   0.00000  Uiso   1.00
C511   C     0.47291   0.20606   0.39034   0.00000  Uiso   1.00
C512   C     0.47283   0.17997   0.24243   0.00000  Uiso   1.00
C513   C     0.52744   0.13497   0.84697   0.00000  Uiso   1.00
C514   C     0.52776   0.11346   0.65618   0.00000  Uiso   1.00
C515   C     0.47253   0.04135   0.90649   0.00000  Uiso   1.00
C516   C     0.47250   0.02055   0.71174   0.00000  Uiso   1.00
C517   C     0.64747   0.30764   0.69616   0.00000  Uiso   1.00
C518   C     0.66031   0.32812   0.49745   0.00000  Uiso   1.00
C519   C     0.62204   0.32414   0.82931   0.00000  Uiso   1.00
C520   C     0.44236   0.10253   0.55384   0.00000  Uiso   1.00
C521   C     0.42586   0.12796   0.42068   0.00000  Uiso   1.00
C522   C     0.42188   0.08969   0.75255   0.00000  Uiso   1.00
H523   H     0.26174   0.69999   0.38530   0.00000  Uiso   1.00
H524   H     0.29968   0.70005   0.73672   0.00000  Uiso   1.00
H525   H     0.39441   0.70021   0.67152   0.00000  Uiso   1.00
H526   H     0.41842   0.79964   0.94374   0.00000  Uiso   1.00
H527   H     0.46599   0.79951   0.20907   0.00000  Uiso   1.00
H528   H     0.45049   0.21599   0.45906   0.00000  Uiso   1.00
H529   H     0.45036   0.16842   0.19373   0.00000  Uiso   1.00
H530   H     0.54979   0.14441   0.92152   0.00000  Uiso   1.00
H531   H     0.45005   0.04968   0.98672   0.00000  Uiso   1.00
H532   H     0.44999   0.01174   0.63530   0.00000  Uiso   1.00
H533   H     0.66641   0.30271   0.83328   0.00000  Uiso   1.00
H534   H     0.68625   0.32806   0.50795   0.00000  Uiso   1.00
H535   H     0.65279   0.31934   0.31064   0.00000  Uiso   1.00
H536   H     0.65152   0.35232   0.52456   0.00000  Uiso   1.00
H537   H     0.63225   0.34131   0.96266   0.00000  Uiso   1.00
H538   H     0.60712   0.33658   0.69091   0.00000  Uiso   1.00
H539   H     0.60765   0.30694   0.93444   0.00000  Uiso   1.00
H540   H     0.44729   0.08359   0.41673   0.00000  Uiso   1.00
H541   H     0.44092   0.14911   0.41595   0.00000  Uiso   1.00
H542   H     0.42054   0.12043   0.22565   0.00000  Uiso   1.00
H543   H     0.40371   0.13344   0.52033   0.00000  Uiso   1.00
H544   H     0.40487   0.07316   0.66775   0.00000  Uiso   1.00
H545   H     0.43634   0.07719   0.89375   0.00000  Uiso   1.00
H546   H     0.40906   0.10910   0.84537   0.00000  Uiso   1.00
C547   C     0.77055   0.22250   0.96174   0.00000  Uiso   1.00
C548   C     0.79135   0.22253   0.15649   0.00000  Uiso   1.00
C549   C     0.86346   0.22224   0.90618   0.00000  Uiso   1.00
C550   C     0.88498   0.22256   0.09697   0.00000  Uiso   1.00
C551   C     0.92997   0.27717   0.49245   0.00000  Uiso   1.00
C552   C     0.95606   0.27709   0.64035   0.00000  Uiso   1.00
C553   C     0.97291   0.70606   0.89034   0.00000  Uiso   1.00
C554   C     0.97283   0.67997   0.74243   0.00000  Uiso   1.00
C555   C     0.02744   0.63497   0.34697   0.00000  Uiso   1.00
C556   C     0.02776   0.61346   0.15618   0.00000  Uiso   1.00
C557   C     0.97253   0.54135   0.40649   0.00000  Uiso   1.00
C558   C     0.97250   0.52055   0.21174   0.00000  Uiso   1.00
C559   C     0.14747   0.80764   0.19616   0.00000  Uiso   1.00
C560   C     0.16031   0.82812   0.99745   0.00000  Uiso   1.00
C561   C     0.12204   0.82414   0.32931   0.00000  Uiso   1.00
C562   C     0.94236   0.60253   0.05384   0.00000  Uiso   1.00
C563   C     0.92586   0.62796   0.92068   0.00000  Uiso   1.00
C564   C     0.92188   0.58969   0.25255   0.00000  Uiso   1.00
H565   H     0.76174   0.19999   0.88530   0.00000  Uiso   1.00
H566   H     0.79968   0.20005   0.23672   0.00000  Uiso   1.00
H567   H     0.89441   0.20021   0.17152   0.00000  Uiso   1.00
H568   H     0.91842   0.29964   0.44374   0.00000  Uiso   1.00
H569   H     0.96599   0.29951   0.70907   0.00000  Uiso   1.00
H570   H     0.95049   0.71599   0.95906   0.00000  Uiso   1.00
H571   H     0.95036   0.66842   0.69373   0.00000  Uiso   1.00
H572   H     0.04979   0.64441   0.42152   0.00000  Uiso   1.00
H573   H     0.95005   0.54968   0.48672   0.00000  Uiso   1.00
H574   H     0.94999   0.51174   0.13530   0.00000  Uiso   1.00
H575   H     0.16641   0.80271   0.33328   0.00000  Uiso   1.00
H576   H     0.18625   0.82806   0.00795   0.00000  Uiso   1.00
H577   H     0.15279   0.81934   0.81064   0.00000  Uiso   1.00
H578   H     0.15152   0.85232   0.02456   0.00000  Uiso   1.00
H579   H     0.13225   0.84131   0.46266   0.00000  Uiso   1.00
H580   H     0.10712   0.83658   0.19091   0.00000  Uiso   1.00
H581   H     0.10765   0.80694   0.43444   0.00000  Uiso   1.00
H582   H     0.94729   0.58359   0.91673   0.00000  Uiso   1.00
H583   H     0.94092   0.64911   0.91595   0.00000  Uiso   1.00
H584   H     0.92054   0.62043   0.72565   0.00000  Uiso   1.00
H585   H     0.90371   0.63344   0.02033   0.00000  Uiso   1.00
H586   H     0.90487   0.57316   0.16775   0.00000  Uiso   1.00
H587   H     0.93634   0.57719   0.39375   0.00000  Uiso   1.00
H588   H     0.90906   0.60910   0.34537   0.00000  Uiso   1.00
C589   C     0.72945   0.77750   0.46174   0.00000  Uiso   1.00
C590   C     0.70865   0.77747   0.65649   0.00000  Uiso   1.00
C591   C     0.63654   0.77776   0.40618   0.00000  Uiso   1.00
C592   C     0.61502   0.77744   0.59697   0.00000  Uiso   1.00
C593   C     0.57003   0.72283   0.99245   0.00000  Uiso   1.00
C594   C     0.54394   0.72291   0.14035   0.00000  Uiso   1.00
C595   C     0.52709   0.29394   0.39034   0.00000  Uiso   1.00
C596   C     0.52717   0.32003   0.24243   0.00000  Uiso   1.00
C597   C     0.47256   0.36503   0.84697   0.00000  Uiso   1.00
C598   C     0.47224   0.38654   0.65618   0.00000  Uiso   1.00
C599   C     0.52747   0.45865   0.90649   0.00000  Uiso   1.00
C600   C     0.52750   0.47945   0.71174   0.00000  Uiso   1.00
C601   C     0.35253   0.19236   0.69616   0.00000  Uiso   1.00
C602   C     0.33969   0.17188   0.49745   0.00000  Uiso   1.00
C603   C     0.37796   0.17586   0.82931   0.00000  Uiso   1.00
C604   C     0.55764   0.39747   0.55384   0.00000  Uiso   1.00
C605   C     0.57414   0.37204   0.42068   0.00000  Uiso   1.00
C606   C     0.57812   0.41031   0.75255   0.00000  Uiso   1.00
H607   H     0.73826   0.80001   0.38530   0.00000  Uiso   1.00
H608   H     0.70032   0.79995   0.73672   0.00000  Uiso   1.00
H609   H     0.60559   0.79979   0.67152   0.00000  Uiso   1.00
H610   H     0.58158   0.70036   0.94374   0.00000  Uiso   1.00
H611   H     0.53401   0.70049   0.20907   0.00000  Uiso   1.00
H612   H     0.54951   0.28401   0.45906   0.00000  Uiso   1.00
H613   H     0.54964   0.33158   0.19373   0.00000  Uiso   1.00
H614   H     0.45021   0.35559   0.92152   0.00000  Uiso   1.00
H615   H     0.54995   0.45032   0.98672   0.00000  Uiso   1.00
H616   H     0.55001   0.48826   0.63530   0.00000  Uiso   1.00
H617   H     0.33359   0.19729   0.83328   0.00000  Uiso   1.00
H618   H     0.31375   0.17194   0.50795   0.00000  Uiso   1.00
H619   H     0.34721   0.18066   0.31064   0.00000  Uiso   1.00
H620   H     0.34848   0.14768   0.52456   0.00000  Uiso   1.00
H621   H     0.36775   0.15869   0.96266   0.00000  Uiso   1.00
H622   H     0.39288   0.16342   0.69091   0.00000  Uiso   1.00
H623   H     0.39235   0.19306   0.93444   0.00000  Uiso   1.00
H624   H     0.55271   0.41641   0.41673   0.00000  Uiso   1.00
H625   H     0.55908   0.35089   0.41595   0.00000  Uiso   1.00
H626   H     0.57946   0.37957   0.22565   0.00000  Uiso   1.00
H627   H     0.59629   0.36656   0.52033   0.00000  Uiso   1.00
H628   H     0.59513   0.42684   0.66775   0.00000  Uiso   1.00
H629   H     0.56366   0.42281   0.89375   0.00000  Uiso   1.00
H630   H     0.59094   0.39090   0.84537   0.00000  Uiso   1.00
C631   C     0.22945   0.27750   0.96174   0.00000  Uiso   1.00
C632   C     0.20865   0.27747   0.15649   0.00000  Uiso   1.00
C633   C     0.13654   0.27776   0.90618   0.00000  Uiso   1.00
C634   C     0.11502   0.27744   0.09697   0.00000  Uiso   1.00
C635   C     0.07003   0.22283   0.49245   0.00000  Uiso   1.00
C636   C     0.04394   0.22291   0.64035   0.00000  Uiso   1.00
C637   C     0.02709   0.79394   0.89034   0.00000  Uiso   1.00
C638   C     0.02717   0.82003   0.74243   0.00000  Uiso   1.00
C639   C     0.97256   0.86503   0.34697   0.00000  Uiso   1.00
C640   C     0.97224   0.88654   0.15618   0.00000  Uiso   1.00
C641   C     0.02747   0.95865   0.40649   0.00000  Uiso   1.00
C642   C     0.02750   0.97945   0.21174   0.00000  Uiso   1.00
C643   C     0.85253   0.69236   0.19616   0.00000  Uiso   1.00
C644   C     0.83969   0.67188   0.99745   0.00000  Uiso   1.00
C645   C     0.87796   0.67586   0.32931   0.00000  Uiso   1.00
C646   C     0.05764   0.89747   0.05384   0.00000  Uiso   1.00
C647   C     0.07414   0.87204   0.92068   0.00000  Uiso   1.00
C648   C     0.07812   0.91031   0.25255   0.00000  Uiso   1.00
H649   H     0.23826   0.30001   0.88530   0.00000  Uiso   1.00
H650   H     0.20032   0.29995   0.23672   0.00000  Uiso   1.00
H651   H     0.10559   0.29979   0.17152   0.00000  Uiso   1.00
H652   H     0.08158   0.20036   0.44374   0.00000  Uiso   1.00
H653   H     0.03401   0.20049   0.70907   0.00000  Uiso   1.00
H654   H     0.04951   0.78401   0.95906   0.00000  Uiso   1.00
H655   H     0.04964   0.83158   0.69373   0.00000  Uiso   1.00
H656   H     0.95021   0.85559   0.42152   0.00000  Uiso   1.00
H657   H     0.04995   0.95032   0.48672   0.00000  Uiso   1.00
H658   H     0.05001   0.98826   0.13530   0.00000  Uiso   1.00
H659   H     0.83359   0.69729   0.33328   0.00000  Uiso   1.00
H660   H     0.81375   0.67194   0.00795   0.00000  Uiso   1.00
H661   H     0.84721   0.68066   0.81064   0.00000  Uiso   1.00
H662   H     0.84848   0.64768   0.02456   0.00000  Uiso   1.00
H663   H     0.86775   0.65869   0.46266   0.00000  Uiso   1.00
H664   H     0.89288   0.66342   0.19091   0.00000  Uiso   1.00
H665   H     0.89235   0.69306   0.43444   0.00000  Uiso   1.00
H666   H     0.05271   0.91641   0.91673   0.00000  Uiso   1.00
H667   H     0.05908   0.85089   0.91595   0.00000  Uiso   1.00
H668   H     0.07946   0.87957   0.72565   0.00000  Uiso   1.00
H669   H     0.09629   0.86656   0.02033   0.00000  Uiso   1.00
H670   H     0.09513   0.92684   0.16775   0.00000  Uiso   1.00
H671   H     0.06366   0.92281   0.39375   0.00000  Uiso   1.00
H672   H     0.09094   0.89090   0.34537   0.00000  Uiso   1.00
C673   C     0.30203   0.75000   0.75391   0.00000  Uiso   1.00
C674   C     0.26031   0.75000   0.35845   0.00000  Uiso   1.00
N675   N     0.32586   0.75000   0.15412   0.00000  Uiso   1.00
C676   C     0.32856   0.75000   0.91873   0.00000  Uiso   1.00
C677   C     0.39528   0.75000   0.69937   0.00000  Uiso   1.00
C678   C     0.35184   0.75000   0.31469   0.00000  Uiso   1.00
C679   C     0.47083   0.75000   0.20905   0.00000  Uiso   1.00
C680   C     0.41781   0.75000   0.90329   0.00000  Uiso   1.00
C681   C     0.80203   0.25000   0.25391   0.00000  Uiso   1.00
C682   C     0.76031   0.25000   0.85845   0.00000  Uiso   1.00
N683   N     0.82586   0.25000   0.65412   0.00000  Uiso   1.00
C684   C     0.82856   0.25000   0.41873   0.00000  Uiso   1.00
C685   C     0.89528   0.25000   0.19937   0.00000  Uiso   1.00
C686   C     0.85184   0.25000   0.81469   0.00000  Uiso   1.00
C687   C     0.97083   0.25000   0.70905   0.00000  Uiso   1.00
C688   C     0.91781   0.25000   0.40329   0.00000  Uiso   1.00
C689   C     0.69797   0.75000   0.75391   0.00000  Uiso   1.00
C690   C     0.73969   0.75000   0.35845   0.00000  Uiso   1.00
N691   N     0.67414   0.75000   0.15412   0.00000  Uiso   1.00
C692   C     0.67144   0.75000   0.91873   0.00000  Uiso   1.00
C693   C     0.60472   0.75000   0.69937   0.00000  Uiso   1.00
C694   C     0.64816   0.75000   0.31469   0.00000  Uiso   1.00
C695   C     0.52917   0.75000   0.20905   0.00000  Uiso   1.00
C696   C     0.58219   0.75000   0.90329   0.00000  Uiso   1.00
C697   C     0.19797   0.25000   0.25391   0.00000  Uiso   1.00
C698   C     0.23969   0.25000   0.85845   0.00000  Uiso   1.00
N699   N     0.17414   0.25000   0.65412   0.00000  Uiso   1.00
C700   C     0.17144   0.25000   0.41873   0.00000  Uiso   1.00
C701   C     0.10472   0.25000   0.19937   0.00000  Uiso   1.00
C702   C     0.14816   0.25000   0.81469   0.00000  Uiso   1.00
C703   C     0.02917   0.25000   0.70905   0.00000  Uiso   1.00
C704   C     0.08219   0.25000   0.40329   0.00000  Uiso   1.00
C705   C     0.69797   0.25000   0.24609   0.00000  Uiso   1.00
C706   C     0.73969   0.25000   0.64155   0.00000  Uiso   1.00
N707   N     0.67414   0.25000   0.84588   0.00000  Uiso   1.00
C708   C     0.67144   0.25000   0.08127   0.00000  Uiso   1.00
C709   C     0.60472   0.25000   0.30063   0.00000  Uiso   1.00
C710   C     0.64816   0.25000   0.68531   0.00000  Uiso   1.00
C711   C     0.52917   0.25000   0.79095   0.00000  Uiso   1.00
C712   C     0.58219   0.25000   0.09671   0.00000  Uiso   1.00
C713   C     0.19797   0.75000   0.74609   0.00000  Uiso   1.00
C714   C     0.23969   0.75000   0.14155   0.00000  Uiso   1.00
N715   N     0.17414   0.75000   0.34588   0.00000  Uiso   1.00
C716   C     0.17144   0.75000   0.58127   0.00000  Uiso   1.00
C717   C     0.10472   0.75000   0.80063   0.00000  Uiso   1.00
C718   C     0.14816   0.75000   0.18531   0.00000  Uiso   1.00
C719   C     0.02917   0.75000   0.29095   0.00000  Uiso   1.00
C720   C     0.08219   0.75000   0.59671   0.00000  Uiso   1.00
C721   C     0.30203   0.25000   0.24609   0.00000  Uiso   1.00
C722   C     0.26031   0.25000   0.64155   0.00000  Uiso   1.00
N723   N     0.32586   0.25000   0.84588   0.00000  Uiso   1.00
C724   C     0.32856   0.25000   0.08127   0.00000  Uiso   1.00
C725   C     0.39528   0.25000   0.30063   0.00000  Uiso   1.00
C726   C     0.35184   0.25000   0.68531   0.00000  Uiso   1.00
C727   C     0.47083   0.25000   0.79095   0.00000  Uiso   1.00
C728   C     0.41781   0.25000   0.09671   0.00000  Uiso   1.00
C729   C     0.80203   0.75000   0.74609   0.00000  Uiso   1.00
C730   C     0.76031   0.75000   0.14155   0.00000  Uiso   1.00
N731   N     0.82586   0.75000   0.34588   0.00000  Uiso   1.00
C732   C     0.82856   0.75000   0.58127   0.00000  Uiso   1.00
C733   C     0.89528   0.75000   0.80063   0.00000  Uiso   1.00
C734   C     0.85184   0.75000   0.18531   0.00000  Uiso   1.00
C735   C     0.97083   0.75000   0.29095   0.00000  Uiso   1.00
C736   C     0.91781   0.75000   0.59671   0.00000  Uiso   1.00
C737   C     0.50000   0.75000   0.37501   0.00000  Uiso   1.00
C738   C     0.00000   0.25000   0.87501   0.00000  Uiso   1.00
C739   C     0.50000   0.25000   0.62499   0.00000  Uiso   1.00
C740   C     0.00000   0.75000   0.12499   0.00000  Uiso   1.00
C741   C     0.50000   0.33219   0.15328   0.00000  Uiso   1.00
C742   C     0.50000   0.27917   0.45903   0.00000  Uiso   1.00
C743   C     0.50000   0.39816   0.56469   0.00000  Uiso   1.00
C744   C     0.50000   0.35472   0.94937   0.00000  Uiso   1.00
C745   C     0.50000   0.48969   0.60845   0.00000  Uiso   1.00
C746   C     0.50000   0.44797   0.00391   0.00000  Uiso   1.00
N747   N     0.50000   0.57586   0.59588   0.00000  Uiso   1.00
C748   C     0.50000   0.57855   0.83127   0.00000  Uiso   1.00
C749   C     0.00000   0.83219   0.65328   0.00000  Uiso   1.00
C750   C     0.00000   0.77917   0.95903   0.00000  Uiso   1.00
C751   C     0.00000   0.89816   0.06469   0.00000  Uiso   1.00
C752   C     0.00000   0.85472   0.44937   0.00000  Uiso   1.00
C753   C     0.00000   0.98969   0.10845   0.00000  Uiso   1.00
C754   C     0.00000   0.94797   0.50391   0.00000  Uiso   1.00
N755   N     0.00000   0.07586   0.09588   0.00000  Uiso   1.00
C756   C     0.00000   0.07855   0.33127   0.00000  Uiso   1.00
C757   C     0.50000   0.16781   0.15328   0.00000  Uiso   1.00
C758   C     0.50000   0.22083   0.45903   0.00000  Uiso   1.00
C759   C     0.50000   0.10184   0.56469   0.00000  Uiso   1.00
C760   C     0.50000   0.14528   0.94937   0.00000  Uiso   1.00
C761   C     0.50000   0.01031   0.60845   0.00000  Uiso   1.00
C762   C     0.50000   0.05203   0.00391   0.00000  Uiso   1.00
N763   N     0.50000   0.92414   0.59588   0.00000  Uiso   1.00
C764   C     0.50000   0.92145   0.83127   0.00000  Uiso   1.00
C765   C     0.00000   0.66781   0.65328   0.00000  Uiso   1.00
C766   C     0.00000   0.72083   0.95903   0.00000  Uiso   1.00
C767   C     0.00000   0.60184   0.06469   0.00000  Uiso   1.00
C768   C     0.00000   0.64528   0.44937   0.00000  Uiso   1.00
C769   C     0.00000   0.51031   0.10845   0.00000  Uiso   1.00
C770   C     0.00000   0.55203   0.50391   0.00000  Uiso   1.00
N771   N     0.00000   0.42414   0.09588   0.00000  Uiso   1.00
C772   C     0.00000   0.42145   0.33127   0.00000  Uiso   1.00
C773   C     0.50000   0.83219   0.84672   0.00000  Uiso   1.00
C774   C     0.50000   0.77917   0.54097   0.00000  Uiso   1.00
C775   C     0.50000   0.89816   0.43531   0.00000  Uiso   1.00
C776   C     0.50000   0.85472   0.05063   0.00000  Uiso   1.00
C777   C     0.50000   0.98969   0.39155   0.00000  Uiso   1.00
C778   C     0.50000   0.94797   0.99609   0.00000  Uiso   1.00
N779   N     0.50000   0.07586   0.40412   0.00000  Uiso   1.00
C780   C     0.50000   0.07855   0.16873   0.00000  Uiso   1.00
C781   C     0.00000   0.33219   0.34672   0.00000  Uiso   1.00
C782   C     0.00000   0.27917   0.04097   0.00000  Uiso   1.00
C783   C     0.00000   0.39816   0.93531   0.00000  Uiso   1.00
C784   C     0.00000   0.35472   0.55063   0.00000  Uiso   1.00
C785   C     0.00000   0.48969   0.89155   0.00000  Uiso   1.00
C786   C     0.00000   0.44797   0.49609   0.00000  Uiso   1.00
N787   N     0.00000   0.57586   0.90412   0.00000  Uiso   1.00
C788   C     0.00000   0.57855   0.66873   0.00000  Uiso   1.00
C789   C     0.50000   0.66781   0.84672   0.00000  Uiso   1.00
C790   C     0.50000   0.72083   0.54097   0.00000  Uiso   1.00
C791   C     0.50000   0.60184   0.43531   0.00000  Uiso   1.00
C792   C     0.50000   0.64528   0.05063   0.00000  Uiso   1.00
C793   C     0.50000   0.51031   0.39155   0.00000  Uiso   1.00
C794   C     0.50000   0.55203   0.99609   0.00000  Uiso   1.00
N795   N     0.50000   0.42414   0.40412   0.00000  Uiso   1.00
C796   C     0.50000   0.42145   0.16873   0.00000  Uiso   1.00
C797   C     0.00000   0.16781   0.34672   0.00000  Uiso   1.00
C798   C     0.00000   0.22083   0.04097   0.00000  Uiso   1.00
C799   C     0.00000   0.10184   0.93531   0.00000  Uiso   1.00
C800   C     0.00000   0.14528   0.55063   0.00000  Uiso   1.00
C801   C     0.00000   0.01031   0.89155   0.00000  Uiso   1.00
C802   C     0.00000   0.05203   0.49609   0.00000  Uiso   1.00
N803   N     0.00000   0.92414   0.90412   0.00000  Uiso   1.00
C804   C     0.00000   0.92145   0.66873   0.00000  Uiso   1.00
loop_
_geom_bond_atom_site_label_1
_geom_bond_atom_site_label_2
_geom_bond_distance
_geom_bond_site_symmetry_2
_ccdc_geom_bond_type
C1     C2      1.395   .     D
C1     H19     1.139   .     S
C1     C674    1.405   .     S
C2     H20     1.139   .     S
C2     C673    1.398   .     S
C3     C4      1.400   .     S
C3     C349    1.503   .     S
C3     C678    1.411   .     D
C4     H21     1.139   .     S
C4     C677    1.401   .     D
C5     C6      1.398   1_556 D
C5     H22     1.140   .     S
C5     C680    1.393   .     S
C6     C5      1.398   1_554 D
C6     H23     1.139   .     S
C6     C679    1.405   .     S
C7     C8      1.398   .     S
C7     H24     1.139   .     S
C7     C742    1.405   .     D
C8     H25     1.140   .     S
C8     C741    1.393   .     D
C9     C10     1.400   .     D
C9     H26     1.139   .     S
C9     C744    1.401   .     S
C10    C604    1.503   .     S
C10    C743    1.411   .     S
C11    C12     1.395   .     D
C11    H27     1.139   .     S
C11    C746    1.398   1_556 S
C12    H28     1.139   .     S
C12    C745    1.405   .     S
C13    C14     1.511   .     S
C13    C15     1.514   .     S
C13    H29     1.136   .     S
C13    C339    1.503   .     S
C14    H30     1.141   .     S
C14    H31     1.131   .     S
C14    H32     1.140   .     S
C15    H33     1.136   .     S
C15    H34     1.135   .     S
C15    H35     1.137   .     S
C16    C17     1.514   .     S
C16    C18     1.511   .     S
C16    H36     1.135   .     S
C16    C598    1.503   .     S
C17    H37     1.140   .     S
C17    H38     1.131   .     S
C17    H39     1.138   .     S
C18    H40     1.138   .     S
C18    H41     1.135   .     S
C18    H42     1.138   .     S
C43    C44     1.395   1_556 D
C43    H61     1.139   .     S
C43    C682    1.405   .     S
C44    C43     1.395   1_554 D
C44    H62     1.139   .     S
C44    C681    1.398   .     S
C45    C46     1.400   1_556 S
C45    C391    1.503   .     S
C45    C686    1.411   .     D
C46    C45     1.400   1_554 S
C46    H63     1.139   .     S
C46    C685    1.401   .     D
C47    C48     1.398   .     D
C47    H64     1.140   .     S
C47    C688    1.393   .     S
C48    H65     1.139   .     S
C48    C687    1.405   .     S
C49    C50     1.398   .     D
C49    H66     1.139   .     S
C49    C750    1.405   1_655 S
C50    H67     1.140   .     S
C50    C749    1.393   1_655 S
C51    C52     1.400   .     S
C51    H68     1.139   .     S
C51    C752    1.401   .     D
C52    C646    1.503   .     S
C52    C751    1.411   .     D
C53    C54     1.395   .     D
C53    H69     1.139   .     S
C53    C754    1.398   1_655 S
C54    H70     1.139   .     S
C54    C753    1.405   1_655 S
C55    C56     1.511   1_554 S
C55    C57     1.514   .     S
C55    H71     1.136   .     S
C55    C381    1.503   .     S
C56    C55     1.511   1_556 S
C56    H72     1.141   1_556 S
C56    H73     1.131   .     S
C56    H74     1.140   1_556 S
C57    H75     1.136   .     S
C57    H76     1.135   .     S
C57    H77     1.137   .     S
C58    C59     1.514   1_554 S
C58    C60     1.511   .     S
C58    H78     1.135   1_554 S
C58    C640    1.503   .     S
C59    C58     1.514   1_556 S
C59    H79     1.140   .     S
C59    H80     1.131   .     S
C59    H81     1.138   1_556 S
C60    H82     1.138   .     S
C60    H83     1.135   .     S
C60    H84     1.138   .     S
H72    C56     1.141   1_554 S
H74    C56     1.140   1_554 S
H78    C58     1.135   1_556 S
H81    C59     1.138   1_554 S
C85    C86     1.395   .     D
C85    H103    1.139   .     S
C85    C690    1.405   .     S
C86    H104    1.139   .     S
C86    C689    1.398   .     S
C87    C88     1.400   .     D
C87    C433    1.503   .     S
C87    C694    1.411   .     S
C88    H105    1.139   .     S
C88    C693    1.401   .     S
C89    C90     1.398   1_556 S
C89    H106    1.140   .     S
C89    C696    1.393   .     D
C90    C89     1.398   1_554 S
C90    H107    1.139   .     S
C90    C695    1.405   .     D
C91    C92     1.398   .     D
C91    H108    1.139   .     S
C91    C758    1.405   .     S
C92    H109    1.140   .     S
C92    C757    1.393   .     S
C93    C94     1.400   .     S
C93    H110    1.139   .     S
C93    C760    1.401   .     D
C94    C520    1.503   .     S
C94    C759    1.411   .     D
C95    C96     1.395   .     D
C95    H111    1.139   .     S
C95    C762    1.398   1_556 S
C96    H112    1.139   .     S
C96    C761    1.405   .     S
C97    C98     1.511   .     S
C97    C99     1.514   .     S
C97    H113    1.136   .     S
C97    C423    1.503   .     S
C98    H114    1.141   .     S
C98    H115    1.131   .     S
C98    H116    1.140   .     S
C99    H117    1.136   .     S
C99    H118    1.135   .     S
C99    H119    1.137   .     S
C100   C101    1.514   .     S
C100   C102    1.511   .     S
C100   H120    1.135   .     S
C100   C514    1.503   .     S
C101   H121    1.140   .     S
C101   H122    1.131   .     S
C101   H123    1.138   .     S
C102   H124    1.138   .     S
C102   H125    1.135   .     S
C102   H126    1.138   .     S
C127   C128    1.395   1_556 D
C127   H145    1.139   .     S
C127   C698    1.405   .     S
C128   C127    1.395   1_554 D
C128   H146    1.139   .     S
C128   C697    1.398   .     S
C129   C130    1.400   1_556 D
C129   C475    1.503   .     S
C129   C702    1.411   .     S
C130   C129    1.400   1_554 D
C130   H147    1.139   .     S
C130   C701    1.401   .     S
C131   C132    1.398   .     S
C131   H148    1.140   .     S
C131   C704    1.393   .     D
C132   H149    1.139   .     S
C132   C703    1.405   .     D
C133   C134    1.398   .     S
C133   H150    1.139   .     S
C133   C766    1.405   .     D
C134   H151    1.140   .     S
C134   C765    1.393   .     D
C135   C136    1.400   .     D
C135   H152    1.139   .     S
C135   C768    1.401   1_655 S
C136   C562    1.503   .     S
C136   C767    1.411   1_655 S
C137   C138    1.395   .     D
C137   H153    1.139   .     S
C137   C770    1.398   .     S
C138   H154    1.139   .     S
C138   C769    1.405   .     S
C139   C140    1.511   1_554 S
C139   C141    1.514   .     S
C139   H155    1.136   .     S
C139   C465    1.503   .     S
C140   C139    1.511   1_556 S
C140   H156    1.141   1_556 S
C140   H157    1.131   .     S
C140   H158    1.140   1_556 S
C141   H159    1.136   .     S
C141   H160    1.135   .     S
C141   H161    1.137   .     S
C142   C143    1.514   1_554 S
C142   C144    1.511   .     S
C142   H162    1.135   1_554 S
C142   C556    1.503   .     S
C143   C142    1.514   1_556 S
C143   H163    1.140   .     S
C143   H164    1.131   .     S
C143   H165    1.138   1_556 S
C144   H166    1.138   .     S
C144   H167    1.135   .     S
C144   H168    1.138   .     S
H156   C140    1.141   1_554 S
H158   C140    1.140   1_554 S
H162   C142    1.135   1_556 S
H165   C143    1.138   1_554 S
C169   C170    1.395   .     D
C169   H187    1.139   .     S
C169   C706    1.405   .     S
C170   H188    1.139   .     S
C170   C705    1.398   .     S
C171   C172    1.400   .     S
C171   C517    1.503   .     S
C171   C710    1.411   .     D
C172   H189    1.139   .     S
C172   C709    1.401   .     D
C173   C174    1.398   1_554 D
C173   H190    1.140   .     S
C173   C712    1.393   .     S
C174   C173    1.398   1_556 D
C174   H191    1.139   .     S
C174   C711    1.405   .     S
C175   C176    1.398   .     D
C175   H192    1.139   .     S
C175   C774    1.405   .     S
C176   H193    1.140   .     S
C176   C773    1.393   .     S
C177   C178    1.400   .     S
C177   H194    1.139   .     S
C177   C776    1.401   .     D
C178   C436    1.503   .     S
C178   C775    1.411   .     D
C179   C180    1.395   .     D
C179   H195    1.139   .     S
C179   C778    1.398   1_554 S
C180   H196    1.139   .     S
C180   C777    1.405   .     S
C181   C182    1.511   .     S
C181   C183    1.514   .     S
C181   H197    1.136   .     S
C181   C507    1.503   .     S
C182   H198    1.141   .     S
C182   H199    1.131   .     S
C182   H200    1.140   .     S
C183   H201    1.136   .     S
C183   H202    1.135   .     S
C183   H203    1.137   .     S
C184   C185    1.514   .     S
C184   C186    1.511   .     S
C184   H204    1.135   .     S
C184   C430    1.503   .     S
C185   H205    1.140   .     S
C185   H206    1.131   .     S
C185   H207    1.138   .     S
C186   H208    1.138   .     S
C186   H209    1.135   .     S
C186   H210    1.138   .     S
C211   C212    1.395   1_554 D
C211   H229    1.139   .     S
C211   C714    1.405   .     S
C212   C211    1.395   1_556 D
C212   H230    1.139   .     S
C212   C713    1.398   .     S
C213   C214    1.400   1_554 S
C213   C559    1.503   .     S
C213   C718    1.411   .     D
C214   C213    1.400   1_556 S
C214   H231    1.139   .     S
C214   C717    1.401   .     D
C215   C216    1.398   .     D
C215   H232    1.140   .     S
C215   C720    1.393   .     S
C216   H233    1.139   .     S
C216   C719    1.405   .     S
C217   C218    1.398   .     S
C217   H234    1.139   .     S
C217   C782    1.405   .     D
C218   H235    1.140   .     S
C218   C781    1.393   .     D
C219   C220    1.400   .     D
C219   H236    1.139   .     S
C219   C784    1.401   1_655 S
C220   C478    1.503   .     S
C220   C783    1.411   1_655 S
C221   C222    1.395   .     D
C221   H237    1.139   .     S
C221   C786    1.398   .     S
C222   H238    1.139   .     S
C222   C785    1.405   .     S
C223   C224    1.511   1_556 S
C223   C225    1.514   .     S
C223   H239    1.136   .     S
C223   C549    1.503   .     S
C224   C223    1.511   1_554 S
C224   H240    1.141   1_554 S
C224   H241    1.131   .     S
C224   H242    1.140   1_554 S
C225   H243    1.136   .     S
C225   H244    1.135   .     S
C225   H245    1.137   .     S
C226   C227    1.514   1_556 S
C226   C228    1.511   .     S
C226   H246    1.135   1_556 S
C226   C472    1.503   .     S
C227   C226    1.514   1_554 S
C227   H247    1.140   .     S
C227   H248    1.131   .     S
C227   H249    1.138   1_554 S
C228   H250    1.138   .     S
C228   H251    1.135   .     S
C228   H252    1.138   .     S
H240   C224    1.141   1_556 S
H242   C224    1.140   1_556 S
H246   C226    1.135   1_554 S
H249   C227    1.138   1_556 S
C253   C254    1.395   .     D
C253   H271    1.139   .     S
C253   C722    1.405   .     S
C254   H272    1.139   .     S
C254   C721    1.398   .     S
C255   C256    1.400   .     D
C255   C601    1.503   .     S
C255   C726    1.411   .     S
C256   H273    1.139   .     S
C256   C725    1.401   .     S
C257   C258    1.398   1_554 S
C257   H274    1.140   .     S
C257   C728    1.393   .     D
C258   C257    1.398   1_556 S
C258   H275    1.139   .     S
C258   C727    1.405   .     D
C259   C260    1.398   .     S
C259   H276    1.139   .     S
C259   C790    1.405   .     D
C260   H277    1.140   .     S
C260   C789    1.393   .     D
C261   C262    1.400   .     D
C261   H278    1.139   .     S
C261   C792    1.401   .     S
C262   C352    1.503   .     S
C262   C791    1.411   .     S
C263   C264    1.395   .     D
C263   H279    1.139   .     S
C263   C794    1.398   1_554 S
C264   H280    1.139   .     S
C264   C793    1.405   .     S
C265   C266    1.511   .     S
C265   C267    1.514   .     S
C265   H281    1.136   .     S
C265   C591    1.503   .     S
C266   H282    1.141   .     S
C266   H283    1.131   .     S
C266   H284    1.140   .     S
C267   H285    1.136   .     S
C267   H286    1.135   .     S
C267   H287    1.137   .     S
C268   C269    1.514   .     S
C268   C270    1.511   .     S
C268   H288    1.135   .     S
C268   C346    1.503   .     S
C269   H289    1.140   .     S
C269   H290    1.131   .     S
C269   H291    1.138   .     S
C270   H292    1.138   .     S
C270   H293    1.135   .     S
C270   H294    1.138   .     S
C295   C296    1.395   1_554 D
C295   H313    1.139   .     S
C295   C730    1.405   .     S
C296   C295    1.395   1_556 D
C296   H314    1.139   .     S
C296   C729    1.398   .     S
C297   C298    1.400   1_554 D
C297   C643    1.503   .     S
C297   C734    1.411   .     S
C298   C297    1.400   1_556 D
C298   H315    1.139   .     S
C298   C733    1.401   .     S
C299   C300    1.398   .     S
C299   H316    1.140   .     S
C299   C736    1.393   .     D
C300   H317    1.139   .     S
C300   C735    1.405   .     D
C301   C302    1.398   .     D
C301   H318    1.139   .     S
C301   C798    1.405   1_655 S
C302   H319    1.140   .     S
C302   C797    1.393   1_655 S
C303   C304    1.400   .     S
C303   H320    1.139   .     S
C303   C800    1.401   .     D
C304   C394    1.503   .     S
C304   C799    1.411   .     D
C305   C306    1.395   .     D
C305   H321    1.139   .     S
C305   C802    1.398   1_655 S
C306   H322    1.139   .     S
C306   C801    1.405   1_655 S
C307   C308    1.511   1_556 S
C307   C309    1.514   .     S
C307   H323    1.136   .     S
C307   C633    1.503   .     S
C308   C307    1.511   1_554 S
C308   H324    1.141   1_554 S
C308   H325    1.131   .     S
C308   H326    1.140   1_554 S
C309   H327    1.136   .     S
C309   H328    1.135   .     S
C309   H329    1.137   .     S
C310   C311    1.514   1_556 S
C310   C312    1.511   .     S
C310   H330    1.135   1_556 S
C310   C388    1.503   .     S
C311   C310    1.514   1_554 S
C311   H331    1.140   .     S
C311   H332    1.131   .     S
C311   H333    1.138   1_554 S
C312   H334    1.138   .     S
C312   H335    1.135   .     S
C312   H336    1.138   .     S
H324   C308    1.141   1_556 S
H326   C308    1.140   1_556 S
H330   C310    1.135   1_554 S
H333   C311    1.138   1_556 S
C337   C338    1.395   .     D
C337   H355    1.139   .     S
C337   C706    1.405   .     S
C338   H356    1.139   .     S
C338   C705    1.398   .     S
C339   C340    1.400   .     D
C339   C710    1.411   .     S
C340   H357    1.139   .     S
C340   C709    1.401   .     S
C341   C342    1.398   1_554 S
C341   H358    1.140   .     S
C341   C712    1.393   .     D
C342   C341    1.398   1_556 S
C342   H359    1.139   .     S
C342   C711    1.405   .     D
C343   C344    1.398   .     D
C343   H360    1.139   .     S
C343   C790    1.405   .     S
C344   H361    1.140   .     S
C344   C789    1.393   .     S
C345   C346    1.400   .     S
C345   H362    1.139   .     S
C345   C792    1.401   .     D
C346   C791    1.411   .     D
C347   C348    1.395   .     D
C347   H363    1.139   .     S
C347   C794    1.398   1_554 S
C348   H364    1.139   .     S
C348   C793    1.405   .     S
C349   C350    1.511   .     S
C349   C351    1.514   .     S
C349   H365    1.136   .     S
C350   H366    1.141   .     S
C350   H367    1.131   .     S
C350   H368    1.140   .     S
C351   H369    1.136   .     S
C351   H370    1.135   .     S
C351   H371    1.137   .     S
C352   C353    1.514   .     S
C352   C354    1.511   .     S
C352   H372    1.135   .     S
C353   H373    1.140   .     S
C353   H374    1.131   .     S
C353   H375    1.138   .     S
C354   H376    1.138   .     S
C354   H377    1.135   .     S
C354   H378    1.138   .     S
C379   C380    1.395   1_554 D
C379   H397    1.139   .     S
C379   C714    1.405   .     S
C380   C379    1.395   1_556 D
C380   H398    1.139   .     S
C380   C713    1.398   .     S
C381   C382    1.400   1_554 D
C381   C718    1.411   .     S
C382   C381    1.400   1_556 D
C382   H399    1.139   .     S
C382   C717    1.401   .     S
C383   C384    1.398   .     S
C383   H400    1.140   .     S
C383   C720    1.393   .     D
C384   H401    1.139   .     S
C384   C719    1.405   .     D
C385   C386    1.398   .     S
C385   H402    1.139   .     S
C385   C798    1.405   .     D
C386   H403    1.140   .     S
C386   C797    1.393   .     D
C387   C388    1.400   .     D
C387   H404    1.139   .     S
C387   C800    1.401   1_655 S
C388   C799    1.411   1_655 S
C389   C390    1.395   .     D
C389   H405    1.139   .     S
C389   C802    1.398   .     S
C390   H406    1.139   .     S
C390   C801    1.405   .     S
C391   C392    1.511   1_556 S
C391   C393    1.514   .     S
C391   H407    1.136   .     S
C392   C391    1.511   1_554 S
C392   H408    1.141   1_554 S
C392   H409    1.131   .     S
C392   H410    1.140   1_554 S
C393   H411    1.136   .     S
C393   H412    1.135   .     S
C393   H413    1.137   .     S
C394   C395    1.514   1_556 S
C394   C396    1.511   .     S
C394   H414    1.135   1_556 S
C395   C394    1.514   1_554 S
C395   H415    1.140   .     S
C395   H416    1.131   .     S
C395   H417    1.138   1_554 S
C396   H418    1.138   .     S
C396   H419    1.135   .     S
C396   H420    1.138   .     S
H408   C392    1.141   1_556 S
H410   C392    1.140   1_556 S
H414   C394    1.135   1_554 S
H417   C395    1.138   1_556 S
C421   C422    1.395   .     D
C421   H439    1.139   .     S
C421   C722    1.405   .     S
C422   H440    1.139   .     S
C422   C721    1.398   .     S
C423   C424    1.400   .     S
C423   C726    1.411   .     D
C424   H441    1.139   .     S
C424   C725    1.401   .     D
C425   C426    1.398   1_554 D
C425   H442    1.140   .     S
C425   C728    1.393   .     S
C426   C425    1.398   1_556 D
C426   H443    1.139   .     S
C426   C727    1.405   .     S
C427   C428    1.398   .     S
C427   H444    1.139   .     S
C427   C774    1.405   .     D
C428   H445    1.140   .     S
C428   C773    1.393   .     D
C429   C430    1.400   .     D
C429   H446    1.139   .     S
C429   C776    1.401   .     S
C430   C775    1.411   .     S
C431   C432    1.395   .     D
C431   H447    1.139   .     S
C431   C778    1.398   1_554 S
C432   H448    1.139   .     S
C432   C777    1.405   .     S
C433   C434    1.511   .     S
C433   C435    1.514   .     S
C433   H449    1.136   .     S
C434   H450    1.141   .     S
C434   H451    1.131   .     S
C434   H452    1.140   .     S
C435   H453    1.136   .     S
C435   H454    1.135   .     S
C435   H455    1.137   .     S
C436   C437    1.514   .     S
C436   C438    1.511   .     S
C436   H456    1.135   .     S
C437   H457    1.140   .     S
C437   H458    1.131   .     S
C437   H459    1.138   .     S
C438   H460    1.138   .     S
C438   H461    1.135   .     S
C438   H462    1.138   .     S
C463   C464    1.395   1_554 D
C463   H481    1.139   .     S
C463   C730    1.405   .     S
C464   C463    1.395   1_556 D
C464   H482    1.139   .     S
C464   C729    1.398   .     S
C465   C466    1.400   1_554 S
C465   C734    1.411   .     D
C466   C465    1.400   1_556 S
C466   H483    1.139   .     S
C466   C733    1.401   .     D
C467   C468    1.398   .     D
C467   H484    1.140   .     S
C467   C736    1.393   .     S
C468   H485    1.139   .     S
C468   C735    1.405   .     S
C469   C470    1.398   .     D
C469   H486    1.139   .     S
C469   C782    1.405   1_655 S
C470   H487    1.140   .     S
C470   C781    1.393   1_655 S
C471   C472    1.400   .     S
C471   H488    1.139   .     S
C471   C784    1.401   .     D
C472   C783    1.411   .     D
C473   C474    1.395   .     D
C473   H489    1.139   .     S
C473   C786    1.398   1_655 S
C474   H490    1.139   .     S
C474   C785    1.405   1_655 S
C475   C476    1.511   1_556 S
C475   C477    1.514   .     S
C475   H491    1.136   .     S
C476   C475    1.511   1_554 S
C476   H492    1.141   1_554 S
C476   H493    1.131   .     S
C476   H494    1.140   1_554 S
C477   H495    1.136   .     S
C477   H496    1.135   .     S
C477   H497    1.137   .     S
C478   C479    1.514   1_556 S
C478   C480    1.511   .     S
C478   H498    1.135   1_556 S
C479   C478    1.514   1_554 S
C479   H499    1.140   .     S
C479   H500    1.131   .     S
C479   H501    1.138   1_554 S
C480   H502    1.138   .     S
C480   H503    1.135   .     S
C480   H504    1.138   .     S
H492   C476    1.141   1_556 S
H494   C476    1.140   1_556 S
H498   C478    1.135   1_554 S
H501   C479    1.138   1_556 S
C505   C506    1.395   .     D
C505   H523    1.139   .     S
C505   C674    1.405   .     S
C506   H524    1.139   .     S
C506   C673    1.398   .     S
C507   C508    1.400   .     D
C507   C678    1.411   .     S
C508   H525    1.139   .     S
C508   C677    1.401   .     S
C509   C510    1.398   1_556 S
C509   H526    1.140   .     S
C509   C680    1.393   .     D
C510   C509    1.398   1_554 S
C510   H527    1.139   .     S
C510   C679    1.405   .     D
C511   C512    1.398   .     S
C511   H528    1.139   .     S
C511   C758    1.405   .     D
C512   H529    1.140   .     S
C512   C757    1.393   .     D
C513   C514    1.400   .     D
C513   H530    1.139   .     S
C513   C760    1.401   .     S
C514   C759    1.411   .     S
C515   C516    1.395   .     D
C515   H531    1.139   .     S
C515   C762    1.398   1_556 S
C516   H532    1.139   .     S
C516   C761    1.405   .     S
C517   C518    1.511   .     S
C517   C519    1.514   .     S
C517   H533    1.136   .     S
C518   H534    1.141   .     S
C518   H535    1.131   .     S
C518   H536    1.140   .     S
C519   H537    1.136   .     S
C519   H538    1.135   .     S
C519   H539    1.137   .     S
C520   C521    1.514   .     S
C520   C522    1.511   .     S
C520   H540    1.135   .     S
C521   H541    1.140   .     S
C521   H542    1.131   .     S
C521   H543    1.138   .     S
C522   H544    1.138   .     S
C522   H545    1.135   .     S
C522   H546    1.138   .     S
C547   C548    1.395   1_556 D
C547   H565    1.139   .     S
C547   C682    1.405   .     S
C548   C547    1.395   1_554 D
C548   H566    1.139   .     S
C548   C681    1.398   .     S
C549   C550    1.400   1_556 D
C549   C686    1.411   .     S
C550   C549    1.400   1_554 D
C550   H567    1.139   .     S
C550   C685    1.401   .     S
C551   C552    1.398   .     S
C551   H568    1.140   .     S
C551   C688    1.393   .     D
C552   H569    1.139   .     S
C552   C687    1.405   .     D
C553   C554    1.398   .     D
C553   H570    1.139   .     S
C553   C766    1.405   1_655 S
C554   H571    1.140   .     S
C554   C765    1.393   1_655 S
C555   C556    1.400   .     S
C555   H572    1.139   .     S
C555   C768    1.401   .     D
C556   C767    1.411   .     D
C557   C558    1.395   .     D
C557   H573    1.139   .     S
C557   C770    1.398   1_655 S
C558   H574    1.139   .     S
C558   C769    1.405   1_655 S
C559   C560    1.511   1_554 S
C559   C561    1.514   .     S
C559   H575    1.136   .     S
C560   C559    1.511   1_556 S
C560   H576    1.141   1_556 S
C560   H577    1.131   .     S
C560   H578    1.140   1_556 S
C561   H579    1.136   .     S
C561   H580    1.135   .     S
C561   H581    1.137   .     S
C562   C563    1.514   1_554 S
C562   C564    1.511   .     S
C562   H582    1.135   1_554 S
C563   C562    1.514   1_556 S
C563   H583    1.140   .     S
C563   H584    1.131   .     S
C563   H585    1.138   1_556 S
C564   H586    1.138   .     S
C564   H587    1.135   .     S
C564   H588    1.138   .     S
H576   C560    1.141   1_554 S
H578   C560    1.140   1_554 S
H582   C562    1.135   1_556 S
H585   C563    1.138   1_554 S
C589   C590    1.395   .     D
C589   H607    1.139   .     S
C589   C690    1.405   .     S
C590   H608    1.139   .     S
C590   C689    1.398   .     S
C591   C592    1.400   .     S
C591   C694    1.411   .     D
C592   H609    1.139   .     S
C592   C693    1.401   .     D
C593   C594    1.398   1_556 D
C593   H610    1.140   .     S
C593   C696    1.393   .     S
C594   C593    1.398   1_554 D
C594   H611    1.139   .     S
C594   C695    1.405   .     S
C595   C596    1.398   .     D
C595   H612    1.139   .     S
C595   C742    1.405   .     S
C596   H613    1.140   .     S
C596   C741    1.393   .     S
C597   C598    1.400   .     S
C597   H614    1.139   .     S
C597   C744    1.401   .     D
C598   C743    1.411   .     D
C599   C600    1.395   .     D
C599   H615    1.139   .     S
C599   C746    1.398   1_556 S
C600   H616    1.139   .     S
C600   C745    1.405   .     S
C601   C602    1.511   .     S
C601   C603    1.514   .     S
C601   H617    1.136   .     S
C602   H618    1.141   .     S
C602   H619    1.131   .     S
C602   H620    1.140   .     S
C603   H621    1.136   .     S
C603   H622    1.135   .     S
C603   H623    1.137   .     S
C604   C605    1.514   .     S
C604   C606    1.511   .     S
C604   H624    1.135   .     S
C605   H625    1.140   .     S
C605   H626    1.131   .     S
C605   H627    1.138   .     S
C606   H628    1.138   .     S
C606   H629    1.135   .     S
C606   H630    1.138   .     S
C631   C632    1.395   1_556 D
C631   H649    1.139   .     S
C631   C698    1.405   .     S
C632   C631    1.395   1_554 D
C632   H650    1.139   .     S
C632   C697    1.398   .     S
C633   C634    1.400   1_556 S
C633   C702    1.411   .     D
C634   C633    1.400   1_554 S
C634   H651    1.139   .     S
C634   C701    1.401   .     D
C635   C636    1.398   .     D
C635   H652    1.140   .     S
C635   C704    1.393   .     S
C636   H653    1.139   .     S
C636   C703    1.405   .     S
C637   C638    1.398   .     S
C637   H654    1.139   .     S
C637   C750    1.405   .     D
C638   H655    1.140   .     S
C638   C749    1.393   .     D
C639   C640    1.400   .     D
C639   H656    1.139   .     S
C639   C752    1.401   1_655 S
C640   C751    1.411   1_655 S
C641   C642    1.395   .     D
C641   H657    1.139   .     S
C641   C754    1.398   .     S
C642   H658    1.139   .     S
C642   C753    1.405   .     S
C643   C644    1.511   1_554 S
C643   C645    1.514   .     S
C643   H659    1.136   .     S
C644   C643    1.511   1_556 S
C644   H660    1.141   1_556 S
C644   H661    1.131   .     S
C644   H662    1.140   1_556 S
C645   H663    1.136   .     S
C645   H664    1.135   .     S
C645   H665    1.137   .     S
C646   C647    1.514   1_554 S
C646   C648    1.511   .     S
C646   H666    1.135   1_554 S
C647   C646    1.514   1_556 S
C647   H667    1.140   .     S
C647   H668    1.131   .     S
C647   H669    1.138   1_556 S
C648   H670    1.138   .     S
C648   H671    1.135   .     S
C648   H672    1.138   .     S
H660   C644    1.141   1_554 S
H662   C644    1.140   1_554 S
H666   C646    1.135   1_556 S
H669   C647    1.138   1_554 S
C673   C676    1.467   .     D
C674   C714    1.483   .     D
N675   C676    1.280   1_554 D
N675   C678    1.434   .     S
C676   N675    1.280   1_556 D
C677   C680    1.482   .     S
C679   C737    1.564   .     S
C681   C684    1.467   .     D
C682   C706    1.483   .     D
N683   C684    1.280   .     D
N683   C686    1.434   .     S
C685   C688    1.482   .     S
C687   C738    1.564   1_655 S
C689   C692    1.467   .     D
C690   C730    1.483   .     D
N691   C692    1.280   1_554 D
N691   C694    1.434   .     S
C692   N691    1.280   1_556 D
C693   C696    1.482   .     S
C695   C737    1.564   .     S
C697   C700    1.467   .     D
C698   C722    1.483   .     D
N699   C700    1.280   .     D
N699   C702    1.434   .     S
C701   C704    1.482   .     S
C703   C738    1.564   .     S
C705   C708    1.467   .     D
N707   C708    1.280   1_556 D
N707   C710    1.434   .     S
C708   N707    1.280   1_554 D
C709   C712    1.482   .     S
C711   C739    1.564   .     S
C713   C716    1.467   .     D
N715   C716    1.280   .     D
N715   C718    1.434   .     S
C717   C720    1.482   .     S
C719   C740    1.564   .     S
C721   C724    1.467   .     D
N723   C724    1.280   1_556 D
N723   C726    1.434   .     S
C724   N723    1.280   1_554 D
C725   C728    1.482   .     S
C727   C739    1.564   .     S
C729   C732    1.467   .     D
N731   C732    1.280   .     D
N731   C734    1.434   .     S
C733   C736    1.482   .     S
C735   C740    1.564   1_655 S
C737   C774    1.564   .     S
C737   C790    1.564   .     S
C738   C687    1.564   1_455 S
C738   C782    1.564   1_556 S
C738   C798    1.564   1_556 S
C739   C742    1.564   .     S
C739   C758    1.564   .     S
C740   C735    1.564   1_455 S
C740   C750    1.564   1_554 S
C740   C766    1.564   1_554 S
C741   C744    1.482   1_554 S
C743   N795    1.434   .     S
C744   C741    1.482   1_556 S
C745   C793    1.483   .     D
C746   C11     1.398   1_554 S
C746   C599    1.398   1_554 S
C746   C796    1.467   .     D
N747   C748    1.279   .     D
N747   C791    1.434   .     S
C748   C794    1.467   .     D
C749   C50     1.393   1_455 S
C749   C752    1.482   .     S
C750   C49     1.405   1_455 S
C750   C740    1.564   1_556 S
C751   C640    1.411   1_455 S
C751   N803    1.434   1_554 S
C752   C639    1.401   1_455 S
C753   C54     1.405   1_455 S
C753   C801    1.483   1_564 D
C754   C53     1.398   1_455 S
C754   C804    1.467   .     D
N755   C756    1.279   .     D
N755   C799    1.434   1_554 S
C756   C802    1.467   .     D
C757   C760    1.482   1_554 S
C759   N779    1.434   .     S
C760   C757    1.482   1_556 S
C761   C777    1.483   1_545 D
C762   C515    1.398   1_554 S
C762   C95     1.398   1_554 S
C762   C780    1.467   .     D
N763   C764    1.279   .     D
N763   C775    1.434   .     S
C764   C778    1.467   .     D
C765   C554    1.393   1_455 S
C765   C768    1.482   .     S
C766   C553    1.405   1_455 S
C766   C740    1.564   1_556 S
C767   C136    1.411   1_455 S
C767   N787    1.434   1_554 S
C768   C135    1.401   1_455 S
C769   C558    1.405   1_455 S
C769   C785    1.483   1_554 D
C770   C557    1.398   1_455 S
C770   C788    1.467   .     D
N771   C772    1.279   .     D
N771   C783    1.434   1_554 S
C772   C786    1.467   .     D
C773   C776    1.482   1_556 S
C776   C773    1.482   1_554 S
C777   C761    1.483   1_565 D
C778   C431    1.398   1_556 S
C778   C179    1.398   1_556 S
N779   C780    1.279   .     D
C781   C470    1.393   1_455 S
C781   C784    1.482   .     S
C782   C469    1.405   1_455 S
C782   C738    1.564   1_554 S
C783   C220    1.411   1_455 S
C783   N771    1.434   1_556 S
C784   C219    1.401   1_455 S
C785   C474    1.405   1_455 S
C785   C769    1.483   1_556 D
C786   C473    1.398   1_455 S
N787   C767    1.434   1_556 S
N787   C788    1.279   .     D
C789   C792    1.482   1_556 S
C792   C789    1.482   1_554 S
C794   C263    1.398   1_556 S
C794   C347    1.398   1_556 S
N795   C796    1.279   .     D
C797   C302    1.393   1_455 S
C797   C800    1.482   .     S
C798   C301    1.405   1_455 S
C798   C738    1.564   1_554 S
C799   C388    1.411   1_455 S
C799   N755    1.434   1_556 S
C800   C387    1.401   1_455 S
C801   C306    1.405   1_455 S
C801   C753    1.483   1_546 D
C802   C305    1.398   1_455 S
N803   C751    1.434   1_556 S
N803   C804    1.279   .     D
