data_278
_audit_creation_date              2023-09-08
_audit_creation_method            'Materials Studio'
_symmetry_space_group_name_H-M    'P1'
_symmetry_Int_Tables_number       1
_symmetry_cell_setting            triclinic
loop_
_symmetry_equiv_pos_as_xyz
  x,y,z
_cell_length_a                    26.3770
_cell_length_b                    26.3770
_cell_length_c                    24.6664
_cell_angle_alpha                 90.0000
_cell_angle_beta                  90.0000
_cell_angle_gamma                 90.0000
loop_
_atom_site_label
_atom_site_type_symbol
_atom_site_fract_x
_atom_site_fract_y
_atom_site_fract_z
_atom_site_U_iso_or_equiv
_atom_site_adp_type
_atom_site_occupancy
C1     C     0.49993   0.59398   0.47556   0.00000  Uiso   1.00
C2     C     0.49990   0.62957   0.43254   0.00000  Uiso   1.00
C3     C     0.49993   0.61195   0.37817   0.00000  Uiso   1.00
C4     C     0.49997   0.55959   0.36699   0.00000  Uiso   1.00
C5     C     0.49998   0.52593   0.41035   0.00000  Uiso   1.00
C6     C     0.49997   0.54224   0.46346   0.00000  Uiso   1.00
N7     N     0.49998   0.63378   0.28310   0.00000  Uiso   1.00
C8     C     0.49993   0.64859   0.33322   0.00000  Uiso   1.00
C9     C     0.49993   0.72082   0.24548   0.00000  Uiso   1.00
C10    C     0.49993   0.75322   0.20067   0.00000  Uiso   1.00
C11    C     0.49999   0.73368   0.14759   0.00000  Uiso   1.00
C12    C     0.50004   0.68073   0.14076   0.00000  Uiso   1.00
C13    C     0.50003   0.64831   0.18556   0.00000  Uiso   1.00
C14    C     0.49998   0.66806   0.23810   0.00000  Uiso   1.00
O15    O     0.49987   0.68221   0.44196   0.00000  Uiso   1.00
C16    C     0.49970   0.69740   0.49737   0.00000  Uiso   1.00
H17    H     0.47934   0.66754   0.52271   0.00000  Uiso   1.00
H18    H     0.47922   0.73526   0.50148   0.00000  Uiso   1.00
H19    H     0.54040   0.70156   0.51226   0.00000  Uiso   1.00
H20    H     0.49992   0.60770   0.51939   0.00000  Uiso   1.00
H21    H     0.49999   0.54573   0.32322   0.00000  Uiso   1.00
H22    H     0.49989   0.69100   0.34210   0.00000  Uiso   1.00
H23    H     0.49989   0.73721   0.28824   0.00000  Uiso   1.00
H24    H     0.49988   0.79605   0.20687   0.00000  Uiso   1.00
H25    H     0.50009   0.66376   0.09826   0.00000  Uiso   1.00
H26    H     0.50006   0.60548   0.17934   0.00000  Uiso   1.00
C27    C     0.99993   0.09398   0.97556   0.00000  Uiso   1.00
C28    C     0.99990   0.12957   0.93254   0.00000  Uiso   1.00
C29    C     0.99993   0.11195   0.87817   0.00000  Uiso   1.00
C30    C     0.99997   0.05959   0.86699   0.00000  Uiso   1.00
C31    C     0.99998   0.02593   0.91035   0.00000  Uiso   1.00
C32    C     0.99997   0.04224   0.96346   0.00000  Uiso   1.00
N33    N     0.99998   0.13378   0.78310   0.00000  Uiso   1.00
C34    C     0.99993   0.14859   0.83322   0.00000  Uiso   1.00
C35    C     0.99993   0.22082   0.74548   0.00000  Uiso   1.00
C36    C     0.99993   0.25322   0.70067   0.00000  Uiso   1.00
C37    C    -0.00001   0.23368   0.64759   0.00000  Uiso   1.00
C38    C     0.00004   0.18073   0.64076   0.00000  Uiso   1.00
C39    C     0.00003   0.14831   0.68556   0.00000  Uiso   1.00
C40    C     0.99998   0.16806   0.73810   0.00000  Uiso   1.00
O41    O     0.99987   0.18221   0.94196   0.00000  Uiso   1.00
C42    C     0.99970   0.19740   0.99737   0.00000  Uiso   1.00
H43    H     0.97934   0.16754   0.02271   0.00000  Uiso   1.00
H44    H     0.97922   0.23526   0.00148   0.00000  Uiso   1.00
H45    H     0.04040   0.20156   0.01226   0.00000  Uiso   1.00
H46    H     0.99992   0.10770   0.01939   0.00000  Uiso   1.00
H47    H    -0.00001   0.04573   0.82322   0.00000  Uiso   1.00
H48    H     0.99989   0.19100   0.84210   0.00000  Uiso   1.00
H49    H     0.99989   0.23721   0.78824   0.00000  Uiso   1.00
H50    H     0.99988   0.29605   0.70687   0.00000  Uiso   1.00
H51    H     0.00009   0.16376   0.59826   0.00000  Uiso   1.00
H52    H     0.00006   0.10548   0.67934   0.00000  Uiso   1.00
C53    C     0.00007   0.90602   0.97556   0.00000  Uiso   1.00
C54    C     0.00010   0.87043   0.93254   0.00000  Uiso   1.00
C55    C     0.00007   0.88805   0.87817   0.00000  Uiso   1.00
C56    C     0.00003   0.94041   0.86699   0.00000  Uiso   1.00
C57    C     0.00002   0.97407   0.91035   0.00000  Uiso   1.00
C58    C     0.00003   0.95776   0.96346   0.00000  Uiso   1.00
N59    N     0.00002   0.86622   0.78310   0.00000  Uiso   1.00
C60    C     0.00007   0.85141   0.83322   0.00000  Uiso   1.00
C61    C     0.00007   0.77918   0.74548   0.00000  Uiso   1.00
C62    C     0.00007   0.74678   0.70067   0.00000  Uiso   1.00
C63    C     0.00001   0.76632   0.64759   0.00000  Uiso   1.00
C64    C     0.99996   0.81927   0.64076   0.00000  Uiso   1.00
C65    C     0.99997   0.85169   0.68556   0.00000  Uiso   1.00
C66    C     0.00002   0.83194   0.73810   0.00000  Uiso   1.00
O67    O     0.00013   0.81779   0.94196   0.00000  Uiso   1.00
C68    C     0.00030   0.80260   0.99737   0.00000  Uiso   1.00
H69    H     0.02066   0.83246   0.02271   0.00000  Uiso   1.00
H70    H     0.02078   0.76474   0.00148   0.00000  Uiso   1.00
H71    H     0.95960   0.79844   0.01226   0.00000  Uiso   1.00
H72    H     0.00008   0.89230   0.01939   0.00000  Uiso   1.00
H73    H     0.00001   0.95427   0.82322   0.00000  Uiso   1.00
H74    H     0.00011   0.80900   0.84210   0.00000  Uiso   1.00
H75    H     0.00011   0.76279   0.78824   0.00000  Uiso   1.00
H76    H     0.00012   0.70395   0.70687   0.00000  Uiso   1.00
H77    H     0.99991   0.83624   0.59826   0.00000  Uiso   1.00
H78    H     0.99994   0.89452   0.67934   0.00000  Uiso   1.00
C79    C     0.50007   0.40602   0.47556   0.00000  Uiso   1.00
C80    C     0.50010   0.37043   0.43254   0.00000  Uiso   1.00
C81    C     0.50007   0.38805   0.37817   0.00000  Uiso   1.00
C82    C     0.50003   0.44041   0.36699   0.00000  Uiso   1.00
C83    C     0.50002   0.47407   0.41035   0.00000  Uiso   1.00
C84    C     0.50003   0.45776   0.46346   0.00000  Uiso   1.00
N85    N     0.50002   0.36622   0.28310   0.00000  Uiso   1.00
C86    C     0.50007   0.35141   0.33322   0.00000  Uiso   1.00
C87    C     0.50007   0.27918   0.24548   0.00000  Uiso   1.00
C88    C     0.50007   0.24678   0.20067   0.00000  Uiso   1.00
C89    C     0.50001   0.26632   0.14759   0.00000  Uiso   1.00
C90    C     0.49996   0.31927   0.14076   0.00000  Uiso   1.00
C91    C     0.49997   0.35169   0.18556   0.00000  Uiso   1.00
C92    C     0.50002   0.33194   0.23810   0.00000  Uiso   1.00
O93    O     0.50013   0.31779   0.44196   0.00000  Uiso   1.00
C94    C     0.50030   0.30260   0.49737   0.00000  Uiso   1.00
H95    H     0.52066   0.33246   0.52271   0.00000  Uiso   1.00
H96    H     0.52078   0.26474   0.50148   0.00000  Uiso   1.00
H97    H     0.45960   0.29844   0.51226   0.00000  Uiso   1.00
H98    H     0.50008   0.39230   0.51939   0.00000  Uiso   1.00
H99    H     0.50001   0.45427   0.32322   0.00000  Uiso   1.00
H100   H     0.50011   0.30900   0.34210   0.00000  Uiso   1.00
H101   H     0.50011   0.26279   0.28824   0.00000  Uiso   1.00
H102   H     0.50012   0.20395   0.20687   0.00000  Uiso   1.00
H103   H     0.49991   0.33624   0.09826   0.00000  Uiso   1.00
H104   H     0.49994   0.39452   0.17934   0.00000  Uiso   1.00
C105   C     0.40602   0.99993   0.72556   0.00000  Uiso   1.00
C106   C     0.37043   0.99990   0.68254   0.00000  Uiso   1.00
C107   C     0.38805   0.99993   0.62817   0.00000  Uiso   1.00
C108   C     0.44041   0.99997   0.61699   0.00000  Uiso   1.00
C109   C     0.47407   0.99998   0.66035   0.00000  Uiso   1.00
C110   C     0.45776   0.99997   0.71346   0.00000  Uiso   1.00
N111   N     0.36622   0.99998   0.53310   0.00000  Uiso   1.00
C112   C     0.35141   0.99993   0.58322   0.00000  Uiso   1.00
C113   C     0.27918   0.99993   0.49548   0.00000  Uiso   1.00
C114   C     0.24678   0.99993   0.45067   0.00000  Uiso   1.00
C115   C     0.26632  -0.00001   0.39759   0.00000  Uiso   1.00
C116   C     0.31927   0.00004   0.39076   0.00000  Uiso   1.00
C117   C     0.35169   0.00003   0.43556   0.00000  Uiso   1.00
C118   C     0.33194   0.99998   0.48810   0.00000  Uiso   1.00
O119   O     0.31779   0.99987   0.69196   0.00000  Uiso   1.00
C120   C     0.30260   0.99970   0.74737   0.00000  Uiso   1.00
H121   H     0.33246   0.97934   0.77271   0.00000  Uiso   1.00
H122   H     0.26474   0.97922   0.75148   0.00000  Uiso   1.00
H123   H     0.29844   0.04040   0.76226   0.00000  Uiso   1.00
H124   H     0.39230   0.99992   0.76939   0.00000  Uiso   1.00
H125   H     0.45427  -0.00001   0.57322   0.00000  Uiso   1.00
H126   H     0.30900   0.99989   0.59210   0.00000  Uiso   1.00
H127   H     0.26279   0.99989   0.53824   0.00000  Uiso   1.00
H128   H     0.20395   0.99988   0.45687   0.00000  Uiso   1.00
H129   H     0.33624   0.00009   0.34826   0.00000  Uiso   1.00
H130   H     0.39452   0.00006   0.42934   0.00000  Uiso   1.00
C131   C     0.90602   0.49993   0.22556   0.00000  Uiso   1.00
C132   C     0.87043   0.49990   0.18254   0.00000  Uiso   1.00
C133   C     0.88805   0.49993   0.12817   0.00000  Uiso   1.00
C134   C     0.94041   0.49997   0.11699   0.00000  Uiso   1.00
C135   C     0.97407   0.49998   0.16035   0.00000  Uiso   1.00
C136   C     0.95776   0.49997   0.21346   0.00000  Uiso   1.00
N137   N     0.86622   0.49998   0.03310   0.00000  Uiso   1.00
C138   C     0.85141   0.49993   0.08322   0.00000  Uiso   1.00
C139   C     0.77918   0.49993   0.99548   0.00000  Uiso   1.00
C140   C     0.74678   0.49993   0.95067   0.00000  Uiso   1.00
C141   C     0.76632   0.49999   0.89759   0.00000  Uiso   1.00
C142   C     0.81927   0.50004   0.89076   0.00000  Uiso   1.00
C143   C     0.85169   0.50003   0.93556   0.00000  Uiso   1.00
C144   C     0.83194   0.49998   0.98810   0.00000  Uiso   1.00
O145   O     0.81779   0.49987   0.19196   0.00000  Uiso   1.00
C146   C     0.80260   0.49970   0.24737   0.00000  Uiso   1.00
H147   H     0.83246   0.47934   0.27271   0.00000  Uiso   1.00
H148   H     0.76474   0.47922   0.25148   0.00000  Uiso   1.00
H149   H     0.79844   0.54040   0.26226   0.00000  Uiso   1.00
H150   H     0.89230   0.49992   0.26939   0.00000  Uiso   1.00
H151   H     0.95427   0.49999   0.07322   0.00000  Uiso   1.00
H152   H     0.80900   0.49989   0.09210   0.00000  Uiso   1.00
H153   H     0.76279   0.49989   0.03824   0.00000  Uiso   1.00
H154   H     0.70395   0.49988   0.95687   0.00000  Uiso   1.00
H155   H     0.83624   0.50009   0.84826   0.00000  Uiso   1.00
H156   H     0.89452   0.50006   0.92934   0.00000  Uiso   1.00
C157   C     0.09398   0.50007   0.22556   0.00000  Uiso   1.00
C158   C     0.12957   0.50010   0.18254   0.00000  Uiso   1.00
C159   C     0.11195   0.50007   0.12817   0.00000  Uiso   1.00
C160   C     0.05959   0.50003   0.11699   0.00000  Uiso   1.00
C161   C     0.02593   0.50002   0.16035   0.00000  Uiso   1.00
C162   C     0.04224   0.50003   0.21346   0.00000  Uiso   1.00
N163   N     0.13378   0.50002   0.03310   0.00000  Uiso   1.00
C164   C     0.14859   0.50007   0.08322   0.00000  Uiso   1.00
C165   C     0.22082   0.50007   0.99548   0.00000  Uiso   1.00
C166   C     0.25322   0.50007   0.95067   0.00000  Uiso   1.00
C167   C     0.23368   0.50001   0.89759   0.00000  Uiso   1.00
C168   C     0.18073   0.49996   0.89076   0.00000  Uiso   1.00
C169   C     0.14831   0.49997   0.93556   0.00000  Uiso   1.00
C170   C     0.16806   0.50002   0.98810   0.00000  Uiso   1.00
O171   O     0.18221   0.50013   0.19196   0.00000  Uiso   1.00
C172   C     0.19740   0.50030   0.24737   0.00000  Uiso   1.00
H173   H     0.16754   0.52066   0.27271   0.00000  Uiso   1.00
H174   H     0.23526   0.52078   0.25148   0.00000  Uiso   1.00
H175   H     0.20156   0.45960   0.26226   0.00000  Uiso   1.00
H176   H     0.10770   0.50008   0.26939   0.00000  Uiso   1.00
H177   H     0.04573   0.50001   0.07322   0.00000  Uiso   1.00
H178   H     0.19100   0.50011   0.09210   0.00000  Uiso   1.00
H179   H     0.23721   0.50011   0.03824   0.00000  Uiso   1.00
H180   H     0.29605   0.50012   0.95687   0.00000  Uiso   1.00
H181   H     0.16376   0.49991   0.84826   0.00000  Uiso   1.00
H182   H     0.10548   0.49994   0.92934   0.00000  Uiso   1.00
C183   C     0.59398   0.00007   0.72556   0.00000  Uiso   1.00
C184   C     0.62957   0.00010   0.68254   0.00000  Uiso   1.00
C185   C     0.61195   0.00007   0.62817   0.00000  Uiso   1.00
C186   C     0.55959   0.00003   0.61699   0.00000  Uiso   1.00
C187   C     0.52593   0.00002   0.66035   0.00000  Uiso   1.00
C188   C     0.54224   0.00003   0.71346   0.00000  Uiso   1.00
N189   N     0.63378   0.00002   0.53310   0.00000  Uiso   1.00
C190   C     0.64859   0.00007   0.58322   0.00000  Uiso   1.00
C191   C     0.72082   0.00007   0.49548   0.00000  Uiso   1.00
C192   C     0.75322   0.00007   0.45067   0.00000  Uiso   1.00
C193   C     0.73368   0.00001   0.39759   0.00000  Uiso   1.00
C194   C     0.68073   0.99996   0.39076   0.00000  Uiso   1.00
C195   C     0.64831   0.99997   0.43556   0.00000  Uiso   1.00
C196   C     0.66806   0.00002   0.48810   0.00000  Uiso   1.00
O197   O     0.68221   0.00013   0.69196   0.00000  Uiso   1.00
C198   C     0.69740   0.00030   0.74737   0.00000  Uiso   1.00
H199   H     0.66754   0.02066   0.77271   0.00000  Uiso   1.00
H200   H     0.73526   0.02078   0.75148   0.00000  Uiso   1.00
H201   H     0.70156   0.95960   0.76226   0.00000  Uiso   1.00
H202   H     0.60770   0.00008   0.76939   0.00000  Uiso   1.00
H203   H     0.54573   0.00001   0.57322   0.00000  Uiso   1.00
H204   H     0.69100   0.00011   0.59210   0.00000  Uiso   1.00
H205   H     0.73721   0.00011   0.53824   0.00000  Uiso   1.00
H206   H     0.79605   0.00012   0.45687   0.00000  Uiso   1.00
H207   H     0.66376   0.99991   0.34826   0.00000  Uiso   1.00
H208   H     0.60548   0.99994   0.42934   0.00000  Uiso   1.00
C209   C     0.50007   0.90602   0.77444   0.00000  Uiso   1.00
C210   C     0.50010   0.87043   0.81746   0.00000  Uiso   1.00
C211   C     0.50007   0.88805   0.87183   0.00000  Uiso   1.00
C212   C     0.50003   0.94041   0.88301   0.00000  Uiso   1.00
C213   C     0.50002   0.97407   0.83965   0.00000  Uiso   1.00
C214   C     0.50003   0.95776   0.78654   0.00000  Uiso   1.00
N215   N     0.50002   0.86622   0.96690   0.00000  Uiso   1.00
C216   C     0.50007   0.85141   0.91678   0.00000  Uiso   1.00
C217   C     0.50007   0.77918   0.00452   0.00000  Uiso   1.00
C218   C     0.50007   0.74678   0.04933   0.00000  Uiso   1.00
C219   C     0.50001   0.76632   0.10241   0.00000  Uiso   1.00
C220   C     0.49996   0.81927   0.10924   0.00000  Uiso   1.00
C221   C     0.49997   0.85169   0.06444   0.00000  Uiso   1.00
C222   C     0.50002   0.83194   0.01190   0.00000  Uiso   1.00
O223   O     0.50013   0.81779   0.80804   0.00000  Uiso   1.00
C224   C     0.50030   0.80260   0.75263   0.00000  Uiso   1.00
H225   H     0.52066   0.83246   0.72729   0.00000  Uiso   1.00
H226   H     0.52078   0.76474   0.74852   0.00000  Uiso   1.00
H227   H     0.45960   0.79844   0.73774   0.00000  Uiso   1.00
H228   H     0.50008   0.89230   0.73061   0.00000  Uiso   1.00
H229   H     0.50001   0.95427   0.92678   0.00000  Uiso   1.00
H230   H     0.50011   0.80900   0.90790   0.00000  Uiso   1.00
H231   H     0.50011   0.76279   0.96176   0.00000  Uiso   1.00
H232   H     0.50012   0.70395   0.04313   0.00000  Uiso   1.00
H233   H     0.49991   0.83624   0.15174   0.00000  Uiso   1.00
H234   H     0.49994   0.89452   0.07066   0.00000  Uiso   1.00
C235   C     0.00007   0.40602   0.27444   0.00000  Uiso   1.00
C236   C     0.00010   0.37043   0.31746   0.00000  Uiso   1.00
C237   C     0.00007   0.38805   0.37183   0.00000  Uiso   1.00
C238   C     0.00003   0.44041   0.38301   0.00000  Uiso   1.00
C239   C     0.00002   0.47407   0.33965   0.00000  Uiso   1.00
C240   C     0.00003   0.45776   0.28654   0.00000  Uiso   1.00
N241   N     0.00002   0.36622   0.46690   0.00000  Uiso   1.00
C242   C     0.00007   0.35141   0.41678   0.00000  Uiso   1.00
C243   C     0.00007   0.27918   0.50452   0.00000  Uiso   1.00
C244   C     0.00007   0.24678   0.54933   0.00000  Uiso   1.00
C245   C     0.00001   0.26632   0.60241   0.00000  Uiso   1.00
C246   C     0.99996   0.31927   0.60924   0.00000  Uiso   1.00
C247   C     0.99997   0.35169   0.56444   0.00000  Uiso   1.00
C248   C     0.00002   0.33194   0.51190   0.00000  Uiso   1.00
O249   O     0.00013   0.31779   0.30804   0.00000  Uiso   1.00
C250   C     0.00030   0.30260   0.25263   0.00000  Uiso   1.00
H251   H     0.02066   0.33246   0.22729   0.00000  Uiso   1.00
H252   H     0.02078   0.26474   0.24852   0.00000  Uiso   1.00
H253   H     0.95960   0.29844   0.23774   0.00000  Uiso   1.00
H254   H     0.00008   0.39230   0.23061   0.00000  Uiso   1.00
H255   H     0.00001   0.45427   0.42678   0.00000  Uiso   1.00
H256   H     0.00011   0.30900   0.40790   0.00000  Uiso   1.00
H257   H     0.00011   0.26279   0.46176   0.00000  Uiso   1.00
H258   H     0.00012   0.20395   0.54313   0.00000  Uiso   1.00
H259   H     0.99991   0.33624   0.65174   0.00000  Uiso   1.00
H260   H     0.99994   0.39452   0.57066   0.00000  Uiso   1.00
C261   C     0.99993   0.59398   0.27444   0.00000  Uiso   1.00
C262   C     0.99990   0.62957   0.31746   0.00000  Uiso   1.00
C263   C     0.99993   0.61195   0.37183   0.00000  Uiso   1.00
C264   C     0.99997   0.55959   0.38301   0.00000  Uiso   1.00
C265   C     0.99998   0.52593   0.33965   0.00000  Uiso   1.00
C266   C     0.99997   0.54224   0.28654   0.00000  Uiso   1.00
N267   N     0.99998   0.63378   0.46690   0.00000  Uiso   1.00
C268   C     0.99993   0.64859   0.41678   0.00000  Uiso   1.00
C269   C     0.99993   0.72082   0.50452   0.00000  Uiso   1.00
C270   C     0.99993   0.75322   0.54933   0.00000  Uiso   1.00
C271   C    -0.00001   0.73368   0.60241   0.00000  Uiso   1.00
C272   C     0.00004   0.68073   0.60924   0.00000  Uiso   1.00
C273   C     0.00003   0.64831   0.56444   0.00000  Uiso   1.00
C274   C     0.99998   0.66806   0.51190   0.00000  Uiso   1.00
O275   O     0.99987   0.68221   0.30804   0.00000  Uiso   1.00
C276   C     0.99970   0.69740   0.25263   0.00000  Uiso   1.00
H277   H     0.97934   0.66754   0.22729   0.00000  Uiso   1.00
H278   H     0.97922   0.73526   0.24852   0.00000  Uiso   1.00
H279   H     0.04040   0.70156   0.23774   0.00000  Uiso   1.00
H280   H     0.99992   0.60770   0.23061   0.00000  Uiso   1.00
H281   H    -0.00001   0.54573   0.42678   0.00000  Uiso   1.00
H282   H     0.99989   0.69100   0.40790   0.00000  Uiso   1.00
H283   H     0.99989   0.73721   0.46176   0.00000  Uiso   1.00
H284   H     0.99988   0.79605   0.54313   0.00000  Uiso   1.00
H285   H     0.00009   0.66376   0.65174   0.00000  Uiso   1.00
H286   H     0.00006   0.60548   0.57066   0.00000  Uiso   1.00
C287   C     0.49993   0.09398   0.77444   0.00000  Uiso   1.00
C288   C     0.49990   0.12957   0.81746   0.00000  Uiso   1.00
C289   C     0.49993   0.11195   0.87183   0.00000  Uiso   1.00
C290   C     0.49997   0.05959   0.88301   0.00000  Uiso   1.00
C291   C     0.49998   0.02593   0.83965   0.00000  Uiso   1.00
C292   C     0.49997   0.04224   0.78654   0.00000  Uiso   1.00
N293   N     0.49998   0.13378   0.96690   0.00000  Uiso   1.00
C294   C     0.49993   0.14859   0.91678   0.00000  Uiso   1.00
C295   C     0.49993   0.22082   0.00452   0.00000  Uiso   1.00
C296   C     0.49993   0.25322   0.04933   0.00000  Uiso   1.00
C297   C     0.49999   0.23368   0.10241   0.00000  Uiso   1.00
C298   C     0.50004   0.18073   0.10924   0.00000  Uiso   1.00
C299   C     0.50003   0.14831   0.06444   0.00000  Uiso   1.00
C300   C     0.49998   0.16806   0.01190   0.00000  Uiso   1.00
O301   O     0.49987   0.18221   0.80804   0.00000  Uiso   1.00
C302   C     0.49970   0.19740   0.75263   0.00000  Uiso   1.00
H303   H     0.47934   0.16754   0.72729   0.00000  Uiso   1.00
H304   H     0.47922   0.23526   0.74852   0.00000  Uiso   1.00
H305   H     0.54040   0.20156   0.73774   0.00000  Uiso   1.00
H306   H     0.49992   0.10770   0.73061   0.00000  Uiso   1.00
H307   H     0.49999   0.04573   0.92678   0.00000  Uiso   1.00
H308   H     0.49989   0.19100   0.90790   0.00000  Uiso   1.00
H309   H     0.49989   0.23721   0.96176   0.00000  Uiso   1.00
H310   H     0.49988   0.29605   0.04313   0.00000  Uiso   1.00
H311   H     0.50009   0.16376   0.15174   0.00000  Uiso   1.00
H312   H     0.50006   0.10548   0.07066   0.00000  Uiso   1.00
C313   C     0.59398   0.50007   0.52444   0.00000  Uiso   1.00
C314   C     0.62957   0.50010   0.56746   0.00000  Uiso   1.00
C315   C     0.61195   0.50007   0.62183   0.00000  Uiso   1.00
C316   C     0.55959   0.50003   0.63301   0.00000  Uiso   1.00
C317   C     0.52593   0.50002   0.58965   0.00000  Uiso   1.00
C318   C     0.54224   0.50003   0.53654   0.00000  Uiso   1.00
N319   N     0.63378   0.50002   0.71690   0.00000  Uiso   1.00
C320   C     0.64859   0.50007   0.66678   0.00000  Uiso   1.00
C321   C     0.72082   0.50007   0.75452   0.00000  Uiso   1.00
C322   C     0.75322   0.50007   0.79933   0.00000  Uiso   1.00
C323   C     0.73368   0.50001   0.85241   0.00000  Uiso   1.00
C324   C     0.68073   0.49996   0.85924   0.00000  Uiso   1.00
C325   C     0.64831   0.49997   0.81444   0.00000  Uiso   1.00
C326   C     0.66806   0.50002   0.76190   0.00000  Uiso   1.00
O327   O     0.68221   0.50013   0.55804   0.00000  Uiso   1.00
C328   C     0.69740   0.50030   0.50263   0.00000  Uiso   1.00
H329   H     0.66754   0.52066   0.47729   0.00000  Uiso   1.00
H330   H     0.73526   0.52078   0.49852   0.00000  Uiso   1.00
H331   H     0.70156   0.45960   0.48774   0.00000  Uiso   1.00
H332   H     0.60770   0.50008   0.48061   0.00000  Uiso   1.00
H333   H     0.54573   0.50001   0.67678   0.00000  Uiso   1.00
H334   H     0.69100   0.50011   0.65790   0.00000  Uiso   1.00
H335   H     0.73721   0.50011   0.71176   0.00000  Uiso   1.00
H336   H     0.79605   0.50012   0.79313   0.00000  Uiso   1.00
H337   H     0.66376   0.49991   0.90174   0.00000  Uiso   1.00
H338   H     0.60548   0.49994   0.82066   0.00000  Uiso   1.00
C339   C     0.09398   0.00007   0.02444   0.00000  Uiso   1.00
C340   C     0.12957   0.00010   0.06746   0.00000  Uiso   1.00
C341   C     0.11195   0.00007   0.12183   0.00000  Uiso   1.00
C342   C     0.05959   0.00003   0.13301   0.00000  Uiso   1.00
C343   C     0.02593   0.00002   0.08965   0.00000  Uiso   1.00
C344   C     0.04224   0.00003   0.03654   0.00000  Uiso   1.00
N345   N     0.13378   0.00002   0.21690   0.00000  Uiso   1.00
C346   C     0.14859   0.00007   0.16678   0.00000  Uiso   1.00
C347   C     0.22082   0.00007   0.25452   0.00000  Uiso   1.00
C348   C     0.25322   0.00007   0.29933   0.00000  Uiso   1.00
C349   C     0.23368   0.00001   0.35241   0.00000  Uiso   1.00
C350   C     0.18073   0.99996   0.35924   0.00000  Uiso   1.00
C351   C     0.14831   0.99997   0.31444   0.00000  Uiso   1.00
C352   C     0.16806   0.00002   0.26190   0.00000  Uiso   1.00
O353   O     0.18221   0.00013   0.05804   0.00000  Uiso   1.00
C354   C     0.19740   0.00030   0.00263   0.00000  Uiso   1.00
H355   H     0.16754   0.02066   0.97729   0.00000  Uiso   1.00
H356   H     0.23526   0.02078   0.99852   0.00000  Uiso   1.00
H357   H     0.20156   0.95960   0.98774   0.00000  Uiso   1.00
H358   H     0.10770   0.00008   0.98061   0.00000  Uiso   1.00
H359   H     0.04573   0.00001   0.17678   0.00000  Uiso   1.00
H360   H     0.19100   0.00011   0.15790   0.00000  Uiso   1.00
H361   H     0.23721   0.00011   0.21176   0.00000  Uiso   1.00
H362   H     0.29605   0.00012   0.29313   0.00000  Uiso   1.00
H363   H     0.16376   0.99991   0.40174   0.00000  Uiso   1.00
H364   H     0.10548   0.99994   0.32066   0.00000  Uiso   1.00
C365   C     0.90602   0.99993   0.02444   0.00000  Uiso   1.00
C366   C     0.87043   0.99990   0.06746   0.00000  Uiso   1.00
C367   C     0.88805   0.99993   0.12183   0.00000  Uiso   1.00
C368   C     0.94041   0.99997   0.13301   0.00000  Uiso   1.00
C369   C     0.97407   0.99998   0.08965   0.00000  Uiso   1.00
C370   C     0.95776   0.99997   0.03654   0.00000  Uiso   1.00
N371   N     0.86622   0.99998   0.21690   0.00000  Uiso   1.00
C372   C     0.85141   0.99993   0.16678   0.00000  Uiso   1.00
C373   C     0.77918   0.99993   0.25452   0.00000  Uiso   1.00
C374   C     0.74678   0.99993   0.29933   0.00000  Uiso   1.00
C375   C     0.76632  -0.00001   0.35241   0.00000  Uiso   1.00
C376   C     0.81927   0.00004   0.35924   0.00000  Uiso   1.00
C377   C     0.85169   0.00003   0.31444   0.00000  Uiso   1.00
C378   C     0.83194   0.99998   0.26190   0.00000  Uiso   1.00
O379   O     0.81779   0.99987   0.05804   0.00000  Uiso   1.00
C380   C     0.80260   0.99970   0.00263   0.00000  Uiso   1.00
H381   H     0.83246   0.97934   0.97729   0.00000  Uiso   1.00
H382   H     0.76474   0.97922   0.99852   0.00000  Uiso   1.00
H383   H     0.79844   0.04040   0.98774   0.00000  Uiso   1.00
H384   H     0.89230   0.99992   0.98061   0.00000  Uiso   1.00
H385   H     0.95427  -0.00001   0.17678   0.00000  Uiso   1.00
H386   H     0.80900   0.99989   0.15790   0.00000  Uiso   1.00
H387   H     0.76279   0.99989   0.21176   0.00000  Uiso   1.00
H388   H     0.70395   0.99988   0.29313   0.00000  Uiso   1.00
H389   H     0.83624   0.00009   0.40174   0.00000  Uiso   1.00
H390   H     0.89452   0.00006   0.32066   0.00000  Uiso   1.00
C391   C     0.40602   0.49993   0.52444   0.00000  Uiso   1.00
C392   C     0.37043   0.49990   0.56746   0.00000  Uiso   1.00
C393   C     0.38805   0.49993   0.62183   0.00000  Uiso   1.00
C394   C     0.44041   0.49997   0.63301   0.00000  Uiso   1.00
C395   C     0.47407   0.49998   0.58965   0.00000  Uiso   1.00
C396   C     0.45776   0.49997   0.53654   0.00000  Uiso   1.00
N397   N     0.36622   0.49998   0.71690   0.00000  Uiso   1.00
C398   C     0.35141   0.49993   0.66678   0.00000  Uiso   1.00
C399   C     0.27918   0.49993   0.75452   0.00000  Uiso   1.00
C400   C     0.24678   0.49993   0.79933   0.00000  Uiso   1.00
C401   C     0.26632   0.49999   0.85241   0.00000  Uiso   1.00
C402   C     0.31927   0.50004   0.85924   0.00000  Uiso   1.00
C403   C     0.35169   0.50003   0.81444   0.00000  Uiso   1.00
C404   C     0.33194   0.49998   0.76190   0.00000  Uiso   1.00
O405   O     0.31779   0.49987   0.55804   0.00000  Uiso   1.00
C406   C     0.30260   0.49970   0.50263   0.00000  Uiso   1.00
H407   H     0.33246   0.47934   0.47729   0.00000  Uiso   1.00
H408   H     0.26474   0.47922   0.49852   0.00000  Uiso   1.00
H409   H     0.29844   0.54040   0.48774   0.00000  Uiso   1.00
H410   H     0.39230   0.49992   0.48061   0.00000  Uiso   1.00
H411   H     0.45427   0.49999   0.67678   0.00000  Uiso   1.00
H412   H     0.30900   0.49989   0.65790   0.00000  Uiso   1.00
H413   H     0.26279   0.49989   0.71176   0.00000  Uiso   1.00
H414   H     0.20395   0.49988   0.79313   0.00000  Uiso   1.00
H415   H     0.33624   0.50009   0.90174   0.00000  Uiso   1.00
H416   H     0.39452   0.50006   0.82066   0.00000  Uiso   1.00
C417   C     0.50000   0.50000   0.50000   0.00000  Uiso   1.00
C418   C     0.00000   0.00000   0.00000   0.00000  Uiso   1.00
C419   C     0.50000   0.00000   0.75000   0.00000  Uiso   1.00
C420   C     0.00000   0.50000   0.25000   0.00000  Uiso   1.00
loop_
_geom_bond_atom_site_label_1
_geom_bond_atom_site_label_2
_geom_bond_distance
_geom_bond_site_symmetry_2
_ccdc_geom_bond_type
C1     C2      1.417   .     S
C1     C6      1.397   .     D
C1     H20     1.140   .     S
C2     C3      1.419   .     D
C2     O15     1.408   .     S
C3     C4      1.408   .     S
C3     C8      1.471   .     S
C4     C5      1.390   .     D
C4     H21     1.140   .     S
C5     C6      1.379   .     S
C5     C83     1.368   .     S
C6     C417    1.433   .     S
N7     C8      1.297   .     D
N7     C14     1.432   .     S
C8     H22     1.140   .     S
C9     C10     1.397   .     S
C9     C14     1.404   .     D
C9     H23     1.140   .     S
C10    C11     1.407   .     D
C10    H24     1.140   .     S
C11    C12     1.407   .     S
C11    C219    1.408   .     S
C12    C13     1.397   .     D
C12    H25     1.140   .     S
C13    C14     1.397   .     S
C13    H26     1.140   .     S
O15    C16     1.424   .     S
C16    H17     1.140   .     S
C16    H18     1.140   .     S
C16    H19     1.140   .     S
C27    C28     1.417   .     S
C27    C32     1.397   .     D
C27    H46     1.140   1_556 S
C28    C29     1.419   .     D
C28    O41     1.408   .     S
C29    C30     1.408   .     S
C29    C34     1.471   .     S
C30    C31     1.390   .     D
C30    H47     1.140   1_655 S
C31    C32     1.379   .     S
C31    C57     1.368   1_645 S
C32    C418    1.433   1_656 S
N33    C34     1.297   .     D
N33    C40     1.432   .     S
C34    H48     1.140   .     S
C35    C36     1.397   .     S
C35    C40     1.404   .     D
C35    H49     1.140   .     S
C36    C37     1.407   1_655 D
C36    H50     1.140   .     S
C37    C36     1.407   1_455 D
C37    C38     1.407   .     S
C37    C245    1.408   .     S
C38    C39     1.397   .     D
C38    H51     1.140   .     S
C39    C40     1.397   1_455 S
C39    H52     1.140   .     S
C40    C39     1.397   1_655 S
O41    C42     1.424   .     S
C42    H43     1.140   1_556 S
C42    H44     1.140   1_556 S
C42    H45     1.140   1_656 S
H43    C42     1.140   1_554 S
H44    C42     1.140   1_554 S
H45    C42     1.140   1_454 S
H46    C27     1.140   1_554 S
H47    C30     1.140   1_455 S
C53    C54     1.417   .     S
C53    C58     1.397   .     D
C53    H72     1.140   1_556 S
C54    C55     1.419   .     D
C54    O67     1.408   .     S
C55    C56     1.408   .     S
C55    C60     1.471   .     S
C56    C57     1.390   .     D
C56    H73     1.140   .     S
C57    C31     1.368   1_465 S
C57    C58     1.379   .     S
C58    C418    1.433   1_566 S
N59    C60     1.297   .     D
N59    C66     1.432   .     S
C60    H74     1.140   .     S
C61    C62     1.397   .     S
C61    C66     1.404   .     D
C61    H75     1.140   .     S
C62    C63     1.407   .     D
C62    H76     1.140   .     S
C63    C64     1.407   1_455 S
C63    C271    1.408   .     S
C64    C63     1.407   1_655 S
C64    C65     1.397   .     D
C64    H77     1.140   .     S
C65    C66     1.397   1_655 S
C65    H78     1.140   .     S
C66    C65     1.397   1_455 S
O67    C68     1.424   .     S
C68    H69     1.140   1_556 S
C68    H70     1.140   1_556 S
C68    H71     1.140   1_456 S
H69    C68     1.140   1_554 S
H70    C68     1.140   1_554 S
H71    C68     1.140   1_654 S
H72    C53     1.140   1_554 S
C79    C80     1.417   .     S
C79    C84     1.397   .     D
C79    H98     1.140   .     S
C80    C81     1.419   .     D
C80    O93     1.408   .     S
C81    C82     1.408   .     S
C81    C86     1.471   .     S
C82    C83     1.390   .     D
C82    H99     1.140   .     S
C83    C84     1.379   .     S
C84    C417    1.433   .     S
N85    C86     1.297   .     D
N85    C92     1.432   .     S
C86    H100    1.140   .     S
C87    C88     1.397   .     S
C87    C92     1.404   .     D
C87    H101    1.140   .     S
C88    C89     1.407   .     D
C88    H102    1.140   .     S
C89    C90     1.407   .     S
C89    C297    1.408   .     S
C90    C91     1.397   .     D
C90    H103    1.140   .     S
C91    C92     1.397   .     S
C91    H104    1.140   .     S
O93    C94     1.424   .     S
C94    H95     1.140   .     S
C94    H96     1.140   .     S
C94    H97     1.140   .     S
C105   C106    1.417   .     S
C105   C110    1.397   .     D
C105   H124    1.140   .     S
C106   C107    1.419   .     D
C106   O119    1.408   .     S
C107   C108    1.408   .     S
C107   C112    1.471   .     S
C108   C109    1.390   .     D
C108   H125    1.140   1_565 S
C109   C110    1.379   .     S
C109   C187    1.368   1_565 S
C110   C419    1.433   1_565 S
N111   C112    1.297   .     D
N111   C118    1.432   .     S
C112   H126    1.140   .     S
C113   C114    1.397   .     S
C113   C118    1.404   .     D
C113   H127    1.140   .     S
C114   C115    1.407   1_565 D
C114   H128    1.140   .     S
C115   C114    1.407   1_545 D
C115   C116    1.407   .     S
C115   C349    1.408   .     S
C116   C117    1.397   .     D
C116   H129    1.140   .     S
C117   C118    1.397   1_545 S
C117   H130    1.140   .     S
C118   C117    1.397   1_565 S
O119   C120    1.424   .     S
C120   H121    1.140   .     S
C120   H122    1.140   .     S
C120   H123    1.140   1_565 S
H123   C120    1.140   1_545 S
H125   C108    1.140   1_545 S
C131   C132    1.417   .     S
C131   C136    1.397   .     D
C131   H150    1.140   .     S
C132   C133    1.419   .     D
C132   O145    1.408   .     S
C133   C134    1.408   .     S
C133   C138    1.471   .     S
C134   C135    1.390   .     D
C134   H151    1.140   .     S
C135   C136    1.379   .     S
C135   C161    1.368   1_655 S
C136   C420    1.433   1_655 S
N137   C138    1.297   .     D
N137   C144    1.432   1_554 S
C138   H152    1.140   .     S
C139   C140    1.397   .     S
C139   C144    1.404   .     D
C139   H153    1.140   1_556 S
C140   C141    1.407   .     D
C140   H154    1.140   .     S
C141   C142    1.407   .     S
C141   C323    1.408   .     S
C142   C143    1.397   .     D
C142   H155    1.140   .     S
C143   C144    1.397   .     S
C143   H156    1.140   .     S
C144   N137    1.432   1_556 S
O145   C146    1.424   .     S
C146   H147    1.140   .     S
C146   H148    1.140   .     S
C146   H149    1.140   .     S
H153   C139    1.140   1_554 S
C157   C158    1.417   .     S
C157   C162    1.397   .     D
C157   H176    1.140   .     S
C158   C159    1.419   .     D
C158   O171    1.408   .     S
C159   C160    1.408   .     S
C159   C164    1.471   .     S
C160   C161    1.390   .     D
C160   H177    1.140   .     S
C161   C135    1.368   1_455 S
C161   C162    1.379   .     S
C162   C420    1.433   .     S
N163   C164    1.297   .     D
N163   C170    1.432   1_554 S
C164   H178    1.140   .     S
C165   C166    1.397   .     S
C165   C170    1.404   .     D
C165   H179    1.140   1_556 S
C166   C167    1.407   .     D
C166   H180    1.140   .     S
C167   C168    1.407   .     S
C167   C401    1.408   .     S
C168   C169    1.397   .     D
C168   H181    1.140   .     S
C169   C170    1.397   .     S
C169   H182    1.140   .     S
C170   N163    1.432   1_556 S
O171   C172    1.424   .     S
C172   H173    1.140   .     S
C172   H174    1.140   .     S
C172   H175    1.140   .     S
H179   C165    1.140   1_554 S
C183   C184    1.417   .     S
C183   C188    1.397   .     D
C183   H202    1.140   .     S
C184   C185    1.419   .     D
C184   O197    1.408   .     S
C185   C186    1.408   .     S
C185   C190    1.471   .     S
C186   C187    1.390   .     D
C186   H203    1.140   .     S
C187   C109    1.368   1_545 S
C187   C188    1.379   .     S
C188   C419    1.433   .     S
N189   C190    1.297   .     D
N189   C196    1.432   .     S
C190   H204    1.140   .     S
C191   C192    1.397   .     S
C191   C196    1.404   .     D
C191   H205    1.140   .     S
C192   C193    1.407   .     D
C192   H206    1.140   .     S
C193   C194    1.407   1_545 S
C193   C375    1.408   .     S
C194   C193    1.407   1_565 S
C194   C195    1.397   .     D
C194   H207    1.140   .     S
C195   C196    1.397   1_565 S
C195   H208    1.140   .     S
C196   C195    1.397   1_545 S
O197   C198    1.424   .     S
C198   H199    1.140   .     S
C198   H200    1.140   .     S
C198   H201    1.140   1_545 S
H201   C198    1.140   1_565 S
C209   C210    1.417   .     S
C209   C214    1.397   .     D
C209   H228    1.140   .     S
C210   C211    1.419   .     D
C210   O223    1.408   .     S
C211   C212    1.408   .     S
C211   C216    1.471   .     S
C212   C213    1.390   .     D
C212   H229    1.140   .     S
C213   C214    1.379   .     S
C213   C291    1.368   1_565 S
C214   C419    1.433   1_565 S
N215   C216    1.297   .     D
N215   C222    1.432   1_556 S
C216   H230    1.140   .     S
C217   C218    1.397   .     D
C217   C222    1.404   .     S
C217   H231    1.140   1_554 S
C218   C219    1.407   .     S
C218   H232    1.140   .     S
C219   C220    1.407   .     D
C220   C221    1.397   .     S
C220   H233    1.140   .     S
C221   C222    1.397   .     D
C221   H234    1.140   .     S
C222   N215    1.432   1_554 S
O223   C224    1.424   .     S
C224   H225    1.140   .     S
C224   H226    1.140   .     S
C224   H227    1.140   .     S
H231   C217    1.140   1_556 S
C235   C236    1.417   .     S
C235   C240    1.397   .     D
C235   H254    1.140   .     S
C236   C237    1.419   .     D
C236   O249    1.408   .     S
C237   C238    1.408   .     S
C237   C242    1.471   .     S
C238   C239    1.390   .     D
C238   H255    1.140   .     S
C239   C240    1.379   .     S
C239   C265    1.368   1_455 S
C240   C420    1.433   .     S
N241   C242    1.297   .     D
N241   C248    1.432   .     S
C242   H256    1.140   .     S
C243   C244    1.397   .     S
C243   C248    1.404   .     D
C243   H257    1.140   .     S
C244   C245    1.407   .     D
C244   H258    1.140   .     S
C245   C246    1.407   1_455 S
C246   C245    1.407   1_655 S
C246   C247    1.397   .     D
C246   H259    1.140   .     S
C247   C248    1.397   1_655 S
C247   H260    1.140   .     S
C248   C247    1.397   1_455 S
O249   C250    1.424   .     S
C250   H251    1.140   .     S
C250   H252    1.140   .     S
C250   H253    1.140   1_455 S
H253   C250    1.140   1_655 S
C261   C262    1.417   .     S
C261   C266    1.397   .     D
C261   H280    1.140   .     S
C262   C263    1.419   .     D
C262   O275    1.408   .     S
C263   C264    1.408   .     S
C263   C268    1.471   .     S
C264   C265    1.390   .     D
C264   H281    1.140   1_655 S
C265   C239    1.368   1_655 S
C265   C266    1.379   .     S
C266   C420    1.433   1_655 S
N267   C268    1.297   .     D
N267   C274    1.432   .     S
C268   H282    1.140   .     S
C269   C270    1.397   .     S
C269   C274    1.404   .     D
C269   H283    1.140   .     S
C270   C271    1.407   1_655 D
C270   H284    1.140   .     S
C271   C270    1.407   1_455 D
C271   C272    1.407   .     S
C272   C273    1.397   .     D
C272   H285    1.140   .     S
C273   C274    1.397   1_455 S
C273   H286    1.140   .     S
C274   C273    1.397   1_655 S
O275   C276    1.424   .     S
C276   H277    1.140   .     S
C276   H278    1.140   .     S
C276   H279    1.140   1_655 S
H279   C276    1.140   1_455 S
H281   C264    1.140   1_455 S
C287   C288    1.417   .     D
C287   C292    1.397   .     S
C287   H306    1.140   .     S
C288   C289    1.419   .     S
C288   O301    1.408   .     S
C289   C290    1.408   .     D
C289   C294    1.471   .     S
C290   C291    1.390   .     S
C290   H307    1.140   .     S
C291   C213    1.368   1_545 S
C291   C292    1.379   .     D
C292   C419    1.433   .     S
N293   C294    1.297   .     D
N293   C300    1.432   1_556 S
C294   H308    1.140   .     S
C295   C296    1.397   .     D
C295   C300    1.404   .     S
C295   H309    1.140   1_554 S
C296   C297    1.407   .     S
C296   H310    1.140   .     S
C297   C298    1.407   .     D
C298   C299    1.397   .     S
C298   H311    1.140   .     S
C299   C300    1.397   .     D
C299   H312    1.140   .     S
C300   N293    1.432   1_554 S
O301   C302    1.424   .     S
C302   H303    1.140   .     S
C302   H304    1.140   .     S
C302   H305    1.140   .     S
H309   C295    1.140   1_556 S
C313   C314    1.417   .     S
C313   C318    1.397   .     D
C313   H332    1.140   .     S
C314   C315    1.419   .     D
C314   O327    1.408   .     S
C315   C316    1.408   .     S
C315   C320    1.471   .     S
C316   C317    1.390   .     D
C316   H333    1.140   .     S
C317   C318    1.379   .     S
C317   C395    1.368   .     S
C318   C417    1.433   .     S
N319   C320    1.297   .     D
N319   C326    1.432   .     S
C320   H334    1.140   .     S
C321   C322    1.397   .     S
C321   C326    1.404   .     D
C321   H335    1.140   .     S
C322   C323    1.407   .     D
C322   H336    1.140   .     S
C323   C324    1.407   .     S
C324   C325    1.397   .     D
C324   H337    1.140   .     S
C325   C326    1.397   .     S
C325   H338    1.140   .     S
O327   C328    1.424   .     S
C328   H329    1.140   .     S
C328   H330    1.140   .     S
C328   H331    1.140   .     S
C339   C340    1.417   .     S
C339   C344    1.397   .     D
C339   H358    1.140   1_554 S
C340   C341    1.419   .     D
C340   O353    1.408   .     S
C341   C342    1.408   .     S
C341   C346    1.471   .     S
C342   C343    1.390   .     D
C342   H359    1.140   .     S
C343   C344    1.379   .     S
C343   C369    1.368   1_445 S
C344   C418    1.433   .     S
N345   C346    1.297   .     D
N345   C352    1.432   .     S
C346   H360    1.140   .     S
C347   C348    1.397   .     S
C347   C352    1.404   .     D
C347   H361    1.140   .     S
C348   C349    1.407   .     D
C348   H362    1.140   .     S
C349   C350    1.407   1_545 S
C350   C349    1.407   1_565 S
C350   C351    1.397   .     D
C350   H363    1.140   .     S
C351   C352    1.397   1_565 S
C351   H364    1.140   .     S
C352   C351    1.397   1_545 S
O353   C354    1.424   .     S
C354   H355    1.140   1_554 S
C354   H356    1.140   1_554 S
C354   H357    1.140   1_544 S
H355   C354    1.140   1_556 S
H356   C354    1.140   1_556 S
H357   C354    1.140   1_566 S
H358   C339    1.140   1_556 S
C365   C366    1.417   .     S
C365   C370    1.397   .     D
C365   H384    1.140   1_554 S
C366   C367    1.419   .     D
C366   O379    1.408   .     S
C367   C368    1.408   .     S
C367   C372    1.471   .     S
C368   C369    1.390   .     D
C368   H385    1.140   1_565 S
C369   C343    1.368   1_665 S
C369   C370    1.379   .     S
C370   C418    1.433   1_665 S
N371   C372    1.297   .     D
N371   C378    1.432   .     S
C372   H386    1.140   .     S
C373   C374    1.397   .     S
C373   C378    1.404   .     D
C373   H387    1.140   .     S
C374   C375    1.407   1_565 D
C374   H388    1.140   .     S
C375   C374    1.407   1_545 D
C375   C376    1.407   .     S
C376   C377    1.397   .     D
C376   H389    1.140   .     S
C377   C378    1.397   1_545 S
C377   H390    1.140   .     S
C378   C377    1.397   1_565 S
O379   C380    1.424   .     S
C380   H381    1.140   1_554 S
C380   H382    1.140   1_554 S
C380   H383    1.140   1_564 S
H381   C380    1.140   1_556 S
H382   C380    1.140   1_556 S
H383   C380    1.140   1_546 S
H384   C365    1.140   1_556 S
H385   C368    1.140   1_545 S
C391   C392    1.417   .     D
C391   C396    1.397   .     S
C391   H410    1.140   .     S
C392   C393    1.419   .     S
C392   O405    1.408   .     S
C393   C394    1.408   .     D
C393   C398    1.471   .     S
C394   C395    1.390   .     S
C394   H411    1.140   .     S
C395   C396    1.379   .     D
C396   C417    1.433   .     S
N397   C398    1.297   .     D
N397   C404    1.432   .     S
C398   H412    1.140   .     S
C399   C400    1.397   .     S
C399   C404    1.404   .     D
C399   H413    1.140   .     S
C400   C401    1.407   .     D
C400   H414    1.140   .     S
C401   C402    1.407   .     S
C402   C403    1.397   .     D
C402   H415    1.140   .     S
C403   C404    1.397   .     S
C403   H416    1.140   .     S
O405   C406    1.424   .     S
C406   H407    1.140   .     S
C406   H408    1.140   .     S
C406   H409    1.140   .     S
C418   C370    1.433   1_445 S
C418   C32     1.433   1_454 S
C418   C58     1.433   1_544 S
C419   C214    1.433   1_545 S
C419   C110    1.433   1_545 S
C420   C266    1.433   1_455 S
C420   C136    1.433   1_455 S
