data_279
_audit_creation_date              2023-09-08
_audit_creation_method            'Materials Studio'
_symmetry_space_group_name_H-M    'P1'
_symmetry_Int_Tables_number       1
_symmetry_cell_setting            triclinic
loop_
_symmetry_equiv_pos_as_xyz
  x,y,z
_cell_length_a                    27.9467
_cell_length_b                    27.9467
_cell_length_c                    74.7950
_cell_angle_alpha                 90.0000
_cell_angle_beta                  90.0000
_cell_angle_gamma                 90.0000
loop_
_atom_site_label
_atom_site_type_symbol
_atom_site_fract_x
_atom_site_fract_y
_atom_site_fract_z
_atom_site_U_iso_or_equiv
_atom_site_adp_type
_atom_site_occupancy
C1     C     0.09371   0.99992   0.99194   0.00000  Uiso   1.00
C2     C     0.12923   0.99989   0.97774   0.00000  Uiso   1.00
C3     C     0.11170   0.99989   0.95977   0.00000  Uiso   1.00
C4     C     0.05949   0.99994   0.95605   0.00000  Uiso   1.00
C5     C     0.02588   0.99998   0.97037   0.00000  Uiso   1.00
C6     C     0.04212   0.99997   0.98793   0.00000  Uiso   1.00
C7     C     0.14825   0.99988   0.94494   0.00000  Uiso   1.00
C8     C     0.14839   0.99985   0.89554   0.00000  Uiso   1.00
C9     C     0.18128   0.99989   0.88096   0.00000  Uiso   1.00
C10    C     0.23427   0.99998   0.88287   0.00000  Uiso   1.00
C11    C     0.25319   0.00002   0.90092   0.00000  Uiso   1.00
C12    C     0.21975   0.99998   0.91544   0.00000  Uiso   1.00
C13    C     0.16742   0.99989   0.91288   0.00000  Uiso   1.00
N14    N     0.50013   0.63298   0.57234   0.00000  Uiso   1.00
O15    O     0.50020   0.68174   0.51913   0.00000  Uiso   1.00
C16    C     0.49984   0.69685   0.50082   0.00000  Uiso   1.00
H17    H     0.29367   0.00008   0.90322   0.00000  Uiso   1.00
H18    H     0.51860   0.66871   0.49221   0.00000  Uiso   1.00
H19    H     0.51948   0.73261   0.49955   0.00000  Uiso   1.00
H20    H     0.46115   0.70127   0.49611   0.00000  Uiso   1.00
H21    H     0.10567   0.99990   0.00655   0.00000  Uiso   1.00
H22    H     0.04604   0.99995   0.94163   0.00000  Uiso   1.00
H23    H     0.18821   0.99988   0.94827   0.00000  Uiso   1.00
H24    H     0.10808   0.99979   0.89287   0.00000  Uiso   1.00
H25    H     0.16733   0.99985   0.86660   0.00000  Uiso   1.00
H26    H     0.23331   0.00002   0.92985   0.00000  Uiso   1.00
C27    C     0.59371   0.49992   0.49194   0.00000  Uiso   1.00
C28    C     0.62923   0.49989   0.47774   0.00000  Uiso   1.00
C29    C     0.61170   0.49989   0.45977   0.00000  Uiso   1.00
C30    C     0.55949   0.49994   0.45605   0.00000  Uiso   1.00
C31    C     0.52588   0.49998   0.47037   0.00000  Uiso   1.00
C32    C     0.54212   0.49997   0.48793   0.00000  Uiso   1.00
C33    C     0.64825   0.49988   0.44494   0.00000  Uiso   1.00
C34    C     0.64839   0.49985   0.39554   0.00000  Uiso   1.00
C35    C     0.68128   0.49989   0.38096   0.00000  Uiso   1.00
C36    C     0.73427   0.49998   0.38287   0.00000  Uiso   1.00
C37    C     0.75319   0.50002   0.40092   0.00000  Uiso   1.00
C38    C     0.71975   0.49998   0.41544   0.00000  Uiso   1.00
C39    C     0.66742   0.49989   0.41288   0.00000  Uiso   1.00
N40    N     0.00013   0.13298   0.07234   0.00000  Uiso   1.00
O41    O     0.00020   0.18174   0.01913   0.00000  Uiso   1.00
C42    C     0.99984   0.19685   0.00082   0.00000  Uiso   1.00
H43    H     0.79367   0.50008   0.40322   0.00000  Uiso   1.00
H44    H     0.01860   0.16871   0.99221   0.00000  Uiso   1.00
H45    H     0.01948   0.23261   0.99955   0.00000  Uiso   1.00
H46    H     0.96115   0.20127   0.99611   0.00000  Uiso   1.00
H47    H     0.60567   0.49990   0.50655   0.00000  Uiso   1.00
H48    H     0.54604   0.49995   0.44163   0.00000  Uiso   1.00
H49    H     0.68821   0.49988   0.44827   0.00000  Uiso   1.00
H50    H     0.60808   0.49979   0.39287   0.00000  Uiso   1.00
H51    H     0.66733   0.49985   0.36660   0.00000  Uiso   1.00
H52    H     0.73331   0.50002   0.42985   0.00000  Uiso   1.00
C53    C     0.40629   0.50008   0.49194   0.00000  Uiso   1.00
C54    C     0.37077   0.50011   0.47774   0.00000  Uiso   1.00
C55    C     0.38830   0.50011   0.45977   0.00000  Uiso   1.00
C56    C     0.44051   0.50006   0.45605   0.00000  Uiso   1.00
C57    C     0.47412   0.50002   0.47037   0.00000  Uiso   1.00
C58    C     0.45788   0.50003   0.48793   0.00000  Uiso   1.00
C59    C     0.35175   0.50012   0.44494   0.00000  Uiso   1.00
C60    C     0.35161   0.50015   0.39554   0.00000  Uiso   1.00
C61    C     0.31872   0.50011   0.38096   0.00000  Uiso   1.00
C62    C     0.26573   0.50002   0.38287   0.00000  Uiso   1.00
C63    C     0.24681   0.49998   0.40092   0.00000  Uiso   1.00
C64    C     0.28025   0.50002   0.41544   0.00000  Uiso   1.00
C65    C     0.33258   0.50011   0.41288   0.00000  Uiso   1.00
N66    N     0.99987   0.86702   0.07234   0.00000  Uiso   1.00
O67    O     0.99980   0.81826   0.01913   0.00000  Uiso   1.00
C68    C     0.00016   0.80315   0.00082   0.00000  Uiso   1.00
H69    H     0.20633   0.49992   0.40322   0.00000  Uiso   1.00
H70    H     0.98140   0.83129   0.99221   0.00000  Uiso   1.00
H71    H     0.98052   0.76739   0.99955   0.00000  Uiso   1.00
H72    H     0.03885   0.79873   0.99611   0.00000  Uiso   1.00
H73    H     0.39433   0.50010   0.50655   0.00000  Uiso   1.00
H74    H     0.45396   0.50005   0.44163   0.00000  Uiso   1.00
H75    H     0.31179   0.50012   0.44827   0.00000  Uiso   1.00
H76    H     0.39192   0.50021   0.39287   0.00000  Uiso   1.00
H77    H     0.33267   0.50015   0.36660   0.00000  Uiso   1.00
H78    H     0.26669   0.49998   0.42985   0.00000  Uiso   1.00
C79    C     0.90629   0.00008   0.99194   0.00000  Uiso   1.00
C80    C     0.87077   0.00011   0.97774   0.00000  Uiso   1.00
C81    C     0.88830   0.00011   0.95977   0.00000  Uiso   1.00
C82    C     0.94051   0.00006   0.95605   0.00000  Uiso   1.00
C83    C     0.97412   0.00002   0.97037   0.00000  Uiso   1.00
C84    C     0.95788   0.00003   0.98793   0.00000  Uiso   1.00
C85    C     0.85175   0.00012   0.94494   0.00000  Uiso   1.00
C86    C     0.85161   0.00015   0.89554   0.00000  Uiso   1.00
C87    C     0.81872   0.00011   0.88096   0.00000  Uiso   1.00
C88    C     0.76573   0.00002   0.88287   0.00000  Uiso   1.00
C89    C     0.74681   0.99998   0.90092   0.00000  Uiso   1.00
C90    C     0.78025   0.00002   0.91544   0.00000  Uiso   1.00
C91    C     0.83258   0.00011   0.91288   0.00000  Uiso   1.00
N92    N     0.49987   0.36702   0.57234   0.00000  Uiso   1.00
O93    O     0.49980   0.31826   0.51913   0.00000  Uiso   1.00
C94    C     0.50016   0.30315   0.50082   0.00000  Uiso   1.00
H95    H     0.70633   0.99992   0.90322   0.00000  Uiso   1.00
H96    H     0.48140   0.33129   0.49221   0.00000  Uiso   1.00
H97    H     0.48052   0.26739   0.49955   0.00000  Uiso   1.00
H98    H     0.53885   0.29873   0.49611   0.00000  Uiso   1.00
H99    H     0.89433   0.00010   0.00655   0.00000  Uiso   1.00
H100   H     0.95396   0.00005   0.94163   0.00000  Uiso   1.00
H101   H     0.81179   0.00012   0.94827   0.00000  Uiso   1.00
H102   H     0.89192   0.00021   0.89287   0.00000  Uiso   1.00
H103   H     0.83267   0.00015   0.86660   0.00000  Uiso   1.00
H104   H     0.76669   0.99998   0.92985   0.00000  Uiso   1.00
C105   C     0.00008   0.59371   0.24194   0.00000  Uiso   1.00
C106   C     0.00011   0.62923   0.22774   0.00000  Uiso   1.00
C107   C     0.00011   0.61170   0.20977   0.00000  Uiso   1.00
C108   C     0.00006   0.55949   0.20605   0.00000  Uiso   1.00
C109   C     0.00002   0.52588   0.22037   0.00000  Uiso   1.00
C110   C     0.00003   0.54212   0.23793   0.00000  Uiso   1.00
C111   C     0.00012   0.64825   0.19494   0.00000  Uiso   1.00
C112   C     0.00015   0.64839   0.14554   0.00000  Uiso   1.00
C113   C     0.00011   0.68128   0.13096   0.00000  Uiso   1.00
C114   C     0.00002   0.73427   0.13287   0.00000  Uiso   1.00
C115   C     0.99998   0.75319   0.15092   0.00000  Uiso   1.00
C116   C     0.00002   0.71975   0.16544   0.00000  Uiso   1.00
C117   C     0.00011   0.66742   0.16288   0.00000  Uiso   1.00
N118   N     0.36702   0.00013   0.82234   0.00000  Uiso   1.00
O119   O     0.31826   0.00020   0.76913   0.00000  Uiso   1.00
C120   C     0.30315   0.99984   0.75082   0.00000  Uiso   1.00
H121   H     0.99992   0.79367   0.15322   0.00000  Uiso   1.00
H122   H     0.33129   0.01860   0.74221   0.00000  Uiso   1.00
H123   H     0.26739   0.01948   0.74955   0.00000  Uiso   1.00
H124   H     0.29873   0.96115   0.74611   0.00000  Uiso   1.00
H125   H     0.00010   0.60567   0.25655   0.00000  Uiso   1.00
H126   H     0.00005   0.54604   0.19163   0.00000  Uiso   1.00
H127   H     0.00012   0.68821   0.19827   0.00000  Uiso   1.00
H128   H     0.00021   0.60808   0.14287   0.00000  Uiso   1.00
H129   H     0.00015   0.66733   0.11660   0.00000  Uiso   1.00
H130   H     0.99998   0.73331   0.17985   0.00000  Uiso   1.00
C131   C     0.50008   0.09371   0.74194   0.00000  Uiso   1.00
C132   C     0.50011   0.12923   0.72774   0.00000  Uiso   1.00
C133   C     0.50011   0.11170   0.70977   0.00000  Uiso   1.00
C134   C     0.50006   0.05949   0.70605   0.00000  Uiso   1.00
C135   C     0.50002   0.02588   0.72037   0.00000  Uiso   1.00
C136   C     0.50003   0.04212   0.73793   0.00000  Uiso   1.00
C137   C     0.50012   0.14825   0.69494   0.00000  Uiso   1.00
C138   C     0.50015   0.14839   0.64554   0.00000  Uiso   1.00
C139   C     0.50011   0.18128   0.63096   0.00000  Uiso   1.00
C140   C     0.50002   0.23427   0.63287   0.00000  Uiso   1.00
C141   C     0.49998   0.25319   0.65092   0.00000  Uiso   1.00
C142   C     0.50002   0.21975   0.66544   0.00000  Uiso   1.00
C143   C     0.50011   0.16742   0.66288   0.00000  Uiso   1.00
N144   N     0.86702   0.50013   0.32234   0.00000  Uiso   1.00
O145   O     0.81826   0.50020   0.26913   0.00000  Uiso   1.00
C146   C     0.80315   0.49984   0.25082   0.00000  Uiso   1.00
H147   H     0.49992   0.29367   0.65322   0.00000  Uiso   1.00
H148   H     0.83129   0.51860   0.24221   0.00000  Uiso   1.00
H149   H     0.76739   0.51948   0.24955   0.00000  Uiso   1.00
H150   H     0.79873   0.46115   0.24611   0.00000  Uiso   1.00
H151   H     0.50010   0.10567   0.75655   0.00000  Uiso   1.00
H152   H     0.50005   0.04604   0.69163   0.00000  Uiso   1.00
H153   H     0.50012   0.18821   0.69827   0.00000  Uiso   1.00
H154   H     0.50021   0.10808   0.64287   0.00000  Uiso   1.00
H155   H     0.50015   0.16733   0.61660   0.00000  Uiso   1.00
H156   H     0.49998   0.23331   0.67985   0.00000  Uiso   1.00
C157   C     0.49992   0.90629   0.74194   0.00000  Uiso   1.00
C158   C     0.49989   0.87077   0.72774   0.00000  Uiso   1.00
C159   C     0.49989   0.88830   0.70977   0.00000  Uiso   1.00
C160   C     0.49994   0.94051   0.70605   0.00000  Uiso   1.00
C161   C     0.49998   0.97412   0.72037   0.00000  Uiso   1.00
C162   C     0.49997   0.95788   0.73793   0.00000  Uiso   1.00
C163   C     0.49988   0.85175   0.69494   0.00000  Uiso   1.00
C164   C     0.49985   0.85161   0.64554   0.00000  Uiso   1.00
C165   C     0.49989   0.81872   0.63096   0.00000  Uiso   1.00
C166   C     0.49998   0.76573   0.63287   0.00000  Uiso   1.00
C167   C     0.50002   0.74681   0.65092   0.00000  Uiso   1.00
C168   C     0.49998   0.78025   0.66544   0.00000  Uiso   1.00
C169   C     0.49989   0.83258   0.66288   0.00000  Uiso   1.00
N170   N     0.13298   0.49987   0.32234   0.00000  Uiso   1.00
O171   O     0.18174   0.49980   0.26913   0.00000  Uiso   1.00
C172   C     0.19685   0.50016   0.25082   0.00000  Uiso   1.00
H173   H     0.50008   0.70633   0.65322   0.00000  Uiso   1.00
H174   H     0.16871   0.48140   0.24221   0.00000  Uiso   1.00
H175   H     0.23261   0.48052   0.24955   0.00000  Uiso   1.00
H176   H     0.20127   0.53885   0.24611   0.00000  Uiso   1.00
H177   H     0.49990   0.89433   0.75655   0.00000  Uiso   1.00
H178   H     0.49995   0.95396   0.69163   0.00000  Uiso   1.00
H179   H     0.49988   0.81179   0.69827   0.00000  Uiso   1.00
H180   H     0.49979   0.89192   0.64287   0.00000  Uiso   1.00
H181   H     0.49985   0.83267   0.61660   0.00000  Uiso   1.00
H182   H     0.50002   0.76669   0.67985   0.00000  Uiso   1.00
C183   C     0.99992   0.40629   0.24194   0.00000  Uiso   1.00
C184   C     0.99989   0.37077   0.22774   0.00000  Uiso   1.00
C185   C     0.99989   0.38830   0.20977   0.00000  Uiso   1.00
C186   C     0.99994   0.44051   0.20605   0.00000  Uiso   1.00
C187   C     0.99998   0.47412   0.22037   0.00000  Uiso   1.00
C188   C     0.99997   0.45788   0.23793   0.00000  Uiso   1.00
C189   C     0.99988   0.35175   0.19494   0.00000  Uiso   1.00
C190   C     0.99985   0.35161   0.14554   0.00000  Uiso   1.00
C191   C     0.99989   0.31872   0.13096   0.00000  Uiso   1.00
C192   C     0.99998   0.26573   0.13287   0.00000  Uiso   1.00
C193   C     0.00002   0.24681   0.15092   0.00000  Uiso   1.00
C194   C     0.99998   0.28025   0.16544   0.00000  Uiso   1.00
C195   C     0.99989   0.33258   0.16288   0.00000  Uiso   1.00
N196   N     0.63298   0.99987   0.82234   0.00000  Uiso   1.00
O197   O     0.68174   0.99980   0.76913   0.00000  Uiso   1.00
C198   C     0.69685   0.00016   0.75082   0.00000  Uiso   1.00
H199   H     0.00008   0.20633   0.15322   0.00000  Uiso   1.00
H200   H     0.66871   0.98140   0.74221   0.00000  Uiso   1.00
H201   H     0.73261   0.98052   0.74955   0.00000  Uiso   1.00
H202   H     0.70127   0.03885   0.74611   0.00000  Uiso   1.00
H203   H     0.99990   0.39433   0.25655   0.00000  Uiso   1.00
H204   H     0.99995   0.45396   0.19163   0.00000  Uiso   1.00
H205   H     0.99988   0.31179   0.19827   0.00000  Uiso   1.00
H206   H     0.99979   0.39192   0.14287   0.00000  Uiso   1.00
H207   H     0.99985   0.33267   0.11660   0.00000  Uiso   1.00
H208   H     0.00002   0.26669   0.17985   0.00000  Uiso   1.00
C209   C     0.90629   0.50008   0.25806   0.00000  Uiso   1.00
C210   C     0.87077   0.50011   0.27226   0.00000  Uiso   1.00
C211   C     0.88830   0.50011   0.29023   0.00000  Uiso   1.00
C212   C     0.94051   0.50006   0.29395   0.00000  Uiso   1.00
C213   C     0.97412   0.50002   0.27963   0.00000  Uiso   1.00
C214   C     0.95788   0.50003   0.26207   0.00000  Uiso   1.00
C215   C     0.85175   0.50012   0.30506   0.00000  Uiso   1.00
C216   C     0.85161   0.50015   0.35446   0.00000  Uiso   1.00
C217   C     0.81872   0.50011   0.36904   0.00000  Uiso   1.00
C218   C     0.76573   0.50002   0.36713   0.00000  Uiso   1.00
C219   C     0.74681   0.49998   0.34908   0.00000  Uiso   1.00
C220   C     0.78025   0.50002   0.33456   0.00000  Uiso   1.00
C221   C     0.83258   0.50011   0.33712   0.00000  Uiso   1.00
N222   N     0.49987   0.86702   0.67766   0.00000  Uiso   1.00
O223   O     0.49980   0.81826   0.73087   0.00000  Uiso   1.00
C224   C     0.50016   0.80315   0.74918   0.00000  Uiso   1.00
H225   H     0.70633   0.49992   0.34678   0.00000  Uiso   1.00
H226   H     0.48140   0.83129   0.75779   0.00000  Uiso   1.00
H227   H     0.48052   0.76739   0.75045   0.00000  Uiso   1.00
H228   H     0.53885   0.79873   0.75389   0.00000  Uiso   1.00
H229   H     0.89433   0.50010   0.24345   0.00000  Uiso   1.00
H230   H     0.95396   0.50005   0.30837   0.00000  Uiso   1.00
H231   H     0.81179   0.50012   0.30173   0.00000  Uiso   1.00
H232   H     0.89192   0.50021   0.35713   0.00000  Uiso   1.00
H233   H     0.83267   0.50015   0.38340   0.00000  Uiso   1.00
H234   H     0.76669   0.49998   0.32015   0.00000  Uiso   1.00
C235   C     0.40629   0.00008   0.75806   0.00000  Uiso   1.00
C236   C     0.37077   0.00011   0.77226   0.00000  Uiso   1.00
C237   C     0.38830   0.00011   0.79023   0.00000  Uiso   1.00
C238   C     0.44051   0.00006   0.79395   0.00000  Uiso   1.00
C239   C     0.47412   0.00002   0.77963   0.00000  Uiso   1.00
C240   C     0.45788   0.00003   0.76207   0.00000  Uiso   1.00
C241   C     0.35175   0.00012   0.80506   0.00000  Uiso   1.00
C242   C     0.35161   0.00015   0.85446   0.00000  Uiso   1.00
C243   C     0.31872   0.00011   0.86904   0.00000  Uiso   1.00
C244   C     0.26573   0.00002   0.86713   0.00000  Uiso   1.00
C245   C     0.24681   0.99998   0.84908   0.00000  Uiso   1.00
C246   C     0.28025   0.00002   0.83456   0.00000  Uiso   1.00
C247   C     0.33258   0.00011   0.83712   0.00000  Uiso   1.00
N248   N     0.99987   0.36702   0.17766   0.00000  Uiso   1.00
O249   O     0.99980   0.31826   0.23087   0.00000  Uiso   1.00
C250   C     0.00016   0.30315   0.24918   0.00000  Uiso   1.00
H251   H     0.20633   0.99992   0.84678   0.00000  Uiso   1.00
H252   H     0.98140   0.33129   0.25779   0.00000  Uiso   1.00
H253   H     0.98052   0.26739   0.25045   0.00000  Uiso   1.00
H254   H     0.03885   0.29873   0.25389   0.00000  Uiso   1.00
H255   H     0.39433   0.00010   0.74345   0.00000  Uiso   1.00
H256   H     0.45396   0.00005   0.80837   0.00000  Uiso   1.00
H257   H     0.31179   0.00012   0.80173   0.00000  Uiso   1.00
H258   H     0.39192   0.00021   0.85713   0.00000  Uiso   1.00
H259   H     0.33267   0.00015   0.88340   0.00000  Uiso   1.00
H260   H     0.26669   0.99998   0.82015   0.00000  Uiso   1.00
C261   C     0.59371   0.99992   0.75806   0.00000  Uiso   1.00
C262   C     0.62923   0.99989   0.77226   0.00000  Uiso   1.00
C263   C     0.61170   0.99989   0.79023   0.00000  Uiso   1.00
C264   C     0.55949   0.99994   0.79395   0.00000  Uiso   1.00
C265   C     0.52588   0.99998   0.77963   0.00000  Uiso   1.00
C266   C     0.54212   0.99997   0.76207   0.00000  Uiso   1.00
C267   C     0.64825   0.99988   0.80506   0.00000  Uiso   1.00
C268   C     0.64839   0.99985   0.85446   0.00000  Uiso   1.00
C269   C     0.68128   0.99989   0.86904   0.00000  Uiso   1.00
C270   C     0.73427   0.99998   0.86713   0.00000  Uiso   1.00
C271   C     0.75319   0.00002   0.84908   0.00000  Uiso   1.00
C272   C     0.71975   0.99998   0.83456   0.00000  Uiso   1.00
C273   C     0.66742   0.99989   0.83712   0.00000  Uiso   1.00
N274   N     0.00013   0.63298   0.17766   0.00000  Uiso   1.00
O275   O     0.00020   0.68174   0.23087   0.00000  Uiso   1.00
C276   C     0.99984   0.69685   0.24918   0.00000  Uiso   1.00
H277   H     0.79367   0.00008   0.84678   0.00000  Uiso   1.00
H278   H     0.01860   0.66871   0.25779   0.00000  Uiso   1.00
H279   H     0.01948   0.73261   0.25045   0.00000  Uiso   1.00
H280   H     0.96115   0.70127   0.25389   0.00000  Uiso   1.00
H281   H     0.60567   0.99990   0.74345   0.00000  Uiso   1.00
H282   H     0.54604   0.99995   0.80837   0.00000  Uiso   1.00
H283   H     0.68821   0.99988   0.80173   0.00000  Uiso   1.00
H284   H     0.60808   0.99979   0.85713   0.00000  Uiso   1.00
H285   H     0.66733   0.99985   0.88340   0.00000  Uiso   1.00
H286   H     0.73331   0.00002   0.82015   0.00000  Uiso   1.00
C287   C     0.09371   0.49992   0.25806   0.00000  Uiso   1.00
C288   C     0.12923   0.49989   0.27226   0.00000  Uiso   1.00
C289   C     0.11170   0.49989   0.29023   0.00000  Uiso   1.00
C290   C     0.05949   0.49994   0.29395   0.00000  Uiso   1.00
C291   C     0.02588   0.49998   0.27963   0.00000  Uiso   1.00
C292   C     0.04212   0.49997   0.26207   0.00000  Uiso   1.00
C293   C     0.14825   0.49988   0.30506   0.00000  Uiso   1.00
C294   C     0.14839   0.49985   0.35446   0.00000  Uiso   1.00
C295   C     0.18128   0.49989   0.36904   0.00000  Uiso   1.00
C296   C     0.23427   0.49998   0.36713   0.00000  Uiso   1.00
C297   C     0.25319   0.50002   0.34908   0.00000  Uiso   1.00
C298   C     0.21975   0.49998   0.33456   0.00000  Uiso   1.00
C299   C     0.16742   0.49989   0.33712   0.00000  Uiso   1.00
N300   N     0.50013   0.13298   0.67766   0.00000  Uiso   1.00
O301   O     0.50020   0.18174   0.73087   0.00000  Uiso   1.00
C302   C     0.49984   0.19685   0.74918   0.00000  Uiso   1.00
H303   H     0.29367   0.50008   0.34678   0.00000  Uiso   1.00
H304   H     0.51860   0.16871   0.75779   0.00000  Uiso   1.00
H305   H     0.51948   0.23261   0.75045   0.00000  Uiso   1.00
H306   H     0.46115   0.20127   0.75389   0.00000  Uiso   1.00
H307   H     0.10567   0.49990   0.24345   0.00000  Uiso   1.00
H308   H     0.04604   0.49995   0.30837   0.00000  Uiso   1.00
H309   H     0.18821   0.49988   0.30173   0.00000  Uiso   1.00
H310   H     0.10808   0.49979   0.35713   0.00000  Uiso   1.00
H311   H     0.16733   0.49985   0.38340   0.00000  Uiso   1.00
H312   H     0.23331   0.50002   0.32015   0.00000  Uiso   1.00
C313   C     0.99992   0.90629   0.00806   0.00000  Uiso   1.00
C314   C     0.99989   0.87077   0.02226   0.00000  Uiso   1.00
C315   C     0.99989   0.88830   0.04023   0.00000  Uiso   1.00
C316   C     0.99994   0.94051   0.04395   0.00000  Uiso   1.00
C317   C     0.99998   0.97412   0.02963   0.00000  Uiso   1.00
C318   C     0.99997   0.95788   0.01207   0.00000  Uiso   1.00
C319   C     0.99988   0.85175   0.05506   0.00000  Uiso   1.00
C320   C     0.99985   0.85161   0.10446   0.00000  Uiso   1.00
C321   C     0.99989   0.81872   0.11904   0.00000  Uiso   1.00
C322   C     0.99998   0.76573   0.11713   0.00000  Uiso   1.00
C323   C     0.00002   0.74681   0.09908   0.00000  Uiso   1.00
C324   C     0.99998   0.78025   0.08456   0.00000  Uiso   1.00
C325   C     0.99989   0.83258   0.08712   0.00000  Uiso   1.00
N326   N     0.63298   0.49987   0.42766   0.00000  Uiso   1.00
O327   O     0.68174   0.49980   0.48087   0.00000  Uiso   1.00
C328   C     0.69685   0.50016   0.49918   0.00000  Uiso   1.00
H329   H     0.00008   0.70633   0.09678   0.00000  Uiso   1.00
H330   H     0.66871   0.48140   0.50779   0.00000  Uiso   1.00
H331   H     0.73261   0.48052   0.50045   0.00000  Uiso   1.00
H332   H     0.70127   0.53885   0.50389   0.00000  Uiso   1.00
H333   H     0.99990   0.89433   0.99345   0.00000  Uiso   1.00
H334   H     0.99995   0.95396   0.05837   0.00000  Uiso   1.00
H335   H     0.99988   0.81179   0.05173   0.00000  Uiso   1.00
H336   H     0.99979   0.89192   0.10713   0.00000  Uiso   1.00
H337   H     0.99985   0.83267   0.13340   0.00000  Uiso   1.00
H338   H     0.00002   0.76669   0.07015   0.00000  Uiso   1.00
C339   C     0.49992   0.40629   0.50806   0.00000  Uiso   1.00
C340   C     0.49989   0.37077   0.52226   0.00000  Uiso   1.00
C341   C     0.49989   0.38830   0.54023   0.00000  Uiso   1.00
C342   C     0.49994   0.44051   0.54395   0.00000  Uiso   1.00
C343   C     0.49998   0.47412   0.52963   0.00000  Uiso   1.00
C344   C     0.49997   0.45788   0.51207   0.00000  Uiso   1.00
C345   C     0.49988   0.35175   0.55506   0.00000  Uiso   1.00
C346   C     0.49985   0.35161   0.60446   0.00000  Uiso   1.00
C347   C     0.49989   0.31872   0.61904   0.00000  Uiso   1.00
C348   C     0.49998   0.26573   0.61713   0.00000  Uiso   1.00
C349   C     0.50002   0.24681   0.59908   0.00000  Uiso   1.00
C350   C     0.49998   0.28025   0.58456   0.00000  Uiso   1.00
C351   C     0.49989   0.33258   0.58712   0.00000  Uiso   1.00
N352   N     0.13298   0.99987   0.92766   0.00000  Uiso   1.00
O353   O     0.18174   0.99980   0.98087   0.00000  Uiso   1.00
C354   C     0.19685   0.00016   0.99918   0.00000  Uiso   1.00
H355   H     0.50008   0.20633   0.59678   0.00000  Uiso   1.00
H356   H     0.16871   0.98140   0.00779   0.00000  Uiso   1.00
H357   H     0.23261   0.98052   0.00045   0.00000  Uiso   1.00
H358   H     0.20127   0.03885   0.00389   0.00000  Uiso   1.00
H359   H     0.49990   0.39433   0.49345   0.00000  Uiso   1.00
H360   H     0.49995   0.45396   0.55837   0.00000  Uiso   1.00
H361   H     0.49988   0.31179   0.55173   0.00000  Uiso   1.00
H362   H     0.49979   0.39192   0.60713   0.00000  Uiso   1.00
H363   H     0.49985   0.33267   0.63340   0.00000  Uiso   1.00
H364   H     0.50002   0.26669   0.57015   0.00000  Uiso   1.00
C365   C     0.50008   0.59371   0.50806   0.00000  Uiso   1.00
C366   C     0.50011   0.62923   0.52226   0.00000  Uiso   1.00
C367   C     0.50011   0.61170   0.54023   0.00000  Uiso   1.00
C368   C     0.50006   0.55949   0.54395   0.00000  Uiso   1.00
C369   C     0.50002   0.52588   0.52963   0.00000  Uiso   1.00
C370   C     0.50003   0.54212   0.51207   0.00000  Uiso   1.00
C371   C     0.50012   0.64825   0.55506   0.00000  Uiso   1.00
C372   C     0.50015   0.64839   0.60446   0.00000  Uiso   1.00
C373   C     0.50011   0.68128   0.61904   0.00000  Uiso   1.00
C374   C     0.50002   0.73427   0.61713   0.00000  Uiso   1.00
C375   C     0.49998   0.75319   0.59908   0.00000  Uiso   1.00
C376   C     0.50002   0.71975   0.58456   0.00000  Uiso   1.00
C377   C     0.50011   0.66742   0.58712   0.00000  Uiso   1.00
N378   N     0.86702   0.00013   0.92766   0.00000  Uiso   1.00
O379   O     0.81826   0.00020   0.98087   0.00000  Uiso   1.00
C380   C     0.80315   0.99984   0.99918   0.00000  Uiso   1.00
H381   H     0.49992   0.79367   0.59678   0.00000  Uiso   1.00
H382   H     0.83129   0.01860   0.00779   0.00000  Uiso   1.00
H383   H     0.76739   0.01948   0.00045   0.00000  Uiso   1.00
H384   H     0.79873   0.96115   0.00389   0.00000  Uiso   1.00
H385   H     0.50010   0.60567   0.49345   0.00000  Uiso   1.00
H386   H     0.50005   0.54604   0.55837   0.00000  Uiso   1.00
H387   H     0.50012   0.68821   0.55173   0.00000  Uiso   1.00
H388   H     0.50021   0.60808   0.60713   0.00000  Uiso   1.00
H389   H     0.50015   0.66733   0.63340   0.00000  Uiso   1.00
H390   H     0.49998   0.73331   0.57015   0.00000  Uiso   1.00
C391   C     0.00008   0.09371   0.00806   0.00000  Uiso   1.00
C392   C     0.00011   0.12923   0.02226   0.00000  Uiso   1.00
C393   C     0.00011   0.11170   0.04023   0.00000  Uiso   1.00
C394   C     0.00006   0.05949   0.04395   0.00000  Uiso   1.00
C395   C     0.00002   0.02588   0.02963   0.00000  Uiso   1.00
C396   C     0.00003   0.04212   0.01207   0.00000  Uiso   1.00
C397   C     0.00012   0.14825   0.05506   0.00000  Uiso   1.00
C398   C     0.00015   0.14839   0.10446   0.00000  Uiso   1.00
C399   C     0.00011   0.18128   0.11904   0.00000  Uiso   1.00
C400   C     0.00002   0.23427   0.11713   0.00000  Uiso   1.00
C401   C     0.99998   0.25319   0.09908   0.00000  Uiso   1.00
C402   C     0.00002   0.21975   0.08456   0.00000  Uiso   1.00
C403   C     0.00011   0.16742   0.08712   0.00000  Uiso   1.00
N404   N     0.36702   0.50013   0.42766   0.00000  Uiso   1.00
O405   O     0.31826   0.50020   0.48087   0.00000  Uiso   1.00
C406   C     0.30315   0.49984   0.49918   0.00000  Uiso   1.00
H407   H     0.99992   0.29367   0.09678   0.00000  Uiso   1.00
H408   H     0.33129   0.51860   0.50779   0.00000  Uiso   1.00
H409   H     0.26739   0.51948   0.50045   0.00000  Uiso   1.00
H410   H     0.29873   0.46115   0.50389   0.00000  Uiso   1.00
H411   H     0.00010   0.10567   0.99345   0.00000  Uiso   1.00
H412   H     0.00005   0.04604   0.05837   0.00000  Uiso   1.00
H413   H     0.00012   0.18821   0.05173   0.00000  Uiso   1.00
H414   H     0.00021   0.10808   0.10713   0.00000  Uiso   1.00
H415   H     0.00015   0.16733   0.13340   0.00000  Uiso   1.00
H416   H     0.99998   0.23331   0.07015   0.00000  Uiso   1.00
C417   C     0.00000   0.00000   0.00000   0.00000  Uiso   1.00
C418   C     0.50000   0.50000   0.50000   0.00000  Uiso   1.00
C419   C     0.00000   0.50000   0.25000   0.00000  Uiso   1.00
C420   C     0.50000   0.00000   0.75000   0.00000  Uiso   1.00
loop_
_geom_bond_atom_site_label_1
_geom_bond_atom_site_label_2
_geom_bond_distance
_geom_bond_site_symmetry_2
_ccdc_geom_bond_type
C1     C2      1.454   .     S
C1     C6      1.473   .     D
C1     H21     1.143   1_556 S
C2     C3      1.431   .     D
C2     O353    1.486   .     S
C3     C4      1.485   .     S
C3     C7      1.508   .     S
C4     C5      1.425   .     D
C4     H22     1.142   .     S
C5     C6      1.390   .     S
C5     C83     1.447   1_465 S
C6     C417    1.483   1_566 S
C7     H23     1.144   .     S
C7     N352    1.361   .     D
C8     C9      1.426   .     D
C8     C13     1.402   .     S
C8     H24     1.144   .     S
C9     C10     1.488   .     S
C9     H25     1.143   .     S
C10    C11     1.450   1_565 D
C10    C244    1.469   1_565 S
C11    C10     1.450   1_545 D
C11    C12     1.433   1_545 S
C11    H17     1.144   .     S
C12    C11     1.433   1_565 S
C12    C13     1.475   .     D
C12    H26     1.142   1_565 S
C13    N352    1.466   .     S
N14    C371    1.361   .     D
N14    C377    1.466   .     S
O15    C16     1.433   .     S
O15    C366    1.486   .     S
C16    H18     1.144   .     S
C16    H19     1.144   .     S
C16    H20     1.144   .     S
H21    C1      1.143   1_554 S
H26    C12     1.142   1_545 S
C27    C28     1.454   .     S
C27    C32     1.473   .     D
C27    H47     1.143   .     S
C28    C29     1.431   .     D
C28    O327    1.486   .     S
C29    C30     1.485   .     S
C29    C33     1.508   .     S
C30    C31     1.425   .     D
C30    H48     1.142   .     S
C31    C32     1.390   .     S
C31    C57     1.447   .     S
C32    C418    1.483   .     S
C33    H49     1.144   .     S
C33    N326    1.361   .     D
C34    C35     1.426   .     D
C34    C39     1.402   .     S
C34    H50     1.144   .     S
C35    C36     1.488   .     S
C35    H51     1.143   .     S
C36    C37     1.450   .     D
C36    C218    1.469   .     S
C37    C38     1.433   .     S
C37    H43     1.144   .     S
C38    C39     1.475   .     D
C38    H52     1.142   .     S
C39    N326    1.466   .     S
N40    C397    1.361   .     D
N40    C403    1.466   .     S
O41    C42     1.433   1_455 S
O41    C392    1.486   .     S
C42    O41     1.433   1_655 S
C42    H44     1.144   1_654 S
C42    H45     1.144   1_654 S
C42    H46     1.144   1_554 S
H44    C42     1.144   1_456 S
H45    C42     1.144   1_456 S
H46    C42     1.144   1_556 S
C53    C54     1.454   .     D
C53    C58     1.473   .     S
C53    H73     1.143   .     S
C54    C55     1.431   .     S
C54    O405    1.486   .     S
C55    C56     1.485   .     D
C55    C59     1.508   .     S
C56    C57     1.425   .     S
C56    H74     1.142   .     S
C57    C58     1.390   .     D
C58    C418    1.483   .     S
C59    H75     1.144   .     S
C59    N404    1.361   .     D
C60    C61     1.426   .     D
C60    C65     1.402   .     S
C60    H76     1.144   .     S
C61    C62     1.488   .     S
C61    H77     1.143   .     S
C62    C63     1.450   .     D
C62    C296    1.469   .     S
C63    C64     1.433   .     S
C63    H69     1.144   .     S
C64    C65     1.475   .     D
C64    H78     1.142   .     S
C65    N404    1.466   .     S
N66    C319    1.361   .     D
N66    C325    1.466   .     S
O67    C68     1.433   1_655 S
O67    C314    1.486   .     S
C68    O67     1.433   1_455 S
C68    H70     1.144   1_454 S
C68    H71     1.144   1_454 S
C68    H72     1.144   1_554 S
H70    C68     1.144   1_656 S
H71    C68     1.144   1_656 S
H72    C68     1.144   1_556 S
C79    C80     1.454   .     D
C79    C84     1.473   .     S
C79    H99     1.143   1_556 S
C80    C81     1.431   .     S
C80    O379    1.486   .     S
C81    C82     1.485   .     D
C81    C85     1.508   .     S
C82    C83     1.425   .     S
C82    H100    1.142   .     S
C83    C5      1.447   1_645 S
C83    C84     1.390   .     D
C84    C417    1.483   1_656 S
C85    H101    1.144   .     S
C85    N378    1.361   .     D
C86    C87     1.426   .     D
C86    C91     1.402   .     S
C86    H102    1.144   .     S
C87    C88     1.488   .     S
C87    H103    1.143   .     S
C88    C89     1.450   1_545 D
C88    C270    1.469   1_545 S
C89    C88     1.450   1_565 D
C89    C90     1.433   1_565 S
C89    H95     1.144   .     S
C90    C89     1.433   1_545 S
C90    C91     1.475   .     D
C90    H104    1.142   1_545 S
C91    N378    1.466   .     S
N92    C345    1.361   .     D
N92    C351    1.466   .     S
O93    C94     1.433   .     S
O93    C340    1.486   .     S
C94    H96     1.144   .     S
C94    H97     1.144   .     S
C94    H98     1.144   .     S
H99    C79     1.143   1_554 S
H104   C90     1.142   1_565 S
C105   C106    1.454   .     S
C105   C110    1.473   .     D
C105   H125    1.143   .     S
C106   C107    1.431   .     D
C106   O275    1.486   .     S
C107   C108    1.485   .     S
C107   C111    1.508   .     S
C108   C109    1.425   .     D
C108   H126    1.142   .     S
C109   C110    1.390   .     S
C109   C187    1.447   1_455 S
C110   C419    1.483   .     S
C111   H127    1.144   .     S
C111   N274    1.361   .     D
C112   C113    1.426   .     S
C112   C117    1.402   .     D
C112   H128    1.144   .     S
C113   C114    1.488   .     D
C113   H129    1.143   .     S
C114   C115    1.450   1_455 S
C114   C322    1.469   1_455 S
C115   C114    1.450   1_655 S
C115   C116    1.433   1_655 D
C115   H121    1.144   .     S
C116   C115    1.433   1_455 D
C116   C117    1.475   .     S
C116   H130    1.142   1_455 S
C117   N274    1.466   .     S
N118   C241    1.361   .     D
N118   C247    1.466   .     S
O119   C120    1.433   1_545 S
O119   C236    1.486   .     S
C120   O119    1.433   1_565 S
C120   H122    1.144   1_565 S
C120   H123    1.144   1_565 S
C120   H124    1.144   .     S
H122   C120    1.144   1_545 S
H123   C120    1.144   1_545 S
H130   C116    1.142   1_655 S
C131   C132    1.454   .     S
C131   C136    1.473   .     D
C131   H151    1.143   .     S
C132   C133    1.431   .     D
C132   O301    1.486   .     S
C133   C134    1.485   .     S
C133   C137    1.508   .     S
C134   C135    1.425   .     D
C134   H152    1.142   .     S
C135   C136    1.390   .     S
C135   C161    1.447   1_545 S
C136   C420    1.483   .     S
C137   H153    1.144   .     S
C137   N300    1.361   .     D
C138   C139    1.426   .     S
C138   C143    1.402   .     D
C138   H154    1.144   .     S
C139   C140    1.488   .     D
C139   H155    1.143   .     S
C140   C141    1.450   .     S
C140   C348    1.469   .     S
C141   C142    1.433   .     D
C141   H147    1.144   .     S
C142   C143    1.475   .     S
C142   H156    1.142   .     S
C143   N300    1.466   .     S
N144   C215    1.361   .     D
N144   C221    1.466   .     S
O145   C146    1.433   .     S
O145   C210    1.486   .     S
C146   H148    1.144   .     S
C146   H149    1.144   .     S
C146   H150    1.144   .     S
C157   C158    1.454   .     S
C157   C162    1.473   .     D
C157   H177    1.143   .     S
C158   C159    1.431   .     D
C158   O223    1.486   .     S
C159   C160    1.485   .     S
C159   C163    1.508   .     S
C160   C161    1.425   .     D
C160   H178    1.142   .     S
C161   C135    1.447   1_565 S
C161   C162    1.390   .     S
C162   C420    1.483   1_565 S
C163   H179    1.144   .     S
C163   N222    1.361   .     D
C164   C165    1.426   .     S
C164   C169    1.402   .     D
C164   H180    1.144   .     S
C165   C166    1.488   .     D
C165   H181    1.143   .     S
C166   C167    1.450   .     S
C166   C374    1.469   .     S
C167   C168    1.433   .     D
C167   H173    1.144   .     S
C168   C169    1.475   .     S
C168   H182    1.142   .     S
C169   N222    1.466   .     S
N170   C293    1.361   .     D
N170   C299    1.466   .     S
O171   C172    1.433   .     S
O171   C288    1.486   .     S
C172   H174    1.144   .     S
C172   H175    1.144   .     S
C172   H176    1.144   .     S
C183   C184    1.454   .     D
C183   C188    1.473   .     S
C183   H203    1.143   .     S
C184   C185    1.431   .     S
C184   O249    1.486   .     S
C185   C186    1.485   .     D
C185   C189    1.508   .     S
C186   C187    1.425   .     S
C186   H204    1.142   .     S
C187   C109    1.447   1_655 S
C187   C188    1.390   .     D
C188   C419    1.483   1_655 S
C189   H205    1.144   .     S
C189   N248    1.361   .     D
C190   C191    1.426   .     D
C190   C195    1.402   .     S
C190   H206    1.144   .     S
C191   C192    1.488   .     S
C191   H207    1.143   .     S
C192   C193    1.450   1_655 D
C192   C400    1.469   1_655 S
C193   C192    1.450   1_455 D
C193   C194    1.433   1_455 S
C193   H199    1.144   .     S
C194   C193    1.433   1_655 S
C194   C195    1.475   .     D
C194   H208    1.142   1_655 S
C195   N248    1.466   .     S
N196   C267    1.361   .     D
N196   C273    1.466   .     S
O197   C198    1.433   1_565 S
O197   C262    1.486   .     S
C198   O197    1.433   1_545 S
C198   H200    1.144   1_545 S
C198   H201    1.144   1_545 S
C198   H202    1.144   .     S
H200   C198    1.144   1_565 S
H201   C198    1.144   1_565 S
H208   C194    1.142   1_455 S
C209   C210    1.454   .     S
C209   C214    1.473   .     D
C209   H229    1.143   .     S
C210   C211    1.431   .     D
C211   C212    1.485   .     S
C211   C215    1.508   .     S
C212   C213    1.425   .     D
C212   H230    1.142   .     S
C213   C214    1.390   .     S
C213   C291    1.447   1_655 S
C214   C419    1.483   1_655 S
C215   H231    1.144   .     S
C216   C217    1.426   .     S
C216   C221    1.402   .     D
C216   H232    1.144   .     S
C217   C218    1.488   .     D
C217   H233    1.143   .     S
C218   C219    1.450   .     S
C219   C220    1.433   .     D
C219   H225    1.144   .     S
C220   C221    1.475   .     S
C220   H234    1.142   .     S
O223   C224    1.433   .     S
C224   H226    1.144   .     S
C224   H227    1.144   .     S
C224   H228    1.144   .     S
C235   C236    1.454   .     S
C235   C240    1.473   .     D
C235   H255    1.143   .     S
C236   C237    1.431   .     D
C237   C238    1.485   .     S
C237   C241    1.508   .     S
C238   C239    1.425   .     D
C238   H256    1.142   .     S
C239   C240    1.390   .     S
C239   C265    1.447   1_545 S
C240   C420    1.483   .     S
C241   H257    1.144   .     S
C242   C243    1.426   .     S
C242   C247    1.402   .     D
C242   H258    1.144   .     S
C243   C244    1.488   .     D
C243   H259    1.143   .     S
C244   C10     1.469   1_545 S
C244   C245    1.450   1_545 S
C245   C244    1.450   1_565 S
C245   C246    1.433   1_565 D
C245   H251    1.144   .     S
C246   C245    1.433   1_545 D
C246   C247    1.475   .     S
C246   H260    1.142   1_545 S
O249   C250    1.433   1_655 S
C250   O249    1.433   1_455 S
C250   H252    1.144   1_455 S
C250   H253    1.144   1_455 S
C250   H254    1.144   .     S
H252   C250    1.144   1_655 S
H253   C250    1.144   1_655 S
H260   C246    1.142   1_565 S
C261   C262    1.454   .     S
C261   C266    1.473   .     D
C261   H281    1.143   .     S
C262   C263    1.431   .     D
C263   C264    1.485   .     S
C263   C267    1.508   .     S
C264   C265    1.425   .     D
C264   H282    1.142   .     S
C265   C239    1.447   1_565 S
C265   C266    1.390   .     S
C266   C420    1.483   1_565 S
C267   H283    1.144   .     S
C268   C269    1.426   .     S
C268   C273    1.402   .     D
C268   H284    1.144   .     S
C269   C270    1.488   .     D
C269   H285    1.143   .     S
C270   C88     1.469   1_565 S
C270   C271    1.450   1_565 S
C271   C270    1.450   1_545 S
C271   C272    1.433   1_545 D
C271   H277    1.144   .     S
C272   C271    1.433   1_565 D
C272   C273    1.475   .     S
C272   H286    1.142   1_565 S
O275   C276    1.433   1_455 S
C276   O275    1.433   1_655 S
C276   H278    1.144   1_655 S
C276   H279    1.144   1_655 S
C276   H280    1.144   .     S
H278   C276    1.144   1_455 S
H279   C276    1.144   1_455 S
H286   C272    1.142   1_545 S
C287   C288    1.454   .     S
C287   C292    1.473   .     D
C287   H307    1.143   .     S
C288   C289    1.431   .     D
C289   C290    1.485   .     S
C289   C293    1.508   .     S
C290   C291    1.425   .     D
C290   H308    1.142   .     S
C291   C213    1.447   1_455 S
C291   C292    1.390   .     S
C292   C419    1.483   .     S
C293   H309    1.144   .     S
C294   C295    1.426   .     S
C294   C299    1.402   .     D
C294   H310    1.144   .     S
C295   C296    1.488   .     D
C295   H311    1.143   .     S
C296   C297    1.450   .     S
C297   C298    1.433   .     D
C297   H303    1.144   .     S
C298   C299    1.475   .     S
C298   H312    1.142   .     S
O301   C302    1.433   .     S
C302   H304    1.144   .     S
C302   H305    1.144   .     S
C302   H306    1.144   .     S
C313   C314    1.454   .     S
C313   C318    1.473   .     D
C313   H333    1.143   1_554 S
C314   C315    1.431   .     D
C315   C316    1.485   .     S
C315   C319    1.508   .     S
C316   C317    1.425   .     D
C316   H334    1.142   .     S
C317   C318    1.390   .     S
C317   C395    1.447   1_665 S
C318   C417    1.483   1_665 S
C319   H335    1.144   .     S
C320   C321    1.426   .     D
C320   C325    1.402   .     S
C320   H336    1.144   .     S
C321   C322    1.488   .     S
C321   H337    1.143   .     S
C322   C114    1.469   1_655 S
C322   C323    1.450   1_655 D
C323   C322    1.450   1_455 D
C323   C324    1.433   1_455 S
C323   H329    1.144   .     S
C324   C323    1.433   1_655 S
C324   C325    1.475   .     D
C324   H338    1.142   1_655 S
O327   C328    1.433   .     S
C328   H330    1.144   .     S
C328   H331    1.144   .     S
C328   H332    1.144   .     S
H333   C313    1.143   1_556 S
H338   C324    1.142   1_455 S
C339   C340    1.454   .     S
C339   C344    1.473   .     D
C339   H359    1.143   .     S
C340   C341    1.431   .     D
C341   C342    1.485   .     S
C341   C345    1.508   .     S
C342   C343    1.425   .     D
C342   H360    1.142   .     S
C343   C344    1.390   .     S
C343   C369    1.447   .     S
C344   C418    1.483   .     S
C345   H361    1.144   .     S
C346   C347    1.426   .     D
C346   C351    1.402   .     S
C346   H362    1.144   .     S
C347   C348    1.488   .     S
C347   H363    1.143   .     S
C348   C349    1.450   .     D
C349   C350    1.433   .     S
C349   H355    1.144   .     S
C350   C351    1.475   .     D
C350   H364    1.142   .     S
O353   C354    1.433   1_565 S
C354   O353    1.433   1_545 S
C354   H356    1.144   1_546 S
C354   H357    1.144   1_546 S
C354   H358    1.144   1_556 S
H356   C354    1.144   1_564 S
H357   C354    1.144   1_564 S
H358   C354    1.144   1_554 S
C365   C366    1.454   .     S
C365   C370    1.473   .     D
C365   H385    1.143   .     S
C366   C367    1.431   .     D
C367   C368    1.485   .     S
C367   C371    1.508   .     S
C368   C369    1.425   .     D
C368   H386    1.142   .     S
C369   C370    1.390   .     S
C370   C418    1.483   .     S
C371   H387    1.144   .     S
C372   C373    1.426   .     D
C372   C377    1.402   .     S
C372   H388    1.144   .     S
C373   C374    1.488   .     S
C373   H389    1.143   .     S
C374   C375    1.450   .     D
C375   C376    1.433   .     S
C375   H381    1.144   .     S
C376   C377    1.475   .     D
C376   H390    1.142   .     S
O379   C380    1.433   1_545 S
C380   O379    1.433   1_565 S
C380   H382    1.144   1_566 S
C380   H383    1.144   1_566 S
C380   H384    1.144   1_556 S
H382   C380    1.144   1_544 S
H383   C380    1.144   1_544 S
H384   C380    1.144   1_554 S
C391   C392    1.454   .     D
C391   C396    1.473   .     S
C391   H411    1.143   1_554 S
C392   C393    1.431   .     S
C393   C394    1.485   .     D
C393   C397    1.508   .     S
C394   C395    1.425   .     S
C394   H412    1.142   .     S
C395   C317    1.447   1_445 S
C395   C396    1.390   .     D
C396   C417    1.483   .     S
C397   H413    1.144   .     S
C398   C399    1.426   .     S
C398   C403    1.402   .     D
C398   H414    1.144   .     S
C399   C400    1.488   .     D
C399   H415    1.143   .     S
C400   C192    1.469   1_455 S
C400   C401    1.450   1_455 S
C401   C400    1.450   1_655 S
C401   C402    1.433   1_655 D
C401   H407    1.144   .     S
C402   C401    1.433   1_455 D
C402   C403    1.475   .     S
C402   H416    1.142   1_455 S
O405   C406    1.433   .     S
C406   H408    1.144   .     S
C406   H409    1.144   .     S
C406   H410    1.144   .     S
H411   C391    1.143   1_556 S
H416   C402    1.142   1_655 S
C417   C318    1.483   1_445 S
C417   C84     1.483   1_454 S
C417   C6      1.483   1_544 S
C419   C188    1.483   1_455 S
C419   C214    1.483   1_455 S
C420   C162    1.483   1_545 S
C420   C266    1.483   1_545 S
