data_281
_audit_creation_date              2023-09-08
_audit_creation_method            'Materials Studio'
_symmetry_space_group_name_H-M    'P1'
_symmetry_Int_Tables_number       1
_symmetry_cell_setting            triclinic
loop_
_symmetry_equiv_pos_as_xyz
  x,y,z
_cell_length_a                    26.6896
_cell_length_b                    26.6896
_cell_length_c                    24.9789
_cell_angle_alpha                 90.0000
_cell_angle_beta                  90.0000
_cell_angle_gamma                 90.0000
loop_
_atom_site_label
_atom_site_type_symbol
_atom_site_fract_x
_atom_site_fract_y
_atom_site_fract_z
_atom_site_U_iso_or_equiv
_atom_site_adp_type
_atom_site_occupancy
C1     C     0.50000   0.59472   0.47351   0.00000  Uiso   1.00
C2     C     0.50000   0.62971   0.43087   0.00000  Uiso   1.00
C3     C     0.50000   0.61205   0.37729   0.00000  Uiso   1.00
C4     C     0.50000   0.56024   0.36657   0.00000  Uiso   1.00
C5     C     0.50000   0.52711   0.40950   0.00000  Uiso   1.00
C6     C     0.50000   0.54364   0.46182   0.00000  Uiso   1.00
N7     N     0.50000   0.63313   0.28328   0.00000  Uiso   1.00
C8     C     0.50000   0.64802   0.33269   0.00000  Uiso   1.00
C9     C     0.50000   0.71871   0.24544   0.00000  Uiso   1.00
C10    C     0.50000   0.75018   0.20091   0.00000  Uiso   1.00
C11    C     0.50000   0.73164   0.14820   0.00000  Uiso   1.00
C12    C     0.50000   0.67834   0.14201   0.00000  Uiso   1.00
C13    C     0.50000   0.64712   0.18700   0.00000  Uiso   1.00
C14    C     0.50000   0.66676   0.23863   0.00000  Uiso   1.00
O15    O     0.50000   0.68178   0.43991   0.00000  Uiso   1.00
C16    C     0.50000   0.69703   0.49454   0.00000  Uiso   1.00
C17    C     0.50000   0.65203   0.08933   0.00000  Uiso   1.00
H18    H     0.52014   0.73452   0.49847   0.00000  Uiso   1.00
H19    H     0.52014   0.66768   0.51977   0.00000  Uiso   1.00
H20    H     0.45973   0.70110   0.50912   0.00000  Uiso   1.00
H21    H     0.52013   0.61456   0.09346   0.00000  Uiso   1.00
H22    H     0.52013   0.67609   0.05837   0.00000  Uiso   1.00
H23    H     0.45973   0.64533   0.07591   0.00000  Uiso   1.00
H24    H     0.50000   0.60845   0.51672   0.00000  Uiso   1.00
H25    H     0.50000   0.54631   0.32343   0.00000  Uiso   1.00
H26    H     0.50000   0.68998   0.34121   0.00000  Uiso   1.00
H27    H     0.50000   0.73537   0.28747   0.00000  Uiso   1.00
H28    H     0.50000   0.79257   0.20651   0.00000  Uiso   1.00
H29    H     0.50000   0.60468   0.18179   0.00000  Uiso   1.00
C30    C     0.00000   0.09472   0.97351   0.00000  Uiso   1.00
C31    C     0.00000   0.12971   0.93087   0.00000  Uiso   1.00
C32    C     0.00000   0.11205   0.87729   0.00000  Uiso   1.00
C33    C     0.00000   0.06024   0.86657   0.00000  Uiso   1.00
C34    C     0.00000   0.02711   0.90950   0.00000  Uiso   1.00
C35    C     0.00000   0.04364   0.96182   0.00000  Uiso   1.00
N36    N     0.00000   0.13313   0.78328   0.00000  Uiso   1.00
C37    C     0.00000   0.14802   0.83269   0.00000  Uiso   1.00
C38    C     0.00000   0.21871   0.74544   0.00000  Uiso   1.00
C39    C     0.00000   0.25018   0.70091   0.00000  Uiso   1.00
C40    C     0.00000   0.23164   0.64820   0.00000  Uiso   1.00
C41    C     0.00000   0.17834   0.64201   0.00000  Uiso   1.00
C42    C     0.00000   0.14712   0.68700   0.00000  Uiso   1.00
C43    C     0.00000   0.16676   0.73863   0.00000  Uiso   1.00
O44    O     0.00000   0.18178   0.93991   0.00000  Uiso   1.00
C45    C     0.00000   0.19703   0.99454   0.00000  Uiso   1.00
C46    C     0.00000   0.15203   0.58933   0.00000  Uiso   1.00
H47    H     0.02014   0.23452   0.99847   0.00000  Uiso   1.00
H48    H     0.02014   0.16768   0.01977   0.00000  Uiso   1.00
H49    H     0.95973   0.20110   0.00912   0.00000  Uiso   1.00
H50    H     0.02013   0.11456   0.59346   0.00000  Uiso   1.00
H51    H     0.02013   0.17609   0.55837   0.00000  Uiso   1.00
H52    H     0.95973   0.14533   0.57591   0.00000  Uiso   1.00
H53    H     0.00000   0.10845   0.01672   0.00000  Uiso   1.00
H54    H     0.00000   0.04631   0.82343   0.00000  Uiso   1.00
H55    H     0.00000   0.18998   0.84121   0.00000  Uiso   1.00
H56    H     0.00000   0.23537   0.78747   0.00000  Uiso   1.00
H57    H     0.00000   0.29257   0.70651   0.00000  Uiso   1.00
H58    H     0.00000   0.10468   0.68179   0.00000  Uiso   1.00
C59    C     0.00000   0.90528   0.97351   0.00000  Uiso   1.00
C60    C     0.00000   0.87029   0.93087   0.00000  Uiso   1.00
C61    C     0.00000   0.88795   0.87729   0.00000  Uiso   1.00
C62    C     0.00000   0.93976   0.86657   0.00000  Uiso   1.00
C63    C     0.00000   0.97289   0.90950   0.00000  Uiso   1.00
C64    C     0.00000   0.95636   0.96182   0.00000  Uiso   1.00
N65    N     0.00000   0.86687   0.78328   0.00000  Uiso   1.00
C66    C     0.00000   0.85198   0.83269   0.00000  Uiso   1.00
C67    C     0.00000   0.78129   0.74544   0.00000  Uiso   1.00
C68    C     0.00000   0.74982   0.70091   0.00000  Uiso   1.00
C69    C     0.00000   0.76836   0.64820   0.00000  Uiso   1.00
C70    C     0.00000   0.82166   0.64201   0.00000  Uiso   1.00
C71    C     0.00000   0.85288   0.68700   0.00000  Uiso   1.00
C72    C     0.00000   0.83324   0.73863   0.00000  Uiso   1.00
O73    O     0.00000   0.81822   0.93991   0.00000  Uiso   1.00
C74    C     0.00000   0.80297   0.99454   0.00000  Uiso   1.00
C75    C     0.00000   0.84797   0.58933   0.00000  Uiso   1.00
H76    H     0.97986   0.76548   0.99847   0.00000  Uiso   1.00
H77    H     0.97986   0.83232   0.01977   0.00000  Uiso   1.00
H78    H     0.04027   0.79890   0.00912   0.00000  Uiso   1.00
H79    H     0.97987   0.88544   0.59346   0.00000  Uiso   1.00
H80    H     0.97987   0.82391   0.55837   0.00000  Uiso   1.00
H81    H     0.04027   0.85467   0.57591   0.00000  Uiso   1.00
H82    H     0.00000   0.89155   0.01672   0.00000  Uiso   1.00
H83    H     0.00000   0.95369   0.82343   0.00000  Uiso   1.00
H84    H     0.00000   0.81002   0.84121   0.00000  Uiso   1.00
H85    H     0.00000   0.76463   0.78747   0.00000  Uiso   1.00
H86    H     0.00000   0.70743   0.70651   0.00000  Uiso   1.00
H87    H     0.00000   0.89532   0.68179   0.00000  Uiso   1.00
C88    C     0.50000   0.40528   0.47351   0.00000  Uiso   1.00
C89    C     0.50000   0.37029   0.43087   0.00000  Uiso   1.00
C90    C     0.50000   0.38795   0.37729   0.00000  Uiso   1.00
C91    C     0.50000   0.43976   0.36657   0.00000  Uiso   1.00
C92    C     0.50000   0.47289   0.40950   0.00000  Uiso   1.00
C93    C     0.50000   0.45636   0.46182   0.00000  Uiso   1.00
N94    N     0.50000   0.36687   0.28328   0.00000  Uiso   1.00
C95    C     0.50000   0.35198   0.33269   0.00000  Uiso   1.00
C96    C     0.50000   0.28129   0.24544   0.00000  Uiso   1.00
C97    C     0.50000   0.24982   0.20091   0.00000  Uiso   1.00
C98    C     0.50000   0.26836   0.14820   0.00000  Uiso   1.00
C99    C     0.50000   0.32166   0.14201   0.00000  Uiso   1.00
C100   C     0.50000   0.35288   0.18700   0.00000  Uiso   1.00
C101   C     0.50000   0.33324   0.23863   0.00000  Uiso   1.00
O102   O     0.50000   0.31822   0.43991   0.00000  Uiso   1.00
C103   C     0.50000   0.30297   0.49454   0.00000  Uiso   1.00
C104   C     0.50000   0.34797   0.08933   0.00000  Uiso   1.00
H105   H     0.47986   0.26548   0.49847   0.00000  Uiso   1.00
H106   H     0.47986   0.33232   0.51977   0.00000  Uiso   1.00
H107   H     0.54027   0.29890   0.50912   0.00000  Uiso   1.00
H108   H     0.47987   0.38544   0.09346   0.00000  Uiso   1.00
H109   H     0.47987   0.32391   0.05837   0.00000  Uiso   1.00
H110   H     0.54027   0.35467   0.07591   0.00000  Uiso   1.00
H111   H     0.50000   0.39155   0.51672   0.00000  Uiso   1.00
H112   H     0.50000   0.45369   0.32343   0.00000  Uiso   1.00
H113   H     0.50000   0.31002   0.34121   0.00000  Uiso   1.00
H114   H     0.50000   0.26463   0.28747   0.00000  Uiso   1.00
H115   H     0.50000   0.20743   0.20651   0.00000  Uiso   1.00
H116   H     0.50000   0.39532   0.18179   0.00000  Uiso   1.00
C117   C     0.40528   0.00000   0.72351   0.00000  Uiso   1.00
C118   C     0.37029   0.00000   0.68087   0.00000  Uiso   1.00
C119   C     0.38795   0.00000   0.62729   0.00000  Uiso   1.00
C120   C     0.43976   0.00000   0.61657   0.00000  Uiso   1.00
C121   C     0.47289   0.00000   0.65950   0.00000  Uiso   1.00
C122   C     0.45636   0.00000   0.71182   0.00000  Uiso   1.00
N123   N     0.36687   0.00000   0.53328   0.00000  Uiso   1.00
C124   C     0.35198   0.00000   0.58269   0.00000  Uiso   1.00
C125   C     0.28129   0.00000   0.49544   0.00000  Uiso   1.00
C126   C     0.24982   0.00000   0.45091   0.00000  Uiso   1.00
C127   C     0.26836   0.00000   0.39820   0.00000  Uiso   1.00
C128   C     0.32166   0.00000   0.39201   0.00000  Uiso   1.00
C129   C     0.35288   0.00000   0.43700   0.00000  Uiso   1.00
C130   C     0.33324   0.00000   0.48863   0.00000  Uiso   1.00
O131   O     0.31822   0.00000   0.68991   0.00000  Uiso   1.00
C132   C     0.30297   0.00000   0.74454   0.00000  Uiso   1.00
C133   C     0.34797   0.00000   0.33933   0.00000  Uiso   1.00
H134   H     0.26548   0.02014   0.74847   0.00000  Uiso   1.00
H135   H     0.33232   0.02014   0.76977   0.00000  Uiso   1.00
H136   H     0.29890   0.95973   0.75912   0.00000  Uiso   1.00
H137   H     0.38544   0.02013   0.34346   0.00000  Uiso   1.00
H138   H     0.32391   0.02013   0.30837   0.00000  Uiso   1.00
H139   H     0.35467   0.95973   0.32591   0.00000  Uiso   1.00
H140   H     0.39155   0.00000   0.76672   0.00000  Uiso   1.00
H141   H     0.45369   0.00000   0.57343   0.00000  Uiso   1.00
H142   H     0.31002   0.00000   0.59121   0.00000  Uiso   1.00
H143   H     0.26463   0.00000   0.53747   0.00000  Uiso   1.00
H144   H     0.20743   0.00000   0.45651   0.00000  Uiso   1.00
H145   H     0.39532   0.00000   0.43179   0.00000  Uiso   1.00
C146   C     0.90528   0.50000   0.22351   0.00000  Uiso   1.00
C147   C     0.87029   0.50000   0.18087   0.00000  Uiso   1.00
C148   C     0.88795   0.50000   0.12729   0.00000  Uiso   1.00
C149   C     0.93976   0.50000   0.11657   0.00000  Uiso   1.00
C150   C     0.97289   0.50000   0.15950   0.00000  Uiso   1.00
C151   C     0.95636   0.50000   0.21182   0.00000  Uiso   1.00
N152   N     0.86687   0.50000   0.03328   0.00000  Uiso   1.00
C153   C     0.85198   0.50000   0.08269   0.00000  Uiso   1.00
C154   C     0.78129   0.50000   0.99544   0.00000  Uiso   1.00
C155   C     0.74982   0.50000   0.95091   0.00000  Uiso   1.00
C156   C     0.76836   0.50000   0.89820   0.00000  Uiso   1.00
C157   C     0.82166   0.50000   0.89201   0.00000  Uiso   1.00
C158   C     0.85288   0.50000   0.93700   0.00000  Uiso   1.00
C159   C     0.83324   0.50000   0.98863   0.00000  Uiso   1.00
O160   O     0.81822   0.50000   0.18991   0.00000  Uiso   1.00
C161   C     0.80297   0.50000   0.24454   0.00000  Uiso   1.00
C162   C     0.84797   0.50000   0.83933   0.00000  Uiso   1.00
H163   H     0.76548   0.52014   0.24847   0.00000  Uiso   1.00
H164   H     0.83232   0.52014   0.26977   0.00000  Uiso   1.00
H165   H     0.79890   0.45973   0.25912   0.00000  Uiso   1.00
H166   H     0.88544   0.52013   0.84346   0.00000  Uiso   1.00
H167   H     0.82391   0.52013   0.80837   0.00000  Uiso   1.00
H168   H     0.85467   0.45973   0.82591   0.00000  Uiso   1.00
H169   H     0.89155   0.50000   0.26672   0.00000  Uiso   1.00
H170   H     0.95369   0.50000   0.07343   0.00000  Uiso   1.00
H171   H     0.81002   0.50000   0.09121   0.00000  Uiso   1.00
H172   H     0.76463   0.50000   0.03747   0.00000  Uiso   1.00
H173   H     0.70743   0.50000   0.95651   0.00000  Uiso   1.00
H174   H     0.89532   0.50000   0.93179   0.00000  Uiso   1.00
C175   C     0.09472   0.50000   0.22351   0.00000  Uiso   1.00
C176   C     0.12971   0.50000   0.18087   0.00000  Uiso   1.00
C177   C     0.11205   0.50000   0.12729   0.00000  Uiso   1.00
C178   C     0.06024   0.50000   0.11657   0.00000  Uiso   1.00
C179   C     0.02711   0.50000   0.15950   0.00000  Uiso   1.00
C180   C     0.04364   0.50000   0.21182   0.00000  Uiso   1.00
N181   N     0.13313   0.50000   0.03328   0.00000  Uiso   1.00
C182   C     0.14802   0.50000   0.08269   0.00000  Uiso   1.00
C183   C     0.21871   0.50000   0.99544   0.00000  Uiso   1.00
C184   C     0.25018   0.50000   0.95091   0.00000  Uiso   1.00
C185   C     0.23164   0.50000   0.89820   0.00000  Uiso   1.00
C186   C     0.17834   0.50000   0.89201   0.00000  Uiso   1.00
C187   C     0.14712   0.50000   0.93700   0.00000  Uiso   1.00
C188   C     0.16676   0.50000   0.98863   0.00000  Uiso   1.00
O189   O     0.18178   0.50000   0.18991   0.00000  Uiso   1.00
C190   C     0.19703   0.50000   0.24454   0.00000  Uiso   1.00
C191   C     0.15203   0.50000   0.83933   0.00000  Uiso   1.00
H192   H     0.23452   0.47986   0.24847   0.00000  Uiso   1.00
H193   H     0.16768   0.47986   0.26977   0.00000  Uiso   1.00
H194   H     0.20110   0.54027   0.25912   0.00000  Uiso   1.00
H195   H     0.11456   0.47987   0.84346   0.00000  Uiso   1.00
H196   H     0.17609   0.47987   0.80837   0.00000  Uiso   1.00
H197   H     0.14533   0.54027   0.82591   0.00000  Uiso   1.00
H198   H     0.10845   0.50000   0.26672   0.00000  Uiso   1.00
H199   H     0.04631   0.50000   0.07343   0.00000  Uiso   1.00
H200   H     0.18998   0.50000   0.09121   0.00000  Uiso   1.00
H201   H     0.23537   0.50000   0.03747   0.00000  Uiso   1.00
H202   H     0.29257   0.50000   0.95651   0.00000  Uiso   1.00
H203   H     0.10468   0.50000   0.93179   0.00000  Uiso   1.00
C204   C     0.59472   0.00000   0.72351   0.00000  Uiso   1.00
C205   C     0.62971   0.00000   0.68087   0.00000  Uiso   1.00
C206   C     0.61205   0.00000   0.62729   0.00000  Uiso   1.00
C207   C     0.56024   0.00000   0.61657   0.00000  Uiso   1.00
C208   C     0.52711   0.00000   0.65950   0.00000  Uiso   1.00
C209   C     0.54364   0.00000   0.71182   0.00000  Uiso   1.00
N210   N     0.63313   0.00000   0.53328   0.00000  Uiso   1.00
C211   C     0.64802   0.00000   0.58269   0.00000  Uiso   1.00
C212   C     0.71871   0.00000   0.49544   0.00000  Uiso   1.00
C213   C     0.75018   0.00000   0.45091   0.00000  Uiso   1.00
C214   C     0.73164   0.00000   0.39820   0.00000  Uiso   1.00
C215   C     0.67834   0.00000   0.39201   0.00000  Uiso   1.00
C216   C     0.64712   0.00000   0.43700   0.00000  Uiso   1.00
C217   C     0.66676   0.00000   0.48863   0.00000  Uiso   1.00
O218   O     0.68178   0.00000   0.68991   0.00000  Uiso   1.00
C219   C     0.69703   0.00000   0.74454   0.00000  Uiso   1.00
C220   C     0.65203   0.00000   0.33933   0.00000  Uiso   1.00
H221   H     0.73452   0.97986   0.74847   0.00000  Uiso   1.00
H222   H     0.66768   0.97986   0.76977   0.00000  Uiso   1.00
H223   H     0.70110   0.04027   0.75912   0.00000  Uiso   1.00
H224   H     0.61456   0.97987   0.34346   0.00000  Uiso   1.00
H225   H     0.67609   0.97987   0.30837   0.00000  Uiso   1.00
H226   H     0.64533   0.04027   0.32591   0.00000  Uiso   1.00
H227   H     0.60845   0.00000   0.76672   0.00000  Uiso   1.00
H228   H     0.54631   0.00000   0.57343   0.00000  Uiso   1.00
H229   H     0.68998   0.00000   0.59121   0.00000  Uiso   1.00
H230   H     0.73537   0.00000   0.53747   0.00000  Uiso   1.00
H231   H     0.79257   0.00000   0.45651   0.00000  Uiso   1.00
H232   H     0.60468   0.00000   0.43179   0.00000  Uiso   1.00
C233   C     0.50000   0.90528   0.77649   0.00000  Uiso   1.00
C234   C     0.50000   0.87029   0.81913   0.00000  Uiso   1.00
C235   C     0.50000   0.88795   0.87271   0.00000  Uiso   1.00
C236   C     0.50000   0.93976   0.88343   0.00000  Uiso   1.00
C237   C     0.50000   0.97289   0.84050   0.00000  Uiso   1.00
C238   C     0.50000   0.95636   0.78818   0.00000  Uiso   1.00
N239   N     0.50000   0.86687   0.96672   0.00000  Uiso   1.00
C240   C     0.50000   0.85198   0.91731   0.00000  Uiso   1.00
C241   C     0.50000   0.78129   0.00456   0.00000  Uiso   1.00
C242   C     0.50000   0.74982   0.04909   0.00000  Uiso   1.00
C243   C     0.50000   0.76836   0.10180   0.00000  Uiso   1.00
C244   C     0.50000   0.82166   0.10799   0.00000  Uiso   1.00
C245   C     0.50000   0.85288   0.06300   0.00000  Uiso   1.00
C246   C     0.50000   0.83324   0.01137   0.00000  Uiso   1.00
O247   O     0.50000   0.81822   0.81009   0.00000  Uiso   1.00
C248   C     0.50000   0.80297   0.75546   0.00000  Uiso   1.00
C249   C     0.50000   0.84797   0.16067   0.00000  Uiso   1.00
H250   H     0.47986   0.76548   0.75153   0.00000  Uiso   1.00
H251   H     0.47986   0.83232   0.73023   0.00000  Uiso   1.00
H252   H     0.54027   0.79890   0.74088   0.00000  Uiso   1.00
H253   H     0.47987   0.88544   0.15654   0.00000  Uiso   1.00
H254   H     0.47987   0.82391   0.19163   0.00000  Uiso   1.00
H255   H     0.54027   0.85467   0.17409   0.00000  Uiso   1.00
H256   H     0.50000   0.89155   0.73328   0.00000  Uiso   1.00
H257   H     0.50000   0.95369   0.92657   0.00000  Uiso   1.00
H258   H     0.50000   0.81002   0.90879   0.00000  Uiso   1.00
H259   H     0.50000   0.76463   0.96253   0.00000  Uiso   1.00
H260   H     0.50000   0.70743   0.04349   0.00000  Uiso   1.00
H261   H     0.50000   0.89532   0.06821   0.00000  Uiso   1.00
C262   C     0.00000   0.40528   0.27649   0.00000  Uiso   1.00
C263   C     0.00000   0.37029   0.31913   0.00000  Uiso   1.00
C264   C     0.00000   0.38795   0.37271   0.00000  Uiso   1.00
C265   C     0.00000   0.43976   0.38343   0.00000  Uiso   1.00
C266   C     0.00000   0.47289   0.34050   0.00000  Uiso   1.00
C267   C     0.00000   0.45636   0.28818   0.00000  Uiso   1.00
N268   N     0.00000   0.36687   0.46672   0.00000  Uiso   1.00
C269   C     0.00000   0.35198   0.41731   0.00000  Uiso   1.00
C270   C     0.00000   0.28129   0.50456   0.00000  Uiso   1.00
C271   C     0.00000   0.24982   0.54909   0.00000  Uiso   1.00
C272   C     0.00000   0.26836   0.60180   0.00000  Uiso   1.00
C273   C     0.00000   0.32166   0.60799   0.00000  Uiso   1.00
C274   C     0.00000   0.35288   0.56300   0.00000  Uiso   1.00
C275   C     0.00000   0.33324   0.51137   0.00000  Uiso   1.00
O276   O     0.00000   0.31822   0.31009   0.00000  Uiso   1.00
C277   C     0.00000   0.30297   0.25546   0.00000  Uiso   1.00
C278   C     0.00000   0.34797   0.66067   0.00000  Uiso   1.00
H279   H     0.97986   0.26548   0.25153   0.00000  Uiso   1.00
H280   H     0.97986   0.33232   0.23023   0.00000  Uiso   1.00
H281   H     0.04027   0.29890   0.24088   0.00000  Uiso   1.00
H282   H     0.97987   0.38544   0.65654   0.00000  Uiso   1.00
H283   H     0.97987   0.32391   0.69163   0.00000  Uiso   1.00
H284   H     0.04027   0.35467   0.67409   0.00000  Uiso   1.00
H285   H     0.00000   0.39155   0.23328   0.00000  Uiso   1.00
H286   H     0.00000   0.45369   0.42657   0.00000  Uiso   1.00
H287   H     0.00000   0.31002   0.40879   0.00000  Uiso   1.00
H288   H     0.00000   0.26463   0.46253   0.00000  Uiso   1.00
H289   H     0.00000   0.20743   0.54349   0.00000  Uiso   1.00
H290   H     0.00000   0.39532   0.56821   0.00000  Uiso   1.00
C291   C     0.00000   0.59472   0.27649   0.00000  Uiso   1.00
C292   C     0.00000   0.62971   0.31913   0.00000  Uiso   1.00
C293   C     0.00000   0.61205   0.37271   0.00000  Uiso   1.00
C294   C     0.00000   0.56024   0.38343   0.00000  Uiso   1.00
C295   C     0.00000   0.52711   0.34050   0.00000  Uiso   1.00
C296   C     0.00000   0.54364   0.28818   0.00000  Uiso   1.00
N297   N     0.00000   0.63313   0.46672   0.00000  Uiso   1.00
C298   C     0.00000   0.64802   0.41731   0.00000  Uiso   1.00
C299   C     0.00000   0.71871   0.50456   0.00000  Uiso   1.00
C300   C     0.00000   0.75018   0.54909   0.00000  Uiso   1.00
C301   C     0.00000   0.73164   0.60180   0.00000  Uiso   1.00
C302   C     0.00000   0.67834   0.60799   0.00000  Uiso   1.00
C303   C     0.00000   0.64712   0.56300   0.00000  Uiso   1.00
C304   C     0.00000   0.66676   0.51137   0.00000  Uiso   1.00
O305   O     0.00000   0.68178   0.31009   0.00000  Uiso   1.00
C306   C     0.00000   0.69703   0.25546   0.00000  Uiso   1.00
C307   C     0.00000   0.65203   0.66067   0.00000  Uiso   1.00
H308   H     0.02014   0.73452   0.25153   0.00000  Uiso   1.00
H309   H     0.02014   0.66768   0.23023   0.00000  Uiso   1.00
H310   H     0.95973   0.70110   0.24088   0.00000  Uiso   1.00
H311   H     0.02013   0.61456   0.65654   0.00000  Uiso   1.00
H312   H     0.02013   0.67609   0.69163   0.00000  Uiso   1.00
H313   H     0.95973   0.64533   0.67409   0.00000  Uiso   1.00
H314   H     0.00000   0.60845   0.23328   0.00000  Uiso   1.00
H315   H     0.00000   0.54631   0.42657   0.00000  Uiso   1.00
H316   H     0.00000   0.68998   0.40879   0.00000  Uiso   1.00
H317   H     0.00000   0.73537   0.46253   0.00000  Uiso   1.00
H318   H     0.00000   0.79257   0.54349   0.00000  Uiso   1.00
H319   H     0.00000   0.60468   0.56821   0.00000  Uiso   1.00
C320   C     0.50000   0.09472   0.77649   0.00000  Uiso   1.00
C321   C     0.50000   0.12971   0.81913   0.00000  Uiso   1.00
C322   C     0.50000   0.11205   0.87271   0.00000  Uiso   1.00
C323   C     0.50000   0.06024   0.88343   0.00000  Uiso   1.00
C324   C     0.50000   0.02711   0.84050   0.00000  Uiso   1.00
C325   C     0.50000   0.04364   0.78818   0.00000  Uiso   1.00
N326   N     0.50000   0.13313   0.96672   0.00000  Uiso   1.00
C327   C     0.50000   0.14802   0.91731   0.00000  Uiso   1.00
C328   C     0.50000   0.21871   0.00456   0.00000  Uiso   1.00
C329   C     0.50000   0.25018   0.04909   0.00000  Uiso   1.00
C330   C     0.50000   0.23164   0.10180   0.00000  Uiso   1.00
C331   C     0.50000   0.17834   0.10799   0.00000  Uiso   1.00
C332   C     0.50000   0.14712   0.06300   0.00000  Uiso   1.00
C333   C     0.50000   0.16676   0.01137   0.00000  Uiso   1.00
O334   O     0.50000   0.18178   0.81009   0.00000  Uiso   1.00
C335   C     0.50000   0.19703   0.75546   0.00000  Uiso   1.00
C336   C     0.50000   0.15203   0.16067   0.00000  Uiso   1.00
H337   H     0.52014   0.23452   0.75153   0.00000  Uiso   1.00
H338   H     0.52014   0.16768   0.73023   0.00000  Uiso   1.00
H339   H     0.45973   0.20110   0.74088   0.00000  Uiso   1.00
H340   H     0.52013   0.11456   0.15654   0.00000  Uiso   1.00
H341   H     0.52013   0.17609   0.19163   0.00000  Uiso   1.00
H342   H     0.45973   0.14533   0.17409   0.00000  Uiso   1.00
H343   H     0.50000   0.10845   0.73328   0.00000  Uiso   1.00
H344   H     0.50000   0.04631   0.92657   0.00000  Uiso   1.00
H345   H     0.50000   0.18998   0.90879   0.00000  Uiso   1.00
H346   H     0.50000   0.23537   0.96253   0.00000  Uiso   1.00
H347   H     0.50000   0.29257   0.04349   0.00000  Uiso   1.00
H348   H     0.50000   0.10468   0.06821   0.00000  Uiso   1.00
C349   C     0.59472   0.50000   0.52649   0.00000  Uiso   1.00
C350   C     0.62971   0.50000   0.56913   0.00000  Uiso   1.00
C351   C     0.61205   0.50000   0.62271   0.00000  Uiso   1.00
C352   C     0.56024   0.50000   0.63343   0.00000  Uiso   1.00
C353   C     0.52711   0.50000   0.59050   0.00000  Uiso   1.00
C354   C     0.54364   0.50000   0.53818   0.00000  Uiso   1.00
N355   N     0.63313   0.50000   0.71672   0.00000  Uiso   1.00
C356   C     0.64802   0.50000   0.66731   0.00000  Uiso   1.00
C357   C     0.71871   0.50000   0.75456   0.00000  Uiso   1.00
C358   C     0.75018   0.50000   0.79909   0.00000  Uiso   1.00
C359   C     0.73164   0.50000   0.85180   0.00000  Uiso   1.00
C360   C     0.67834   0.50000   0.85799   0.00000  Uiso   1.00
C361   C     0.64712   0.50000   0.81300   0.00000  Uiso   1.00
C362   C     0.66676   0.50000   0.76137   0.00000  Uiso   1.00
O363   O     0.68178   0.50000   0.56009   0.00000  Uiso   1.00
C364   C     0.69703   0.50000   0.50546   0.00000  Uiso   1.00
C365   C     0.65203   0.50000   0.91067   0.00000  Uiso   1.00
H366   H     0.73452   0.47986   0.50153   0.00000  Uiso   1.00
H367   H     0.66768   0.47986   0.48023   0.00000  Uiso   1.00
H368   H     0.70110   0.54027   0.49088   0.00000  Uiso   1.00
H369   H     0.61456   0.47987   0.90654   0.00000  Uiso   1.00
H370   H     0.67609   0.47987   0.94163   0.00000  Uiso   1.00
H371   H     0.64533   0.54027   0.92409   0.00000  Uiso   1.00
H372   H     0.60845   0.50000   0.48328   0.00000  Uiso   1.00
H373   H     0.54631   0.50000   0.67657   0.00000  Uiso   1.00
H374   H     0.68998   0.50000   0.65879   0.00000  Uiso   1.00
H375   H     0.73537   0.50000   0.71253   0.00000  Uiso   1.00
H376   H     0.79257   0.50000   0.79349   0.00000  Uiso   1.00
H377   H     0.60468   0.50000   0.81821   0.00000  Uiso   1.00
C378   C     0.09472   0.00000   0.02649   0.00000  Uiso   1.00
C379   C     0.12971   0.00000   0.06913   0.00000  Uiso   1.00
C380   C     0.11205   0.00000   0.12271   0.00000  Uiso   1.00
C381   C     0.06024   0.00000   0.13343   0.00000  Uiso   1.00
C382   C     0.02711   0.00000   0.09050   0.00000  Uiso   1.00
C383   C     0.04364   0.00000   0.03818   0.00000  Uiso   1.00
N384   N     0.13313   0.00000   0.21672   0.00000  Uiso   1.00
C385   C     0.14802   0.00000   0.16731   0.00000  Uiso   1.00
C386   C     0.21871   0.00000   0.25456   0.00000  Uiso   1.00
C387   C     0.25018   0.00000   0.29909   0.00000  Uiso   1.00
C388   C     0.23164   0.00000   0.35180   0.00000  Uiso   1.00
C389   C     0.17834   0.00000   0.35799   0.00000  Uiso   1.00
C390   C     0.14712   0.00000   0.31300   0.00000  Uiso   1.00
C391   C     0.16676   0.00000   0.26137   0.00000  Uiso   1.00
O392   O     0.18178   0.00000   0.06009   0.00000  Uiso   1.00
C393   C     0.19703   0.00000   0.00546   0.00000  Uiso   1.00
C394   C     0.15203   0.00000   0.41067   0.00000  Uiso   1.00
H395   H     0.23452   0.97986   0.00153   0.00000  Uiso   1.00
H396   H     0.16768   0.97986   0.98023   0.00000  Uiso   1.00
H397   H     0.20110   0.04027   0.99088   0.00000  Uiso   1.00
H398   H     0.11456   0.97987   0.40654   0.00000  Uiso   1.00
H399   H     0.17609   0.97987   0.44163   0.00000  Uiso   1.00
H400   H     0.14533   0.04027   0.42409   0.00000  Uiso   1.00
H401   H     0.10845   0.00000   0.98328   0.00000  Uiso   1.00
H402   H     0.04631   0.00000   0.17657   0.00000  Uiso   1.00
H403   H     0.18998   0.00000   0.15879   0.00000  Uiso   1.00
H404   H     0.23537   0.00000   0.21253   0.00000  Uiso   1.00
H405   H     0.29257   0.00000   0.29349   0.00000  Uiso   1.00
H406   H     0.10468   0.00000   0.31821   0.00000  Uiso   1.00
C407   C     0.90528   0.00000   0.02649   0.00000  Uiso   1.00
C408   C     0.87029   0.00000   0.06913   0.00000  Uiso   1.00
C409   C     0.88795   0.00000   0.12271   0.00000  Uiso   1.00
C410   C     0.93976   0.00000   0.13343   0.00000  Uiso   1.00
C411   C     0.97289   0.00000   0.09050   0.00000  Uiso   1.00
C412   C     0.95636   0.00000   0.03818   0.00000  Uiso   1.00
N413   N     0.86687   0.00000   0.21672   0.00000  Uiso   1.00
C414   C     0.85198   0.00000   0.16731   0.00000  Uiso   1.00
C415   C     0.78129   0.00000   0.25456   0.00000  Uiso   1.00
C416   C     0.74982   0.00000   0.29909   0.00000  Uiso   1.00
C417   C     0.76836   0.00000   0.35180   0.00000  Uiso   1.00
C418   C     0.82166   0.00000   0.35799   0.00000  Uiso   1.00
C419   C     0.85288   0.00000   0.31300   0.00000  Uiso   1.00
C420   C     0.83324   0.00000   0.26137   0.00000  Uiso   1.00
O421   O     0.81822   0.00000   0.06009   0.00000  Uiso   1.00
C422   C     0.80297   0.00000   0.00546   0.00000  Uiso   1.00
C423   C     0.84797   0.00000   0.41067   0.00000  Uiso   1.00
H424   H     0.76548   0.02014   0.00153   0.00000  Uiso   1.00
H425   H     0.83232   0.02014   0.98023   0.00000  Uiso   1.00
H426   H     0.79890   0.95973   0.99088   0.00000  Uiso   1.00
H427   H     0.88544   0.02013   0.40654   0.00000  Uiso   1.00
H428   H     0.82391   0.02013   0.44163   0.00000  Uiso   1.00
H429   H     0.85467   0.95973   0.42409   0.00000  Uiso   1.00
H430   H     0.89155   0.00000   0.98328   0.00000  Uiso   1.00
H431   H     0.95369   0.00000   0.17657   0.00000  Uiso   1.00
H432   H     0.81002   0.00000   0.15879   0.00000  Uiso   1.00
H433   H     0.76463   0.00000   0.21253   0.00000  Uiso   1.00
H434   H     0.70743   0.00000   0.29349   0.00000  Uiso   1.00
H435   H     0.89532   0.00000   0.31821   0.00000  Uiso   1.00
C436   C     0.40528   0.50000   0.52649   0.00000  Uiso   1.00
C437   C     0.37029   0.50000   0.56913   0.00000  Uiso   1.00
C438   C     0.38795   0.50000   0.62271   0.00000  Uiso   1.00
C439   C     0.43976   0.50000   0.63343   0.00000  Uiso   1.00
C440   C     0.47289   0.50000   0.59050   0.00000  Uiso   1.00
C441   C     0.45636   0.50000   0.53818   0.00000  Uiso   1.00
N442   N     0.36687   0.50000   0.71672   0.00000  Uiso   1.00
C443   C     0.35198   0.50000   0.66731   0.00000  Uiso   1.00
C444   C     0.28129   0.50000   0.75456   0.00000  Uiso   1.00
C445   C     0.24982   0.50000   0.79909   0.00000  Uiso   1.00
C446   C     0.26836   0.50000   0.85180   0.00000  Uiso   1.00
C447   C     0.32166   0.50000   0.85799   0.00000  Uiso   1.00
C448   C     0.35288   0.50000   0.81300   0.00000  Uiso   1.00
C449   C     0.33324   0.50000   0.76137   0.00000  Uiso   1.00
O450   O     0.31822   0.50000   0.56009   0.00000  Uiso   1.00
C451   C     0.30297   0.50000   0.50546   0.00000  Uiso   1.00
C452   C     0.34797   0.50000   0.91067   0.00000  Uiso   1.00
H453   H     0.26548   0.52014   0.50153   0.00000  Uiso   1.00
H454   H     0.33232   0.52014   0.48023   0.00000  Uiso   1.00
H455   H     0.29890   0.45973   0.49088   0.00000  Uiso   1.00
H456   H     0.38544   0.52013   0.90654   0.00000  Uiso   1.00
H457   H     0.32391   0.52013   0.94163   0.00000  Uiso   1.00
H458   H     0.35467   0.45973   0.92409   0.00000  Uiso   1.00
H459   H     0.39155   0.50000   0.48328   0.00000  Uiso   1.00
H460   H     0.45369   0.50000   0.67657   0.00000  Uiso   1.00
H461   H     0.31002   0.50000   0.65879   0.00000  Uiso   1.00
H462   H     0.26463   0.50000   0.71253   0.00000  Uiso   1.00
H463   H     0.20743   0.50000   0.79349   0.00000  Uiso   1.00
H464   H     0.39532   0.50000   0.81821   0.00000  Uiso   1.00
C465   C     0.50000   0.50000   0.50000   0.00000  Uiso   1.00
C466   C     0.00000   0.00000   0.00000   0.00000  Uiso   1.00
C467   C     0.50000   0.00000   0.75000   0.00000  Uiso   1.00
C468   C     0.00000   0.50000   0.25000   0.00000  Uiso   1.00
loop_
_geom_bond_atom_site_label_1
_geom_bond_atom_site_label_2
_geom_bond_distance
_geom_bond_site_symmetry_2
_ccdc_geom_bond_type
C1     C2      1.417   .     S
C1     C6      1.394   .     D
C1     H24     1.140   .     S
C2     C3      1.419   .     D
C2     O15     1.408   .     S
C3     C4      1.408   .     S
C3     C8      1.471   .     S
C4     C5      1.390   .     D
C4     H25     1.140   .     S
C5     C6      1.379   .     S
C5     C92     1.447   .     S
C6     C465    1.505   .     S
N7     C8      1.297   .     D
N7     C14     1.432   .     S
C8     H26     1.140   .     S
C9     C10     1.394   .     S
C9     C14     1.397   .     D
C9     H27     1.140   .     S
C10    C11     1.407   .     D
C10    H28     1.140   .     S
C11    C12     1.431   .     S
C11    C243    1.518   .     S
C12    C13     1.399   .     D
C12    C17     1.492   .     S
C13    C14     1.392   .     S
C13    H29     1.140   .     S
O15    C16     1.424   .     S
C16    H18     1.140   .     S
C16    H19     1.140   .     S
C16    H20     1.140   .     S
C17    H21     1.140   .     S
C17    H22     1.140   .     S
C17    H23     1.140   .     S
C30    C31     1.417   .     S
C30    C35     1.394   .     D
C30    H53     1.140   1_556 S
C31    C32     1.419   .     D
C31    O44     1.408   .     S
C32    C33     1.408   .     S
C32    C37     1.471   .     S
C33    C34     1.390   .     D
C33    H54     1.140   .     S
C34    C35     1.379   .     S
C34    C63     1.447   1_545 S
C35    C466    1.505   1_556 S
N36    C37     1.297   .     D
N36    C43     1.432   .     S
C37    H55     1.140   .     S
C38    C39     1.394   .     S
C38    C43     1.397   .     D
C38    H56     1.140   .     S
C39    C40     1.407   .     D
C39    H57     1.140   .     S
C40    C41     1.431   .     S
C40    C272    1.518   .     S
C41    C42     1.399   .     D
C41    C46     1.492   .     S
C42    C43     1.392   .     S
C42    H58     1.140   .     S
O44    C45     1.424   .     S
C45    H47     1.140   .     S
C45    H48     1.140   1_556 S
C45    H49     1.140   1_456 S
C46    H50     1.140   .     S
C46    H51     1.140   .     S
C46    H52     1.140   1_455 S
H48    C45     1.140   1_554 S
H49    C45     1.140   1_654 S
H52    C46     1.140   1_655 S
H53    C30     1.140   1_554 S
C59    C60     1.417   .     S
C59    C64     1.394   .     D
C59    H82     1.140   1_556 S
C60    C61     1.419   .     D
C60    O73     1.408   .     S
C61    C62     1.408   .     S
C61    C66     1.471   .     S
C62    C63     1.390   .     D
C62    H83     1.140   .     S
C63    C34     1.447   1_565 S
C63    C64     1.379   .     S
C64    C466    1.505   1_566 S
N65    C66     1.297   .     D
N65    C72     1.432   .     S
C66    H84     1.140   .     S
C67    C68     1.394   .     S
C67    C72     1.397   .     D
C67    H85     1.140   .     S
C68    C69     1.407   .     D
C68    H86     1.140   .     S
C69    C70     1.431   .     S
C69    C301    1.518   .     S
C70    C71     1.399   .     D
C70    C75     1.492   .     S
C71    C72     1.392   .     S
C71    H87     1.140   .     S
O73    C74     1.424   .     S
C74    H76     1.140   1_455 S
C74    H77     1.140   1_456 S
C74    H78     1.140   1_556 S
C75    H79     1.140   1_455 S
C75    H80     1.140   1_455 S
C75    H81     1.140   .     S
H76    C74     1.140   1_655 S
H77    C74     1.140   1_654 S
H78    C74     1.140   1_554 S
H79    C75     1.140   1_655 S
H80    C75     1.140   1_655 S
H82    C59     1.140   1_554 S
C88    C89     1.417   .     S
C88    C93     1.394   .     D
C88    H111    1.140   .     S
C89    C90     1.419   .     D
C89    O102    1.408   .     S
C90    C91     1.408   .     S
C90    C95     1.471   .     S
C91    C92     1.390   .     D
C91    H112    1.140   .     S
C92    C93     1.379   .     S
C93    C465    1.505   .     S
N94    C95     1.297   .     D
N94    C101    1.432   .     S
C95    H113    1.140   .     S
C96    C97     1.394   .     S
C96    C101    1.397   .     D
C96    H114    1.140   .     S
C97    C98     1.407   .     D
C97    H115    1.140   .     S
C98    C99     1.431   .     S
C98    C330    1.518   .     S
C99    C100    1.399   .     D
C99    C104    1.492   .     S
C100   C101    1.392   .     S
C100   H116    1.140   .     S
O102   C103    1.424   .     S
C103   H105    1.140   .     S
C103   H106    1.140   .     S
C103   H107    1.140   .     S
C104   H108    1.140   .     S
C104   H109    1.140   .     S
C104   H110    1.140   .     S
C117   C118    1.417   .     S
C117   C122    1.394   .     D
C117   H140    1.140   .     S
C118   C119    1.419   .     D
C118   O131    1.408   .     S
C119   C120    1.408   .     S
C119   C124    1.471   .     S
C120   C121    1.390   .     D
C120   H141    1.140   .     S
C121   C122    1.379   .     S
C121   C208    1.447   .     S
C122   C467    1.505   .     S
N123   C124    1.297   .     D
N123   C130    1.432   .     S
C124   H142    1.140   .     S
C125   C126    1.394   .     S
C125   C130    1.397   .     D
C125   H143    1.140   .     S
C126   C127    1.407   .     D
C126   H144    1.140   .     S
C127   C128    1.431   .     S
C127   C388    1.518   .     S
C128   C129    1.399   .     D
C128   C133    1.492   .     S
C129   C130    1.392   .     S
C129   H145    1.140   .     S
O131   C132    1.424   .     S
C132   H134    1.140   .     S
C132   H135    1.140   .     S
C132   H136    1.140   1_545 S
C133   H137    1.140   .     S
C133   H138    1.140   .     S
C133   H139    1.140   1_545 S
H136   C132    1.140   1_565 S
H139   C133    1.140   1_565 S
C146   C147    1.417   .     S
C146   C151    1.394   .     D
C146   H169    1.140   .     S
C147   C148    1.419   .     D
C147   O160    1.408   .     S
C148   C149    1.408   .     S
C148   C153    1.471   .     S
C149   C150    1.390   .     D
C149   H170    1.140   .     S
C150   C151    1.379   .     S
C150   C179    1.447   1_655 S
C151   C468    1.505   1_655 S
N152   C153    1.297   .     D
N152   C159    1.432   1_554 S
C153   H171    1.140   .     S
C154   C155    1.394   .     S
C154   C159    1.397   .     D
C154   H172    1.140   1_556 S
C155   C156    1.407   .     D
C155   H173    1.140   .     S
C156   C157    1.431   .     S
C156   C359    1.518   .     S
C157   C158    1.399   .     D
C157   C162    1.492   .     S
C158   C159    1.392   .     S
C158   H174    1.140   .     S
C159   N152    1.432   1_556 S
O160   C161    1.424   .     S
C161   H163    1.140   .     S
C161   H164    1.140   .     S
C161   H165    1.140   .     S
C162   H166    1.140   .     S
C162   H167    1.140   .     S
C162   H168    1.140   .     S
H172   C154    1.140   1_554 S
C175   C176    1.417   .     S
C175   C180    1.394   .     D
C175   H198    1.140   .     S
C176   C177    1.419   .     D
C176   O189    1.408   .     S
C177   C178    1.408   .     S
C177   C182    1.471   .     S
C178   C179    1.390   .     D
C178   H199    1.140   .     S
C179   C150    1.447   1_455 S
C179   C180    1.379   .     S
C180   C468    1.505   .     S
N181   C182    1.297   .     D
N181   C188    1.432   1_554 S
C182   H200    1.140   .     S
C183   C184    1.394   .     S
C183   C188    1.397   .     D
C183   H201    1.140   1_556 S
C184   C185    1.407   .     D
C184   H202    1.140   .     S
C185   C186    1.431   .     S
C185   C446    1.518   .     S
C186   C187    1.399   .     D
C186   C191    1.492   .     S
C187   C188    1.392   .     S
C187   H203    1.140   .     S
C188   N181    1.432   1_556 S
O189   C190    1.424   .     S
C190   H192    1.140   .     S
C190   H193    1.140   .     S
C190   H194    1.140   .     S
C191   H195    1.140   .     S
C191   H196    1.140   .     S
C191   H197    1.140   .     S
H201   C183    1.140   1_554 S
C204   C205    1.417   .     S
C204   C209    1.394   .     D
C204   H227    1.140   .     S
C205   C206    1.419   .     D
C205   O218    1.408   .     S
C206   C207    1.408   .     S
C206   C211    1.471   .     S
C207   C208    1.390   .     D
C207   H228    1.140   .     S
C208   C209    1.379   .     S
C209   C467    1.505   .     S
N210   C211    1.297   .     D
N210   C217    1.432   .     S
C211   H229    1.140   .     S
C212   C213    1.394   .     S
C212   C217    1.397   .     D
C212   H230    1.140   .     S
C213   C214    1.407   .     D
C213   H231    1.140   .     S
C214   C215    1.431   .     S
C214   C417    1.518   .     S
C215   C216    1.399   .     D
C215   C220    1.492   .     S
C216   C217    1.392   .     S
C216   H232    1.140   .     S
O218   C219    1.424   .     S
C219   H221    1.140   1_545 S
C219   H222    1.140   1_545 S
C219   H223    1.140   .     S
C220   H224    1.140   1_545 S
C220   H225    1.140   1_545 S
C220   H226    1.140   .     S
H221   C219    1.140   1_565 S
H222   C219    1.140   1_565 S
H224   C220    1.140   1_565 S
H225   C220    1.140   1_565 S
C233   C234    1.417   .     S
C233   C238    1.394   .     D
C233   H256    1.140   .     S
C234   C235    1.419   .     D
C234   O247    1.408   .     S
C235   C236    1.408   .     S
C235   C240    1.471   .     S
C236   C237    1.390   .     D
C236   H257    1.140   .     S
C237   C238    1.379   .     S
C237   C324    1.447   1_565 S
C238   C467    1.505   1_565 S
N239   C240    1.297   .     D
N239   C246    1.432   1_556 S
C240   H258    1.140   .     S
C241   C242    1.394   .     D
C241   C246    1.397   .     S
C241   H259    1.140   1_554 S
C242   C243    1.407   .     S
C242   H260    1.140   .     S
C243   C244    1.431   .     D
C244   C245    1.399   .     S
C244   C249    1.492   .     S
C245   C246    1.392   .     D
C245   H261    1.140   .     S
C246   N239    1.432   1_554 S
O247   C248    1.424   .     S
C248   H250    1.140   .     S
C248   H251    1.140   .     S
C248   H252    1.140   .     S
C249   H253    1.140   .     S
C249   H254    1.140   .     S
C249   H255    1.140   .     S
H259   C241    1.140   1_556 S
C262   C263    1.417   .     S
C262   C267    1.394   .     D
C262   H285    1.140   .     S
C263   C264    1.419   .     D
C263   O276    1.408   .     S
C264   C265    1.408   .     S
C264   C269    1.471   .     S
C265   C266    1.390   .     D
C265   H286    1.140   .     S
C266   C267    1.379   .     S
C266   C295    1.447   .     S
C267   C468    1.505   .     S
N268   C269    1.297   .     D
N268   C275    1.432   .     S
C269   H287    1.140   .     S
C270   C271    1.394   .     D
C270   C275    1.397   .     S
C270   H288    1.140   .     S
C271   C272    1.407   .     S
C271   H289    1.140   .     S
C272   C273    1.431   .     D
C273   C274    1.399   .     S
C273   C278    1.492   .     S
C274   C275    1.392   .     D
C274   H290    1.140   .     S
O276   C277    1.424   .     S
C277   H279    1.140   1_455 S
C277   H280    1.140   1_455 S
C277   H281    1.140   .     S
C278   H282    1.140   1_455 S
C278   H283    1.140   1_455 S
C278   H284    1.140   .     S
H279   C277    1.140   1_655 S
H280   C277    1.140   1_655 S
H282   C278    1.140   1_655 S
H283   C278    1.140   1_655 S
C291   C292    1.417   .     D
C291   C296    1.394   .     S
C291   H314    1.140   .     S
C292   C293    1.419   .     S
C292   O305    1.408   .     S
C293   C294    1.408   .     D
C293   C298    1.471   .     S
C294   C295    1.390   .     S
C294   H315    1.140   .     S
C295   C296    1.379   .     D
C296   C468    1.505   .     S
N297   C298    1.297   .     D
N297   C304    1.432   .     S
C298   H316    1.140   .     S
C299   C300    1.394   .     S
C299   C304    1.397   .     D
C299   H317    1.140   .     S
C300   C301    1.407   .     D
C300   H318    1.140   .     S
C301   C302    1.431   .     S
C302   C303    1.399   .     D
C302   C307    1.492   .     S
C303   C304    1.392   .     S
C303   H319    1.140   .     S
O305   C306    1.424   .     S
C306   H308    1.140   .     S
C306   H309    1.140   .     S
C306   H310    1.140   1_455 S
C307   H311    1.140   .     S
C307   H312    1.140   .     S
C307   H313    1.140   1_455 S
H310   C306    1.140   1_655 S
H313   C307    1.140   1_655 S
C320   C321    1.417   .     D
C320   C325    1.394   .     S
C320   H343    1.140   .     S
C321   C322    1.419   .     S
C321   O334    1.408   .     S
C322   C323    1.408   .     D
C322   C327    1.471   .     S
C323   C324    1.390   .     S
C323   H344    1.140   .     S
C324   C237    1.447   1_545 S
C324   C325    1.379   .     D
C325   C467    1.505   .     S
N326   C327    1.297   .     D
N326   C333    1.432   1_556 S
C327   H345    1.140   .     S
C328   C329    1.394   .     D
C328   C333    1.397   .     S
C328   H346    1.140   1_554 S
C329   C330    1.407   .     S
C329   H347    1.140   .     S
C330   C331    1.431   .     D
C331   C332    1.399   .     S
C331   C336    1.492   .     S
C332   C333    1.392   .     D
C332   H348    1.140   .     S
C333   N326    1.432   1_554 S
O334   C335    1.424   .     S
C335   H337    1.140   .     S
C335   H338    1.140   .     S
C335   H339    1.140   .     S
C336   H340    1.140   .     S
C336   H341    1.140   .     S
C336   H342    1.140   .     S
H346   C328    1.140   1_556 S
C349   C350    1.417   .     S
C349   C354    1.394   .     D
C349   H372    1.140   .     S
C350   C351    1.419   .     D
C350   O363    1.408   .     S
C351   C352    1.408   .     S
C351   C356    1.471   .     S
C352   C353    1.390   .     D
C352   H373    1.140   .     S
C353   C354    1.379   .     S
C353   C440    1.447   .     S
C354   C465    1.505   .     S
N355   C356    1.297   .     D
N355   C362    1.432   .     S
C356   H374    1.140   .     S
C357   C358    1.394   .     S
C357   C362    1.397   .     D
C357   H375    1.140   .     S
C358   C359    1.407   .     D
C358   H376    1.140   .     S
C359   C360    1.431   .     S
C360   C361    1.399   .     D
C360   C365    1.492   .     S
C361   C362    1.392   .     S
C361   H377    1.140   .     S
O363   C364    1.424   .     S
C364   H366    1.140   .     S
C364   H367    1.140   .     S
C364   H368    1.140   .     S
C365   H369    1.140   .     S
C365   H370    1.140   .     S
C365   H371    1.140   .     S
C378   C379    1.417   .     S
C378   C383    1.394   .     D
C378   H401    1.140   1_554 S
C379   C380    1.419   .     D
C379   O392    1.408   .     S
C380   C381    1.408   .     S
C380   C385    1.471   .     S
C381   C382    1.390   .     D
C381   H402    1.140   .     S
C382   C383    1.379   .     S
C382   C411    1.447   1_455 S
C383   C466    1.505   .     S
N384   C385    1.297   .     D
N384   C391    1.432   .     S
C385   H403    1.140   .     S
C386   C387    1.394   .     S
C386   C391    1.397   .     D
C386   H404    1.140   .     S
C387   C388    1.407   .     D
C387   H405    1.140   .     S
C388   C389    1.431   .     S
C389   C390    1.399   .     D
C389   C394    1.492   .     S
C390   C391    1.392   .     S
C390   H406    1.140   .     S
O392   C393    1.424   .     S
C393   H395    1.140   1_545 S
C393   H396    1.140   1_544 S
C393   H397    1.140   1_554 S
C394   H398    1.140   1_545 S
C394   H399    1.140   1_545 S
C394   H400    1.140   .     S
H395   C393    1.140   1_565 S
H396   C393    1.140   1_566 S
H397   C393    1.140   1_556 S
H398   C394    1.140   1_565 S
H399   C394    1.140   1_565 S
H401   C378    1.140   1_556 S
C407   C408    1.417   .     D
C407   C412    1.394   .     S
C407   H430    1.140   1_554 S
C408   C409    1.419   .     S
C408   O421    1.408   .     S
C409   C410    1.408   .     D
C409   C414    1.471   .     S
C410   C411    1.390   .     S
C410   H431    1.140   .     S
C411   C382    1.447   1_655 S
C411   C412    1.379   .     D
C412   C466    1.505   1_655 S
N413   C414    1.297   .     D
N413   C420    1.432   .     S
C414   H432    1.140   .     S
C415   C416    1.394   .     S
C415   C420    1.397   .     D
C415   H433    1.140   .     S
C416   C417    1.407   .     D
C416   H434    1.140   .     S
C417   C418    1.431   .     S
C418   C419    1.399   .     D
C418   C423    1.492   .     S
C419   C420    1.392   .     S
C419   H435    1.140   .     S
O421   C422    1.424   .     S
C422   H424    1.140   .     S
C422   H425    1.140   1_554 S
C422   H426    1.140   1_544 S
C423   H427    1.140   .     S
C423   H428    1.140   .     S
C423   H429    1.140   1_545 S
H425   C422    1.140   1_556 S
H426   C422    1.140   1_566 S
H429   C423    1.140   1_565 S
H430   C407    1.140   1_556 S
C436   C437    1.417   .     D
C436   C441    1.394   .     S
C436   H459    1.140   .     S
C437   C438    1.419   .     S
C437   O450    1.408   .     S
C438   C439    1.408   .     D
C438   C443    1.471   .     S
C439   C440    1.390   .     S
C439   H460    1.140   .     S
C440   C441    1.379   .     D
C441   C465    1.505   .     S
N442   C443    1.297   .     D
N442   C449    1.432   .     S
C443   H461    1.140   .     S
C444   C445    1.394   .     S
C444   C449    1.397   .     D
C444   H462    1.140   .     S
C445   C446    1.407   .     D
C445   H463    1.140   .     S
C446   C447    1.431   .     S
C447   C448    1.399   .     D
C447   C452    1.492   .     S
C448   C449    1.392   .     S
C448   H464    1.140   .     S
O450   C451    1.424   .     S
C451   H453    1.140   .     S
C451   H454    1.140   .     S
C451   H455    1.140   .     S
C452   H456    1.140   .     S
C452   H457    1.140   .     S
C452   H458    1.140   .     S
C466   C412    1.505   1_455 S
C466   C35     1.505   1_554 S
C466   C64     1.505   1_544 S
C467   C238    1.505   1_545 S
C468   C151    1.505   1_455 S
