data_282
_audit_creation_date              2023-09-08
_audit_creation_method            'Materials Studio'
_symmetry_space_group_name_H-M    'P1'
_symmetry_Int_Tables_number       1
_symmetry_cell_setting            triclinic
loop_
_symmetry_equiv_pos_as_xyz
  x,y,z
_cell_length_a                    27.9370
_cell_length_b                    27.9370
_cell_length_c                    74.8012
_cell_angle_alpha                 90.0000
_cell_angle_beta                  90.0000
_cell_angle_gamma                 90.0000
loop_
_atom_site_label
_atom_site_type_symbol
_atom_site_fract_x
_atom_site_fract_y
_atom_site_fract_z
_atom_site_U_iso_or_equiv
_atom_site_adp_type
_atom_site_occupancy
C1     C     0.09697   0.99997   0.99121   0.00000  Uiso   1.00
C2     C     0.13268   0.99996   0.97711   0.00000  Uiso   1.00
C3     C     0.11448   0.99995   0.95946   0.00000  Uiso   1.00
C4     C     0.06147   0.99998   0.95599   0.00000  Uiso   1.00
C5     C     0.02771   0.99998   0.97016   0.00000  Uiso   1.00
C6     C     0.04467  -0.00001   0.98740   0.00000  Uiso   1.00
C7     C     0.15102   0.99997   0.94468   0.00000  Uiso   1.00
C8     C     0.14821   0.99995   0.89666   0.00000  Uiso   1.00
C9     C     0.18019   0.99997   0.88193   0.00000  Uiso   1.00
C10    C     0.23393   0.00001   0.88335   0.00000  Uiso   1.00
C11    C     0.25484  -0.00001   0.90082   0.00000  Uiso   1.00
C12    C     0.22236   0.00001   0.91551   0.00000  Uiso   1.00
C13    C     0.16906   0.00000   0.91355   0.00000  Uiso   1.00
N14    N     0.50002   0.63529   0.57156   0.00000  Uiso   1.00
O15    O     0.50004   0.68597   0.51996   0.00000  Uiso   1.00
C16    C     0.50001   0.70170   0.50196   0.00000  Uiso   1.00
C17    C     0.50002   0.81078   0.59513   0.00000  Uiso   1.00
H18    H     0.23925   0.00003   0.92939   0.00000  Uiso   1.00
H19    H     0.52056   0.67173   0.49361   0.00000  Uiso   1.00
H20    H     0.52063   0.74005   0.50069   0.00000  Uiso   1.00
H21    H     0.45880   0.70594   0.49717   0.00000  Uiso   1.00
H22    H     0.52061   0.81768   0.58207   0.00000  Uiso   1.00
H23    H     0.52062   0.83238   0.60612   0.00000  Uiso   1.00
H24    H     0.45882   0.82504   0.59410   0.00000  Uiso   1.00
H25    H     0.11112   0.99997   0.00545   0.00000  Uiso   1.00
H26    H     0.04708  -0.00001   0.94178   0.00000  Uiso   1.00
H27    H     0.19399   0.99997   0.94739   0.00000  Uiso   1.00
H28    H     0.10482   0.99989   0.89488   0.00000  Uiso   1.00
H29    H     0.16297   0.99996   0.86810   0.00000  Uiso   1.00
C30    C     0.59697   0.49997   0.49121   0.00000  Uiso   1.00
C31    C     0.63268   0.49996   0.47711   0.00000  Uiso   1.00
C32    C     0.61448   0.49995   0.45946   0.00000  Uiso   1.00
C33    C     0.56147   0.49998   0.45599   0.00000  Uiso   1.00
C34    C     0.52771   0.49998   0.47016   0.00000  Uiso   1.00
C35    C     0.54467   0.49999   0.48740   0.00000  Uiso   1.00
C36    C     0.65102   0.49997   0.44468   0.00000  Uiso   1.00
C37    C     0.64821   0.49995   0.39666   0.00000  Uiso   1.00
C38    C     0.68019   0.49997   0.38193   0.00000  Uiso   1.00
C39    C     0.73393   0.50001   0.38335   0.00000  Uiso   1.00
C40    C     0.75484   0.49999   0.40082   0.00000  Uiso   1.00
C41    C     0.72236   0.50001   0.41551   0.00000  Uiso   1.00
C42    C     0.66906   0.50000   0.41355   0.00000  Uiso   1.00
N43    N     0.00002   0.13529   0.07156   0.00000  Uiso   1.00
O44    O     0.00004   0.18597   0.01996   0.00000  Uiso   1.00
C45    C     0.00001   0.20170   0.00196   0.00000  Uiso   1.00
C46    C     0.00002   0.31078   0.09513   0.00000  Uiso   1.00
H47    H     0.73925   0.50003   0.42939   0.00000  Uiso   1.00
H48    H     0.02056   0.17173   0.99361   0.00000  Uiso   1.00
H49    H     0.02063   0.24005   0.00069   0.00000  Uiso   1.00
H50    H     0.95880   0.20594   0.99717   0.00000  Uiso   1.00
H51    H     0.02061   0.31768   0.08207   0.00000  Uiso   1.00
H52    H     0.02062   0.33238   0.10612   0.00000  Uiso   1.00
H53    H     0.95882   0.32504   0.09410   0.00000  Uiso   1.00
H54    H     0.61112   0.49997   0.50545   0.00000  Uiso   1.00
H55    H     0.54708   0.49999   0.44178   0.00000  Uiso   1.00
H56    H     0.69399   0.49997   0.44739   0.00000  Uiso   1.00
H57    H     0.60482   0.49989   0.39488   0.00000  Uiso   1.00
H58    H     0.66297   0.49996   0.36810   0.00000  Uiso   1.00
C59    C     0.40303   0.50003   0.49121   0.00000  Uiso   1.00
C60    C     0.36732   0.50004   0.47711   0.00000  Uiso   1.00
C61    C     0.38552   0.50005   0.45946   0.00000  Uiso   1.00
C62    C     0.43853   0.50002   0.45599   0.00000  Uiso   1.00
C63    C     0.47229   0.50002   0.47016   0.00000  Uiso   1.00
C64    C     0.45533   0.50001   0.48740   0.00000  Uiso   1.00
C65    C     0.34898   0.50003   0.44468   0.00000  Uiso   1.00
C66    C     0.35179   0.50005   0.39666   0.00000  Uiso   1.00
C67    C     0.31981   0.50003   0.38193   0.00000  Uiso   1.00
C68    C     0.26607   0.49999   0.38335   0.00000  Uiso   1.00
C69    C     0.24516   0.50001   0.40082   0.00000  Uiso   1.00
C70    C     0.27764   0.49999   0.41551   0.00000  Uiso   1.00
C71    C     0.33094   0.50000   0.41355   0.00000  Uiso   1.00
N72    N     0.99998   0.86471   0.07156   0.00000  Uiso   1.00
O73    O     0.99996   0.81403   0.01996   0.00000  Uiso   1.00
C74    C    -0.00001   0.79830   0.00196   0.00000  Uiso   1.00
C75    C     0.99998   0.68922   0.09513   0.00000  Uiso   1.00
H76    H     0.26075   0.49997   0.42939   0.00000  Uiso   1.00
H77    H     0.97944   0.82827   0.99361   0.00000  Uiso   1.00
H78    H     0.97937   0.75995   0.00069   0.00000  Uiso   1.00
H79    H     0.04120   0.79406   0.99717   0.00000  Uiso   1.00
H80    H     0.97939   0.68232   0.08207   0.00000  Uiso   1.00
H81    H     0.97938   0.66762   0.10612   0.00000  Uiso   1.00
H82    H     0.04118   0.67496   0.09410   0.00000  Uiso   1.00
H83    H     0.38888   0.50003   0.50545   0.00000  Uiso   1.00
H84    H     0.45292   0.50001   0.44178   0.00000  Uiso   1.00
H85    H     0.30601   0.50003   0.44739   0.00000  Uiso   1.00
H86    H     0.39518   0.50011   0.39488   0.00000  Uiso   1.00
H87    H     0.33703   0.50004   0.36810   0.00000  Uiso   1.00
C88    C     0.90303   0.00003   0.99121   0.00000  Uiso   1.00
C89    C     0.86732   0.00004   0.97711   0.00000  Uiso   1.00
C90    C     0.88552   0.00005   0.95946   0.00000  Uiso   1.00
C91    C     0.93853   0.00002   0.95599   0.00000  Uiso   1.00
C92    C     0.97229   0.00002   0.97016   0.00000  Uiso   1.00
C93    C     0.95533   0.00001   0.98740   0.00000  Uiso   1.00
C94    C     0.84898   0.00003   0.94468   0.00000  Uiso   1.00
C95    C     0.85179   0.00005   0.89666   0.00000  Uiso   1.00
C96    C     0.81981   0.00003   0.88193   0.00000  Uiso   1.00
C97    C     0.76607   0.99999   0.88335   0.00000  Uiso   1.00
C98    C     0.74516   0.00001   0.90082   0.00000  Uiso   1.00
C99    C     0.77764   0.99999   0.91551   0.00000  Uiso   1.00
C100   C     0.83094   0.00000   0.91355   0.00000  Uiso   1.00
N101   N     0.49998   0.36471   0.57156   0.00000  Uiso   1.00
O102   O     0.49996   0.31403   0.51996   0.00000  Uiso   1.00
C103   C     0.49999   0.29830   0.50196   0.00000  Uiso   1.00
C104   C     0.49998   0.18922   0.59513   0.00000  Uiso   1.00
H105   H     0.76075   0.99997   0.92939   0.00000  Uiso   1.00
H106   H     0.47944   0.32827   0.49361   0.00000  Uiso   1.00
H107   H     0.47937   0.25995   0.50069   0.00000  Uiso   1.00
H108   H     0.54120   0.29406   0.49717   0.00000  Uiso   1.00
H109   H     0.47939   0.18232   0.58207   0.00000  Uiso   1.00
H110   H     0.47938   0.16762   0.60612   0.00000  Uiso   1.00
H111   H     0.54118   0.17496   0.59410   0.00000  Uiso   1.00
H112   H     0.88888   0.00003   0.00545   0.00000  Uiso   1.00
H113   H     0.95292   0.00001   0.94178   0.00000  Uiso   1.00
H114   H     0.80601   0.00003   0.94739   0.00000  Uiso   1.00
H115   H     0.89518   0.00011   0.89488   0.00000  Uiso   1.00
H116   H     0.83703   0.00004   0.86810   0.00000  Uiso   1.00
C117   C     0.00003   0.59697   0.24121   0.00000  Uiso   1.00
C118   C     0.00004   0.63268   0.22711   0.00000  Uiso   1.00
C119   C     0.00005   0.61448   0.20946   0.00000  Uiso   1.00
C120   C     0.00002   0.56147   0.20599   0.00000  Uiso   1.00
C121   C     0.00002   0.52771   0.22016   0.00000  Uiso   1.00
C122   C     0.00001   0.54467   0.23740   0.00000  Uiso   1.00
C123   C     0.00003   0.65102   0.19468   0.00000  Uiso   1.00
C124   C     0.00005   0.64821   0.14666   0.00000  Uiso   1.00
C125   C     0.00003   0.68019   0.13193   0.00000  Uiso   1.00
C126   C    -0.00001   0.73393   0.13335   0.00000  Uiso   1.00
C127   C     0.00001   0.75484   0.15082   0.00000  Uiso   1.00
C128   C    -0.00001   0.72236   0.16551   0.00000  Uiso   1.00
C129   C     0.00000   0.66906   0.16355   0.00000  Uiso   1.00
N130   N     0.36471   0.00002   0.82156   0.00000  Uiso   1.00
O131   O     0.31403   0.00004   0.76996   0.00000  Uiso   1.00
C132   C     0.29830   0.00001   0.75196   0.00000  Uiso   1.00
C133   C     0.18922   0.00002   0.84513   0.00000  Uiso   1.00
H134   H     0.99997   0.73925   0.17939   0.00000  Uiso   1.00
H135   H     0.32827   0.02056   0.74361   0.00000  Uiso   1.00
H136   H     0.25995   0.02063   0.75069   0.00000  Uiso   1.00
H137   H     0.29406   0.95880   0.74717   0.00000  Uiso   1.00
H138   H     0.18232   0.02061   0.83207   0.00000  Uiso   1.00
H139   H     0.16762   0.02062   0.85612   0.00000  Uiso   1.00
H140   H     0.17496   0.95882   0.84410   0.00000  Uiso   1.00
H141   H     0.00003   0.61112   0.25545   0.00000  Uiso   1.00
H142   H     0.00001   0.54708   0.19178   0.00000  Uiso   1.00
H143   H     0.00003   0.69399   0.19739   0.00000  Uiso   1.00
H144   H     0.00011   0.60482   0.14488   0.00000  Uiso   1.00
H145   H     0.00004   0.66297   0.11810   0.00000  Uiso   1.00
C146   C     0.50003   0.09697   0.74121   0.00000  Uiso   1.00
C147   C     0.50004   0.13268   0.72711   0.00000  Uiso   1.00
C148   C     0.50005   0.11448   0.70946   0.00000  Uiso   1.00
C149   C     0.50002   0.06147   0.70599   0.00000  Uiso   1.00
C150   C     0.50002   0.02771   0.72016   0.00000  Uiso   1.00
C151   C     0.50001   0.04467   0.73740   0.00000  Uiso   1.00
C152   C     0.50003   0.15102   0.69468   0.00000  Uiso   1.00
C153   C     0.50005   0.14821   0.64666   0.00000  Uiso   1.00
C154   C     0.50003   0.18019   0.63193   0.00000  Uiso   1.00
C155   C     0.49999   0.23393   0.63335   0.00000  Uiso   1.00
C156   C     0.50001   0.25484   0.65082   0.00000  Uiso   1.00
C157   C     0.49999   0.22236   0.66551   0.00000  Uiso   1.00
C158   C     0.50000   0.16906   0.66355   0.00000  Uiso   1.00
N159   N     0.86471   0.50002   0.32156   0.00000  Uiso   1.00
O160   O     0.81403   0.50004   0.26996   0.00000  Uiso   1.00
C161   C     0.79830   0.50001   0.25196   0.00000  Uiso   1.00
C162   C     0.68922   0.50002   0.34513   0.00000  Uiso   1.00
H163   H     0.49997   0.23925   0.67939   0.00000  Uiso   1.00
H164   H     0.82827   0.52056   0.24361   0.00000  Uiso   1.00
H165   H     0.75995   0.52063   0.25069   0.00000  Uiso   1.00
H166   H     0.79406   0.45880   0.24717   0.00000  Uiso   1.00
H167   H     0.68232   0.52061   0.33207   0.00000  Uiso   1.00
H168   H     0.66762   0.52062   0.35612   0.00000  Uiso   1.00
H169   H     0.67496   0.45882   0.34410   0.00000  Uiso   1.00
H170   H     0.50003   0.11112   0.75545   0.00000  Uiso   1.00
H171   H     0.50001   0.04708   0.69178   0.00000  Uiso   1.00
H172   H     0.50003   0.19399   0.69739   0.00000  Uiso   1.00
H173   H     0.50011   0.10482   0.64488   0.00000  Uiso   1.00
H174   H     0.50004   0.16297   0.61810   0.00000  Uiso   1.00
C175   C     0.49997   0.90303   0.74121   0.00000  Uiso   1.00
C176   C     0.49996   0.86732   0.72711   0.00000  Uiso   1.00
C177   C     0.49995   0.88552   0.70946   0.00000  Uiso   1.00
C178   C     0.49998   0.93853   0.70599   0.00000  Uiso   1.00
C179   C     0.49998   0.97229   0.72016   0.00000  Uiso   1.00
C180   C     0.49999   0.95533   0.73740   0.00000  Uiso   1.00
C181   C     0.49997   0.84898   0.69468   0.00000  Uiso   1.00
C182   C     0.49995   0.85179   0.64666   0.00000  Uiso   1.00
C183   C     0.49997   0.81981   0.63193   0.00000  Uiso   1.00
C184   C     0.50001   0.76607   0.63335   0.00000  Uiso   1.00
C185   C     0.49999   0.74516   0.65082   0.00000  Uiso   1.00
C186   C     0.50001   0.77764   0.66551   0.00000  Uiso   1.00
C187   C     0.50000   0.83094   0.66355   0.00000  Uiso   1.00
N188   N     0.13529   0.49998   0.32156   0.00000  Uiso   1.00
O189   O     0.18597   0.49996   0.26996   0.00000  Uiso   1.00
C190   C     0.20170   0.49999   0.25196   0.00000  Uiso   1.00
C191   C     0.31078   0.49998   0.34513   0.00000  Uiso   1.00
H192   H     0.50003   0.76075   0.67939   0.00000  Uiso   1.00
H193   H     0.17173   0.47944   0.24361   0.00000  Uiso   1.00
H194   H     0.24005   0.47937   0.25069   0.00000  Uiso   1.00
H195   H     0.20594   0.54120   0.24717   0.00000  Uiso   1.00
H196   H     0.31768   0.47939   0.33207   0.00000  Uiso   1.00
H197   H     0.33238   0.47938   0.35612   0.00000  Uiso   1.00
H198   H     0.32504   0.54118   0.34410   0.00000  Uiso   1.00
H199   H     0.49997   0.88888   0.75545   0.00000  Uiso   1.00
H200   H     0.49999   0.95292   0.69178   0.00000  Uiso   1.00
H201   H     0.49997   0.80601   0.69739   0.00000  Uiso   1.00
H202   H     0.49989   0.89518   0.64488   0.00000  Uiso   1.00
H203   H     0.49996   0.83703   0.61810   0.00000  Uiso   1.00
C204   C     0.99997   0.40303   0.24121   0.00000  Uiso   1.00
C205   C     0.99996   0.36732   0.22711   0.00000  Uiso   1.00
C206   C     0.99995   0.38552   0.20946   0.00000  Uiso   1.00
C207   C     0.99998   0.43853   0.20599   0.00000  Uiso   1.00
C208   C     0.99998   0.47229   0.22016   0.00000  Uiso   1.00
C209   C     0.99999   0.45533   0.23740   0.00000  Uiso   1.00
C210   C     0.99997   0.34898   0.19468   0.00000  Uiso   1.00
C211   C     0.99995   0.35179   0.14666   0.00000  Uiso   1.00
C212   C     0.99997   0.31981   0.13193   0.00000  Uiso   1.00
C213   C     0.00001   0.26607   0.13335   0.00000  Uiso   1.00
C214   C     0.99999   0.24516   0.15082   0.00000  Uiso   1.00
C215   C     0.00001   0.27764   0.16551   0.00000  Uiso   1.00
C216   C     0.00000   0.33094   0.16355   0.00000  Uiso   1.00
N217   N     0.63529   0.99998   0.82156   0.00000  Uiso   1.00
O218   O     0.68597   0.99996   0.76996   0.00000  Uiso   1.00
C219   C     0.70170  -0.00001   0.75196   0.00000  Uiso   1.00
C220   C     0.81078   0.99998   0.84513   0.00000  Uiso   1.00
H221   H     0.00003   0.26075   0.17939   0.00000  Uiso   1.00
H222   H     0.67173   0.97944   0.74361   0.00000  Uiso   1.00
H223   H     0.74005   0.97937   0.75069   0.00000  Uiso   1.00
H224   H     0.70594   0.04120   0.74717   0.00000  Uiso   1.00
H225   H     0.81768   0.97939   0.83207   0.00000  Uiso   1.00
H226   H     0.83238   0.97938   0.85612   0.00000  Uiso   1.00
H227   H     0.82504   0.04118   0.84410   0.00000  Uiso   1.00
H228   H     0.99997   0.38888   0.25545   0.00000  Uiso   1.00
H229   H    -0.00001   0.45292   0.19178   0.00000  Uiso   1.00
H230   H     0.99997   0.30601   0.19739   0.00000  Uiso   1.00
H231   H     0.99989   0.39518   0.14488   0.00000  Uiso   1.00
H232   H     0.99996   0.33703   0.11810   0.00000  Uiso   1.00
C233   C     0.90303   0.50003   0.25879   0.00000  Uiso   1.00
C234   C     0.86732   0.50004   0.27289   0.00000  Uiso   1.00
C235   C     0.88552   0.50005   0.29054   0.00000  Uiso   1.00
C236   C     0.93853   0.50002   0.29401   0.00000  Uiso   1.00
C237   C     0.97229   0.50002   0.27984   0.00000  Uiso   1.00
C238   C     0.95533   0.50001   0.26260   0.00000  Uiso   1.00
C239   C     0.84898   0.50003   0.30532   0.00000  Uiso   1.00
C240   C     0.85179   0.50005   0.35334   0.00000  Uiso   1.00
C241   C     0.81981   0.50003   0.36807   0.00000  Uiso   1.00
C242   C     0.76607   0.49999   0.36665   0.00000  Uiso   1.00
C243   C     0.74516   0.50001   0.34918   0.00000  Uiso   1.00
C244   C     0.77764   0.49999   0.33449   0.00000  Uiso   1.00
C245   C     0.83094   0.50000   0.33645   0.00000  Uiso   1.00
N246   N     0.49998   0.86471   0.67844   0.00000  Uiso   1.00
O247   O     0.49996   0.81403   0.73004   0.00000  Uiso   1.00
C248   C     0.49999   0.79830   0.74804   0.00000  Uiso   1.00
C249   C     0.49998   0.68922   0.65487   0.00000  Uiso   1.00
H250   H     0.76075   0.49997   0.32061   0.00000  Uiso   1.00
H251   H     0.47944   0.82827   0.75639   0.00000  Uiso   1.00
H252   H     0.47937   0.75995   0.74931   0.00000  Uiso   1.00
H253   H     0.54120   0.79406   0.75283   0.00000  Uiso   1.00
H254   H     0.47939   0.68232   0.66793   0.00000  Uiso   1.00
H255   H     0.47938   0.66762   0.64388   0.00000  Uiso   1.00
H256   H     0.54118   0.67496   0.65590   0.00000  Uiso   1.00
H257   H     0.88888   0.50003   0.24455   0.00000  Uiso   1.00
H258   H     0.95292   0.50001   0.30822   0.00000  Uiso   1.00
H259   H     0.80601   0.50003   0.30261   0.00000  Uiso   1.00
H260   H     0.89518   0.50011   0.35512   0.00000  Uiso   1.00
H261   H     0.83703   0.50004   0.38190   0.00000  Uiso   1.00
C262   C     0.40303   0.00003   0.75879   0.00000  Uiso   1.00
C263   C     0.36732   0.00004   0.77289   0.00000  Uiso   1.00
C264   C     0.38552   0.00005   0.79054   0.00000  Uiso   1.00
C265   C     0.43853   0.00002   0.79401   0.00000  Uiso   1.00
C266   C     0.47229   0.00002   0.77984   0.00000  Uiso   1.00
C267   C     0.45533   0.00001   0.76260   0.00000  Uiso   1.00
C268   C     0.34898   0.00003   0.80532   0.00000  Uiso   1.00
C269   C     0.35179   0.00005   0.85334   0.00000  Uiso   1.00
C270   C     0.31981   0.00003   0.86807   0.00000  Uiso   1.00
C271   C     0.26607   0.99999   0.86665   0.00000  Uiso   1.00
C272   C     0.24516   0.00001   0.84918   0.00000  Uiso   1.00
C273   C     0.27764   0.99999   0.83449   0.00000  Uiso   1.00
C274   C     0.33094   0.00000   0.83645   0.00000  Uiso   1.00
N275   N     0.99998   0.36471   0.17844   0.00000  Uiso   1.00
O276   O     0.99996   0.31403   0.23004   0.00000  Uiso   1.00
C277   C    -0.00001   0.29830   0.24804   0.00000  Uiso   1.00
C278   C     0.99998   0.18922   0.15487   0.00000  Uiso   1.00
H279   H     0.26075   0.99997   0.82061   0.00000  Uiso   1.00
H280   H     0.97944   0.32827   0.25639   0.00000  Uiso   1.00
H281   H     0.97937   0.25995   0.24931   0.00000  Uiso   1.00
H282   H     0.04120   0.29406   0.25283   0.00000  Uiso   1.00
H283   H     0.97939   0.18232   0.16793   0.00000  Uiso   1.00
H284   H     0.97938   0.16762   0.14388   0.00000  Uiso   1.00
H285   H     0.04118   0.17496   0.15590   0.00000  Uiso   1.00
H286   H     0.38888   0.00003   0.74455   0.00000  Uiso   1.00
H287   H     0.45292   0.00001   0.80822   0.00000  Uiso   1.00
H288   H     0.30601   0.00003   0.80261   0.00000  Uiso   1.00
H289   H     0.39518   0.00011   0.85512   0.00000  Uiso   1.00
H290   H     0.33703   0.00004   0.88190   0.00000  Uiso   1.00
C291   C     0.59697   0.99997   0.75879   0.00000  Uiso   1.00
C292   C     0.63268   0.99996   0.77289   0.00000  Uiso   1.00
C293   C     0.61448   0.99995   0.79054   0.00000  Uiso   1.00
C294   C     0.56147   0.99998   0.79401   0.00000  Uiso   1.00
C295   C     0.52771   0.99998   0.77984   0.00000  Uiso   1.00
C296   C     0.54467  -0.00001   0.76260   0.00000  Uiso   1.00
C297   C     0.65102   0.99997   0.80532   0.00000  Uiso   1.00
C298   C     0.64821   0.99995   0.85334   0.00000  Uiso   1.00
C299   C     0.68019   0.99997   0.86807   0.00000  Uiso   1.00
C300   C     0.73393   0.00001   0.86665   0.00000  Uiso   1.00
C301   C     0.75484  -0.00001   0.84918   0.00000  Uiso   1.00
C302   C     0.72236   0.00001   0.83449   0.00000  Uiso   1.00
C303   C     0.66906   0.00000   0.83645   0.00000  Uiso   1.00
N304   N     0.00002   0.63529   0.17844   0.00000  Uiso   1.00
O305   O     0.00004   0.68597   0.23004   0.00000  Uiso   1.00
C306   C     0.00001   0.70170   0.24804   0.00000  Uiso   1.00
C307   C     0.00002   0.81078   0.15487   0.00000  Uiso   1.00
H308   H     0.73925   0.00003   0.82061   0.00000  Uiso   1.00
H309   H     0.02056   0.67173   0.25639   0.00000  Uiso   1.00
H310   H     0.02063   0.74005   0.24931   0.00000  Uiso   1.00
H311   H     0.95880   0.70594   0.25283   0.00000  Uiso   1.00
H312   H     0.02061   0.81768   0.16793   0.00000  Uiso   1.00
H313   H     0.02062   0.83238   0.14388   0.00000  Uiso   1.00
H314   H     0.95882   0.82504   0.15590   0.00000  Uiso   1.00
H315   H     0.61112   0.99997   0.74455   0.00000  Uiso   1.00
H316   H     0.54708  -0.00001   0.80822   0.00000  Uiso   1.00
H317   H     0.69399   0.99997   0.80261   0.00000  Uiso   1.00
H318   H     0.60482   0.99989   0.85512   0.00000  Uiso   1.00
H319   H     0.66297   0.99996   0.88190   0.00000  Uiso   1.00
C320   C     0.09697   0.49997   0.25879   0.00000  Uiso   1.00
C321   C     0.13268   0.49996   0.27289   0.00000  Uiso   1.00
C322   C     0.11448   0.49995   0.29054   0.00000  Uiso   1.00
C323   C     0.06147   0.49998   0.29401   0.00000  Uiso   1.00
C324   C     0.02771   0.49998   0.27984   0.00000  Uiso   1.00
C325   C     0.04467   0.49999   0.26260   0.00000  Uiso   1.00
C326   C     0.15102   0.49997   0.30532   0.00000  Uiso   1.00
C327   C     0.14821   0.49995   0.35334   0.00000  Uiso   1.00
C328   C     0.18019   0.49997   0.36807   0.00000  Uiso   1.00
C329   C     0.23393   0.50001   0.36665   0.00000  Uiso   1.00
C330   C     0.25484   0.49999   0.34918   0.00000  Uiso   1.00
C331   C     0.22236   0.50001   0.33449   0.00000  Uiso   1.00
C332   C     0.16906   0.50000   0.33645   0.00000  Uiso   1.00
N333   N     0.50002   0.13529   0.67844   0.00000  Uiso   1.00
O334   O     0.50004   0.18597   0.73004   0.00000  Uiso   1.00
C335   C     0.50001   0.20170   0.74804   0.00000  Uiso   1.00
C336   C     0.50002   0.31078   0.65487   0.00000  Uiso   1.00
H337   H     0.23925   0.50003   0.32061   0.00000  Uiso   1.00
H338   H     0.52056   0.17173   0.75639   0.00000  Uiso   1.00
H339   H     0.52063   0.24005   0.74931   0.00000  Uiso   1.00
H340   H     0.45880   0.20594   0.75283   0.00000  Uiso   1.00
H341   H     0.52061   0.31768   0.66793   0.00000  Uiso   1.00
H342   H     0.52062   0.33238   0.64388   0.00000  Uiso   1.00
H343   H     0.45882   0.32504   0.65590   0.00000  Uiso   1.00
H344   H     0.11112   0.49997   0.24455   0.00000  Uiso   1.00
H345   H     0.04708   0.49999   0.30822   0.00000  Uiso   1.00
H346   H     0.19399   0.49997   0.30261   0.00000  Uiso   1.00
H347   H     0.10482   0.49989   0.35512   0.00000  Uiso   1.00
H348   H     0.16297   0.49996   0.38190   0.00000  Uiso   1.00
C349   C     0.99997   0.90303   0.00879   0.00000  Uiso   1.00
C350   C     0.99996   0.86732   0.02289   0.00000  Uiso   1.00
C351   C     0.99995   0.88552   0.04054   0.00000  Uiso   1.00
C352   C     0.99998   0.93853   0.04401   0.00000  Uiso   1.00
C353   C     0.99998   0.97229   0.02984   0.00000  Uiso   1.00
C354   C    -0.00001   0.95533   0.01260   0.00000  Uiso   1.00
C355   C     0.99997   0.84898   0.05532   0.00000  Uiso   1.00
C356   C     0.99995   0.85179   0.10334   0.00000  Uiso   1.00
C357   C     0.99997   0.81981   0.11807   0.00000  Uiso   1.00
C358   C     0.00001   0.76607   0.11665   0.00000  Uiso   1.00
C359   C    -0.00001   0.74516   0.09918   0.00000  Uiso   1.00
C360   C     0.00001   0.77764   0.08449   0.00000  Uiso   1.00
C361   C     0.00000   0.83094   0.08645   0.00000  Uiso   1.00
N362   N     0.63529   0.49998   0.42844   0.00000  Uiso   1.00
O363   O     0.68597   0.49996   0.48004   0.00000  Uiso   1.00
C364   C     0.70170   0.49999   0.49804   0.00000  Uiso   1.00
C365   C     0.81078   0.49998   0.40487   0.00000  Uiso   1.00
H366   H     0.00003   0.76075   0.07061   0.00000  Uiso   1.00
H367   H     0.67173   0.47944   0.50639   0.00000  Uiso   1.00
H368   H     0.74005   0.47937   0.49931   0.00000  Uiso   1.00
H369   H     0.70594   0.54120   0.50283   0.00000  Uiso   1.00
H370   H     0.81768   0.47939   0.41793   0.00000  Uiso   1.00
H371   H     0.83238   0.47938   0.39388   0.00000  Uiso   1.00
H372   H     0.82504   0.54118   0.40590   0.00000  Uiso   1.00
H373   H     0.99997   0.88888   0.99455   0.00000  Uiso   1.00
H374   H    -0.00001   0.95292   0.05822   0.00000  Uiso   1.00
H375   H     0.99997   0.80601   0.05261   0.00000  Uiso   1.00
H376   H     0.99989   0.89518   0.10512   0.00000  Uiso   1.00
H377   H     0.99996   0.83703   0.13190   0.00000  Uiso   1.00
C378   C     0.49997   0.40303   0.50879   0.00000  Uiso   1.00
C379   C     0.49996   0.36732   0.52289   0.00000  Uiso   1.00
C380   C     0.49995   0.38552   0.54054   0.00000  Uiso   1.00
C381   C     0.49998   0.43853   0.54401   0.00000  Uiso   1.00
C382   C     0.49998   0.47229   0.52984   0.00000  Uiso   1.00
C383   C     0.49999   0.45533   0.51260   0.00000  Uiso   1.00
C384   C     0.49997   0.34898   0.55532   0.00000  Uiso   1.00
C385   C     0.49995   0.35179   0.60334   0.00000  Uiso   1.00
C386   C     0.49997   0.31981   0.61807   0.00000  Uiso   1.00
C387   C     0.50001   0.26607   0.61665   0.00000  Uiso   1.00
C388   C     0.49999   0.24516   0.59918   0.00000  Uiso   1.00
C389   C     0.50001   0.27764   0.58449   0.00000  Uiso   1.00
C390   C     0.50000   0.33094   0.58645   0.00000  Uiso   1.00
N391   N     0.13529   0.99998   0.92844   0.00000  Uiso   1.00
O392   O     0.18597   0.99996   0.98004   0.00000  Uiso   1.00
C393   C     0.20170  -0.00001   0.99804   0.00000  Uiso   1.00
C394   C     0.31078   0.99998   0.90487   0.00000  Uiso   1.00
H395   H     0.50003   0.26075   0.57061   0.00000  Uiso   1.00
H396   H     0.17173   0.97944   0.00639   0.00000  Uiso   1.00
H397   H     0.24005   0.97937   0.99931   0.00000  Uiso   1.00
H398   H     0.20594   0.04120   0.00283   0.00000  Uiso   1.00
H399   H     0.31768   0.97939   0.91793   0.00000  Uiso   1.00
H400   H     0.33238   0.97938   0.89388   0.00000  Uiso   1.00
H401   H     0.32504   0.04118   0.90590   0.00000  Uiso   1.00
H402   H     0.49997   0.38888   0.49455   0.00000  Uiso   1.00
H403   H     0.49999   0.45292   0.55822   0.00000  Uiso   1.00
H404   H     0.49997   0.30601   0.55261   0.00000  Uiso   1.00
H405   H     0.49989   0.39518   0.60512   0.00000  Uiso   1.00
H406   H     0.49996   0.33703   0.63190   0.00000  Uiso   1.00
C407   C     0.50003   0.59697   0.50879   0.00000  Uiso   1.00
C408   C     0.50004   0.63268   0.52289   0.00000  Uiso   1.00
C409   C     0.50005   0.61448   0.54054   0.00000  Uiso   1.00
C410   C     0.50002   0.56147   0.54401   0.00000  Uiso   1.00
C411   C     0.50002   0.52771   0.52984   0.00000  Uiso   1.00
C412   C     0.50001   0.54467   0.51260   0.00000  Uiso   1.00
C413   C     0.50003   0.65102   0.55532   0.00000  Uiso   1.00
C414   C     0.50005   0.64821   0.60334   0.00000  Uiso   1.00
C415   C     0.50003   0.68019   0.61807   0.00000  Uiso   1.00
C416   C     0.49999   0.73393   0.61665   0.00000  Uiso   1.00
C417   C     0.50001   0.75484   0.59918   0.00000  Uiso   1.00
C418   C     0.49999   0.72236   0.58449   0.00000  Uiso   1.00
C419   C     0.50000   0.66906   0.58645   0.00000  Uiso   1.00
N420   N     0.86471   0.00002   0.92844   0.00000  Uiso   1.00
O421   O     0.81403   0.00004   0.98004   0.00000  Uiso   1.00
C422   C     0.79830   0.00001   0.99804   0.00000  Uiso   1.00
C423   C     0.68922   0.00002   0.90487   0.00000  Uiso   1.00
H424   H     0.49997   0.73925   0.57061   0.00000  Uiso   1.00
H425   H     0.82827   0.02056   0.00639   0.00000  Uiso   1.00
H426   H     0.75995   0.02063   0.99931   0.00000  Uiso   1.00
H427   H     0.79406   0.95880   0.00283   0.00000  Uiso   1.00
H428   H     0.68232   0.02061   0.91793   0.00000  Uiso   1.00
H429   H     0.66762   0.02062   0.89388   0.00000  Uiso   1.00
H430   H     0.67496   0.95882   0.90590   0.00000  Uiso   1.00
H431   H     0.50003   0.61112   0.49455   0.00000  Uiso   1.00
H432   H     0.50001   0.54708   0.55822   0.00000  Uiso   1.00
H433   H     0.50003   0.69399   0.55261   0.00000  Uiso   1.00
H434   H     0.50011   0.60482   0.60512   0.00000  Uiso   1.00
H435   H     0.50004   0.66297   0.63190   0.00000  Uiso   1.00
C436   C     0.00003   0.09697   0.00879   0.00000  Uiso   1.00
C437   C     0.00004   0.13268   0.02289   0.00000  Uiso   1.00
C438   C     0.00005   0.11448   0.04054   0.00000  Uiso   1.00
C439   C     0.00002   0.06147   0.04401   0.00000  Uiso   1.00
C440   C     0.00002   0.02771   0.02984   0.00000  Uiso   1.00
C441   C     0.00001   0.04467   0.01260   0.00000  Uiso   1.00
C442   C     0.00003   0.15102   0.05532   0.00000  Uiso   1.00
C443   C     0.00005   0.14821   0.10334   0.00000  Uiso   1.00
C444   C     0.00003   0.18019   0.11807   0.00000  Uiso   1.00
C445   C     0.99999   0.23393   0.11665   0.00000  Uiso   1.00
C446   C     0.00001   0.25484   0.09918   0.00000  Uiso   1.00
C447   C     0.99999   0.22236   0.08449   0.00000  Uiso   1.00
C448   C     0.00000   0.16906   0.08645   0.00000  Uiso   1.00
N449   N     0.36471   0.50002   0.42844   0.00000  Uiso   1.00
O450   O     0.31403   0.50004   0.48004   0.00000  Uiso   1.00
C451   C     0.29830   0.50001   0.49804   0.00000  Uiso   1.00
C452   C     0.18922   0.50002   0.40487   0.00000  Uiso   1.00
H453   H     0.99997   0.23925   0.07061   0.00000  Uiso   1.00
H454   H     0.32827   0.52056   0.50639   0.00000  Uiso   1.00
H455   H     0.25995   0.52063   0.49931   0.00000  Uiso   1.00
H456   H     0.29406   0.45880   0.50283   0.00000  Uiso   1.00
H457   H     0.18232   0.52061   0.41793   0.00000  Uiso   1.00
H458   H     0.16762   0.52062   0.39388   0.00000  Uiso   1.00
H459   H     0.17496   0.45882   0.40590   0.00000  Uiso   1.00
H460   H     0.00003   0.11112   0.99455   0.00000  Uiso   1.00
H461   H     0.00001   0.04708   0.05822   0.00000  Uiso   1.00
H462   H     0.00003   0.19399   0.05261   0.00000  Uiso   1.00
H463   H     0.00011   0.10482   0.10512   0.00000  Uiso   1.00
H464   H     0.00004   0.16297   0.13190   0.00000  Uiso   1.00
C465   C     0.00000   0.00000   0.00000   0.00000  Uiso   1.00
C466   C     0.50000   0.50000   0.50000   0.00000  Uiso   1.00
C467   C     0.00000   0.50000   0.25000   0.00000  Uiso   1.00
C468   C     0.50000   0.00000   0.75000   0.00000  Uiso   1.00
loop_
_geom_bond_atom_site_label_1
_geom_bond_atom_site_label_2
_geom_bond_distance
_geom_bond_site_symmetry_2
_ccdc_geom_bond_type
C1     C2      1.452   .     S
C1     C6      1.489   1_565 D
C1     H25     1.136   1_556 S
C2     C3      1.415   .     D
C2     O392    1.505   .     S
C3     C4      1.504   .     S
C3     C7      1.505   .     S
C4     C5      1.419   .     D
C4     H26     1.136   1_565 S
C5     C6      1.374   1_565 S
C5     C92     1.548   1_465 S
C6     C1      1.489   1_545 D
C6     C5      1.374   1_545 S
C6     C465    1.564   1_556 S
C7     H27     1.217   .     S
C7     N391    1.292   .     D
C8     C9      1.419   .     D
C8     C13     1.391   1_565 S
C8     H28     1.219   .     S
C9     C10     1.505   1_565 S
C9     H29     1.141   .     S
C10    C9      1.505   1_545 S
C10    C11     1.431   .     D
C10    C271    1.538   1_545 S
C11    C12     1.425   .     S
C11    C394    1.592   1_545 S
C12    C13     1.496   .     D
C12    H18     1.140   .     S
C13    C8      1.391   1_545 S
C13    N391    1.460   1_545 S
N14    C413    1.292   .     D
N14    C419    1.460   .     S
O15    C16     1.416   .     S
O15    C408    1.505   .     S
C16    H19     1.192   .     S
C16    H20     1.220   .     S
C16    H21     1.212   .     S
C17    H22     1.150   .     S
C17    H23     1.171   .     S
C17    H24     1.220   .     S
C17    C417    1.592   .     S
H25    C1      1.136   1_554 S
H26    C4      1.136   1_545 S
C30    C31     1.452   .     S
C30    C35     1.489   .     D
C30    H54     1.136   .     S
C31    C32     1.415   .     D
C31    O363    1.505   .     S
C32    C33     1.504   .     S
C32    C36     1.505   .     S
C33    C34     1.419   .     D
C33    H55     1.136   .     S
C34    C35     1.374   .     S
C34    C63     1.548   .     S
C35    C466    1.564   .     S
C36    H56     1.217   .     S
C36    N362    1.292   .     D
C37    C38     1.419   .     D
C37    C42     1.391   .     S
C37    H57     1.219   .     S
C38    C39     1.505   .     S
C38    H58     1.141   .     S
C39    C40     1.431   .     D
C39    C242    1.538   .     S
C40    C41     1.425   .     S
C40    C365    1.592   .     S
C41    C42     1.496   .     D
C41    H47     1.140   .     S
C42    N362    1.460   .     S
N43    C442    1.292   .     D
N43    C448    1.460   .     S
O44    C45     1.416   .     S
O44    C437    1.505   .     S
C45    H48     1.192   1_554 S
C45    H49     1.220   .     S
C45    H50     1.212   1_454 S
C46    H51     1.150   .     S
C46    H52     1.171   .     S
C46    H53     1.220   1_455 S
C46    C446    1.592   .     S
H48    C45     1.192   1_556 S
H50    C45     1.212   1_656 S
H53    C46     1.220   1_655 S
C59    C60     1.452   .     D
C59    C64     1.489   .     S
C59    H83     1.136   .     S
C60    C61     1.415   .     S
C60    O450    1.505   .     S
C61    C62     1.504   .     D
C61    C65     1.505   .     S
C62    C63     1.419   .     S
C62    H84     1.136   .     S
C63    C64     1.374   .     D
C64    C466    1.564   .     S
C65    H85     1.217   .     S
C65    N449    1.292   .     D
C66    C67     1.419   .     D
C66    C71     1.391   .     S
C66    H86     1.219   .     S
C67    C68     1.505   .     S
C67    H87     1.141   .     S
C68    C69     1.431   .     D
C68    C329    1.538   .     S
C69    C70     1.425   .     S
C69    C452    1.592   .     S
C70    C71     1.496   .     D
C70    H76     1.140   .     S
C71    N449    1.460   .     S
N72    C355    1.292   .     D
N72    C361    1.460   1_655 S
O73    C74     1.416   1_655 S
O73    C350    1.505   .     S
C74    O73     1.416   1_455 S
C74    H77     1.192   1_454 S
C74    H78     1.220   1_455 S
C74    H79     1.212   1_554 S
C75    H80     1.150   .     S
C75    H81     1.171   .     S
C75    H82     1.220   1_655 S
C75    C359    1.592   1_655 S
H77    C74     1.192   1_656 S
H78    C74     1.220   1_655 S
H79    C74     1.212   1_556 S
H82    C75     1.220   1_455 S
C88    C89     1.452   .     D
C88    C93     1.489   .     S
C88    H112    1.136   1_556 S
C89    C90     1.415   .     S
C89    O421    1.505   .     S
C90    C91     1.504   .     D
C90    C94     1.505   .     S
C91    C92     1.419   .     S
C91    H113    1.136   .     S
C92    C5      1.548   1_645 S
C92    C93     1.374   .     D
C93    C465    1.564   1_656 S
C94    H114    1.217   .     S
C94    N420    1.292   .     D
C95    C96     1.419   .     D
C95    C100    1.391   .     S
C95    H115    1.219   .     S
C96    C97     1.505   1_545 S
C96    H116    1.141   .     S
C97    C96     1.505   1_565 S
C97    C98     1.431   1_565 D
C97    C300    1.538   1_565 S
C98    C97     1.431   1_545 D
C98    C99     1.425   1_545 S
C98    C423    1.592   .     S
C99    C98     1.425   1_565 S
C99    C100    1.496   1_565 D
C99    H105    1.140   .     S
C100   C99     1.496   1_545 D
C100   N420    1.460   .     S
N101   C384    1.292   .     D
N101   C390    1.460   .     S
O102   C103    1.416   .     S
O102   C379    1.505   .     S
C103   H106    1.192   .     S
C103   H107    1.220   .     S
C103   H108    1.212   .     S
C104   H109    1.150   .     S
C104   H110    1.171   .     S
C104   H111    1.220   .     S
C104   C388    1.592   .     S
H112   C88     1.136   1_554 S
C117   C118    1.452   .     S
C117   C122    1.489   .     D
C117   H141    1.136   .     S
C118   C119    1.415   .     D
C118   O305    1.505   .     S
C119   C120    1.504   .     S
C119   C123    1.505   .     S
C120   C121    1.419   .     D
C120   H142    1.136   .     S
C121   C122    1.374   .     S
C121   C208    1.548   1_455 S
C122   C467    1.564   .     S
C123   H143    1.217   .     S
C123   N304    1.292   .     D
C124   C125    1.419   .     S
C124   C129    1.391   .     D
C124   H144    1.219   .     S
C125   C126    1.505   .     D
C125   H145    1.141   .     S
C126   C127    1.431   .     S
C126   C358    1.538   .     S
C127   C128    1.425   .     D
C127   C307    1.592   .     S
C128   C129    1.496   .     S
C128   H134    1.140   1_455 S
C129   N304    1.460   .     S
N130   C268    1.292   .     D
N130   C274    1.460   .     S
O131   C132    1.416   .     S
O131   C263    1.505   .     S
C132   H135    1.192   .     S
C132   H136    1.220   .     S
C132   H137    1.212   1_545 S
C133   H138    1.150   .     S
C133   H139    1.171   .     S
C133   H140    1.220   1_545 S
C133   C272    1.592   .     S
H134   C128    1.140   1_655 S
H137   C132    1.212   1_565 S
H140   C133    1.220   1_565 S
C146   C147    1.452   .     S
C146   C151    1.489   .     D
C146   H170    1.136   .     S
C147   C148    1.415   .     D
C147   O334    1.505   .     S
C148   C149    1.504   .     S
C148   C152    1.505   .     S
C149   C150    1.419   .     D
C149   H171    1.136   .     S
C150   C151    1.374   .     S
C150   C179    1.548   1_545 S
C151   C468    1.564   .     S
C152   H172    1.217   .     S
C152   N333    1.292   .     D
C153   C154    1.419   .     S
C153   C158    1.391   .     D
C153   H173    1.219   .     S
C154   C155    1.505   .     D
C154   H174    1.141   .     S
C155   C156    1.431   .     S
C155   C387    1.538   .     S
C156   C157    1.425   .     D
C156   C336    1.592   .     S
C157   C158    1.496   .     S
C157   H163    1.140   .     S
C158   N333    1.460   .     S
N159   C239    1.292   .     D
N159   C245    1.460   .     S
O160   C161    1.416   .     S
O160   C234    1.505   .     S
C161   H164    1.192   .     S
C161   H165    1.220   .     S
C161   H166    1.212   .     S
C162   H167    1.150   .     S
C162   H168    1.171   .     S
C162   H169    1.220   .     S
C162   C243    1.592   .     S
C175   C176    1.452   .     D
C175   C180    1.489   .     S
C175   H199    1.136   .     S
C176   C177    1.415   .     S
C176   O247    1.505   .     S
C177   C178    1.504   .     D
C177   C181    1.505   .     S
C178   C179    1.419   .     S
C178   H200    1.136   .     S
C179   C150    1.548   1_565 S
C179   C180    1.374   .     D
C180   C468    1.564   1_565 S
C181   H201    1.217   .     S
C181   N246    1.292   .     D
C182   C183    1.419   .     D
C182   C187    1.391   .     S
C182   H202    1.219   .     S
C183   C184    1.505   .     S
C183   H203    1.141   .     S
C184   C185    1.431   .     D
C184   C416    1.538   .     S
C185   C186    1.425   .     S
C185   C249    1.592   .     S
C186   C187    1.496   .     D
C186   H192    1.140   .     S
C187   N246    1.460   .     S
N188   C326    1.292   .     D
N188   C332    1.460   .     S
O189   C190    1.416   .     S
O189   C321    1.505   .     S
C190   H193    1.192   .     S
C190   H194    1.220   .     S
C190   H195    1.212   .     S
C191   H196    1.150   .     S
C191   H197    1.171   .     S
C191   H198    1.220   .     S
C191   C330    1.592   .     S
C204   C205    1.452   .     S
C204   C209    1.489   .     D
C204   H228    1.136   .     S
C205   C206    1.415   .     D
C205   O276    1.505   .     S
C206   C207    1.504   .     S
C206   C210    1.505   .     S
C207   C208    1.419   .     D
C207   H229    1.136   1_655 S
C208   C121    1.548   1_655 S
C208   C209    1.374   .     S
C209   C467    1.564   1_655 S
C210   H230    1.217   .     S
C210   N275    1.292   .     D
C211   C212    1.419   .     S
C211   C216    1.391   1_655 D
C211   H231    1.219   .     S
C212   C213    1.505   1_655 D
C212   H232    1.141   .     S
C213   C212    1.505   1_455 D
C213   C214    1.431   1_455 S
C213   C445    1.538   1_455 S
C214   C213    1.431   1_655 S
C214   C215    1.425   1_655 D
C214   C278    1.592   .     S
C215   C214    1.425   1_455 D
C215   C216    1.496   .     S
C215   H221    1.140   .     S
C216   C211    1.391   1_455 D
C216   N275    1.460   1_455 S
N217   C297    1.292   .     D
N217   C303    1.460   1_565 S
O218   C219    1.416   1_565 S
O218   C292    1.505   .     S
C219   O218    1.416   1_545 S
C219   H222    1.192   1_545 S
C219   H223    1.220   1_545 S
C219   H224    1.212   .     S
C220   H225    1.150   .     S
C220   H226    1.171   .     S
C220   H227    1.220   1_565 S
C220   C301    1.592   1_565 S
H222   C219    1.192   1_565 S
H223   C219    1.220   1_565 S
H227   C220    1.220   1_545 S
H229   C207    1.136   1_455 S
C233   C234    1.452   .     S
C233   C238    1.489   .     D
C233   H257    1.136   .     S
C234   C235    1.415   .     D
C235   C236    1.504   .     S
C235   C239    1.505   .     S
C236   C237    1.419   .     D
C236   H258    1.136   .     S
C237   C238    1.374   .     S
C237   C324    1.548   1_655 S
C238   C467    1.564   1_655 S
C239   H259    1.217   .     S
C240   C241    1.419   .     S
C240   C245    1.391   .     D
C240   H260    1.219   .     S
C241   C242    1.505   .     D
C241   H261    1.141   .     S
C242   C243    1.431   .     S
C243   C244    1.425   .     D
C244   C245    1.496   .     S
C244   H250    1.140   .     S
O247   C248    1.416   .     S
C248   H251    1.192   .     S
C248   H252    1.220   .     S
C248   H253    1.212   .     S
C249   H254    1.150   .     S
C249   H255    1.171   .     S
C249   H256    1.220   .     S
C262   C263    1.452   .     S
C262   C267    1.489   .     D
C262   H286    1.136   .     S
C263   C264    1.415   .     D
C264   C265    1.504   .     S
C264   C268    1.505   .     S
C265   C266    1.419   .     D
C265   H287    1.136   .     S
C266   C267    1.374   .     S
C266   C295    1.548   1_545 S
C267   C468    1.564   .     S
C268   H288    1.217   .     S
C269   C270    1.419   .     S
C269   C274    1.391   .     D
C269   H289    1.219   .     S
C270   C271    1.505   1_545 D
C270   H290    1.141   .     S
C271   C270    1.505   1_565 D
C271   C10     1.538   1_565 S
C271   C272    1.431   1_565 S
C272   C271    1.431   1_545 S
C272   C273    1.425   1_545 D
C273   C272    1.425   1_565 D
C273   C274    1.496   1_565 S
C273   H279    1.140   .     S
C274   C273    1.496   1_545 S
N275   C216    1.460   1_655 S
O276   C277    1.416   1_655 S
C277   O276    1.416   1_455 S
C277   H280    1.192   1_455 S
C277   H281    1.220   1_455 S
C277   H282    1.212   .     S
C278   H283    1.150   .     S
C278   H284    1.171   .     S
C278   H285    1.220   1_655 S
H280   C277    1.192   1_655 S
H281   C277    1.220   1_655 S
H285   C278    1.220   1_455 S
C291   C292    1.452   .     S
C291   C296    1.489   1_565 D
C291   H315    1.136   .     S
C292   C293    1.415   .     D
C293   C294    1.504   .     S
C293   C297    1.505   .     S
C294   C295    1.419   .     D
C294   H316    1.136   1_565 S
C295   C266    1.548   1_565 S
C295   C296    1.374   1_565 S
C296   C295    1.374   1_545 S
C296   C291    1.489   1_545 D
C296   C468    1.564   .     S
C297   H317    1.217   .     S
C298   C299    1.419   .     S
C298   C303    1.391   1_565 D
C298   H318    1.219   .     S
C299   C300    1.505   1_565 D
C299   H319    1.141   .     S
C300   C299    1.505   1_545 D
C300   C97     1.538   1_545 S
C300   C301    1.431   .     S
C301   C220    1.592   1_545 S
C301   C302    1.425   .     D
C302   C303    1.496   .     S
C302   H308    1.140   .     S
C303   N217    1.460   1_545 S
C303   C298    1.391   1_545 D
O305   C306    1.416   .     S
C306   H309    1.192   .     S
C306   H310    1.220   .     S
C306   H311    1.212   1_455 S
C307   H312    1.150   .     S
C307   H313    1.171   .     S
C307   H314    1.220   1_455 S
H311   C306    1.212   1_655 S
H314   C307    1.220   1_655 S
H316   C294    1.136   1_545 S
C320   C321    1.452   .     S
C320   C325    1.489   .     D
C320   H344    1.136   .     S
C321   C322    1.415   .     D
C322   C323    1.504   .     S
C322   C326    1.505   .     S
C323   C324    1.419   .     D
C323   H345    1.136   .     S
C324   C237    1.548   1_455 S
C324   C325    1.374   .     S
C325   C467    1.564   .     S
C326   H346    1.217   .     S
C327   C328    1.419   .     S
C327   C332    1.391   .     D
C327   H347    1.219   .     S
C328   C329    1.505   .     D
C328   H348    1.141   .     S
C329   C330    1.431   .     S
C330   C331    1.425   .     D
C331   C332    1.496   .     S
C331   H337    1.140   .     S
O334   C335    1.416   .     S
C335   H338    1.192   .     S
C335   H339    1.220   .     S
C335   H340    1.212   .     S
C336   H341    1.150   .     S
C336   H342    1.171   .     S
C336   H343    1.220   .     S
C349   C350    1.452   .     S
C349   C354    1.489   1_655 D
C349   H373    1.136   1_554 S
C350   C351    1.415   .     D
C351   C352    1.504   .     S
C351   C355    1.505   .     S
C352   C353    1.419   .     D
C352   H374    1.136   1_655 S
C353   C354    1.374   1_655 S
C353   C440    1.548   1_665 S
C354   C349    1.489   1_455 D
C354   C353    1.374   1_455 S
C354   C465    1.564   1_565 S
C355   H375    1.217   .     S
C356   C357    1.419   .     D
C356   C361    1.391   1_655 S
C356   H376    1.219   .     S
C357   C358    1.505   1_655 S
C357   H377    1.141   .     S
C358   C357    1.505   1_455 S
C358   C359    1.431   .     D
C359   C75     1.592   1_455 S
C359   C360    1.425   .     S
C360   C361    1.496   .     D
C360   H366    1.140   .     S
C361   N72     1.460   1_455 S
C361   C356    1.391   1_455 S
O363   C364    1.416   .     S
C364   H367    1.192   .     S
C364   H368    1.220   .     S
C364   H369    1.212   .     S
C365   H370    1.150   .     S
C365   H371    1.171   .     S
C365   H372    1.220   .     S
H373   C349    1.136   1_556 S
H374   C352    1.136   1_455 S
C378   C379    1.452   .     S
C378   C383    1.489   .     D
C378   H402    1.136   .     S
C379   C380    1.415   .     D
C380   C381    1.504   .     S
C380   C384    1.505   .     S
C381   C382    1.419   .     D
C381   H403    1.136   .     S
C382   C383    1.374   .     S
C382   C411    1.548   .     S
C383   C466    1.564   .     S
C384   H404    1.217   .     S
C385   C386    1.419   .     D
C385   C390    1.391   .     S
C385   H405    1.219   .     S
C386   C387    1.505   .     S
C386   H406    1.141   .     S
C387   C388    1.431   .     D
C388   C389    1.425   .     S
C389   C390    1.496   .     D
C389   H395    1.140   .     S
N391   C13     1.460   1_565 S
O392   C393    1.416   1_565 S
C393   O392    1.416   1_545 S
C393   H396    1.192   1_546 S
C393   H397    1.220   1_545 S
C393   H398    1.212   1_556 S
C394   C11     1.592   1_565 S
C394   H399    1.150   .     S
C394   H400    1.171   .     S
C394   H401    1.220   1_565 S
H396   C393    1.192   1_564 S
H397   C393    1.220   1_565 S
H398   C393    1.212   1_554 S
H401   C394    1.220   1_545 S
C407   C408    1.452   .     D
C407   C412    1.489   .     S
C407   H431    1.136   .     S
C408   C409    1.415   .     S
C409   C410    1.504   .     D
C409   C413    1.505   .     S
C410   C411    1.419   .     S
C410   H432    1.136   .     S
C411   C412    1.374   .     D
C412   C466    1.564   .     S
C413   H433    1.217   .     S
C414   C415    1.419   .     S
C414   C419    1.391   .     D
C414   H434    1.219   .     S
C415   C416    1.505   .     D
C415   H435    1.141   .     S
C416   C417    1.431   .     S
C417   C418    1.425   .     D
C418   C419    1.496   .     S
C418   H424    1.140   .     S
O421   C422    1.416   .     S
C422   H425    1.192   1_556 S
C422   H426    1.220   .     S
C422   H427    1.212   1_546 S
C423   H428    1.150   .     S
C423   H429    1.171   .     S
C423   H430    1.220   1_545 S
H425   C422    1.192   1_554 S
H427   C422    1.212   1_564 S
H430   C423    1.220   1_565 S
C436   C437    1.452   .     S
C436   C441    1.489   .     D
C436   H460    1.136   1_554 S
C437   C438    1.415   .     D
C438   C439    1.504   .     S
C438   C442    1.505   .     S
C439   C440    1.419   .     D
C439   H461    1.136   .     S
C440   C353    1.548   1_445 S
C440   C441    1.374   .     S
C441   C465    1.564   .     S
C442   H462    1.217   .     S
C443   C444    1.419   .     D
C443   C448    1.391   .     S
C443   H463    1.219   .     S
C444   C445    1.505   1_455 S
C444   H464    1.141   .     S
C445   C444    1.505   1_655 S
C445   C213    1.538   1_655 S
C445   C446    1.431   1_655 D
C446   C445    1.431   1_455 D
C446   C447    1.425   1_455 S
C447   C446    1.425   1_655 S
C447   C448    1.496   1_655 D
C447   H453    1.140   .     S
C448   C447    1.496   1_455 D
O450   C451    1.416   .     S
C451   H454    1.192   .     S
C451   H455    1.220   .     S
C451   H456    1.212   .     S
C452   H457    1.150   .     S
C452   H458    1.171   .     S
C452   H459    1.220   .     S
H460   C436    1.136   1_556 S
C465   C354    1.564   1_545 S
C465   C93     1.564   1_454 S
C465   C6      1.564   1_554 S
C467   C209    1.564   1_455 S
C467   C238    1.564   1_455 S
C468   C180    1.564   1_545 S
