data_283
_audit_creation_date              2023-09-08
_audit_creation_method            'Materials Studio'
_symmetry_space_group_name_H-M    'P1'
_symmetry_Int_Tables_number       1
_symmetry_cell_setting            triclinic
loop_
_symmetry_equiv_pos_as_xyz
  x,y,z
_cell_length_a                    26.4616
_cell_length_b                    26.4616
_cell_length_c                    24.9644
_cell_angle_alpha                 90.0000
_cell_angle_beta                  90.0000
_cell_angle_gamma                 90.0000
loop_
_atom_site_label
_atom_site_type_symbol
_atom_site_fract_x
_atom_site_fract_y
_atom_site_fract_z
_atom_site_U_iso_or_equiv
_atom_site_adp_type
_atom_site_occupancy
C1     C     0.49347   0.59533   0.47347   0.00000  Uiso   1.00
C2     C     0.49103   0.63052   0.43078   0.00000  Uiso   1.00
C3     C     0.49219   0.61271   0.37718   0.00000  Uiso   1.00
C4     C     0.49577   0.56058   0.36649   0.00000  Uiso   1.00
C5     C     0.49812   0.52728   0.40945   0.00000  Uiso   1.00
C6     C     0.49699   0.54392   0.46179   0.00000  Uiso   1.00
N7     N     0.49020   0.63372   0.28311   0.00000  Uiso   1.00
C8     C     0.48965   0.64885   0.33250   0.00000  Uiso   1.00
C9     C     0.48065   0.71933   0.24482   0.00000  Uiso   1.00
C10    C     0.47994   0.75149   0.20043   0.00000  Uiso   1.00
C11    C     0.49201   0.73268   0.14830   0.00000  Uiso   1.00
C12    C     0.48526   0.67940   0.14222   0.00000  Uiso   1.00
C13    C     0.48599   0.64760   0.18689   0.00000  Uiso   1.00
C14    C     0.48787   0.66745   0.23836   0.00000  Uiso   1.00
O15    O     0.48745   0.68292   0.43979   0.00000  Uiso   1.00
C16    C     0.48646   0.69830   0.49445   0.00000  Uiso   1.00
C17    C     0.45382   0.80072   0.20938   0.00000  Uiso   1.00
C18    C     0.46445   0.65602   0.09253   0.00000  Uiso   1.00
H19    H     0.46624   0.66840   0.51938   0.00000  Uiso   1.00
H20    H     0.46554   0.73581   0.49805   0.00000  Uiso   1.00
H21    H     0.52681   0.70300   0.50966   0.00000  Uiso   1.00
H22    H     0.42035   0.79486   0.23746   0.00000  Uiso   1.00
H23    H     0.43977   0.81617   0.16944   0.00000  Uiso   1.00
H24    H     0.48136   0.82875   0.22808   0.00000  Uiso   1.00
H25    H     0.47387   0.61398   0.09201   0.00000  Uiso   1.00
H26    H     0.48188   0.67504   0.05596   0.00000  Uiso   1.00
H27    H     0.42168   0.66116   0.09163   0.00000  Uiso   1.00
H28    H     0.49255   0.60917   0.51670   0.00000  Uiso   1.00
H29    H     0.49669   0.54653   0.32334   0.00000  Uiso   1.00
H30    H     0.48713   0.69111   0.34096   0.00000  Uiso   1.00
H31    H     0.47529   0.73543   0.28680   0.00000  Uiso   1.00
H32    H     0.48504   0.60485   0.18132   0.00000  Uiso   1.00
C33    C     0.99347   0.09533   0.97347   0.00000  Uiso   1.00
C34    C     0.99103   0.13052   0.93078   0.00000  Uiso   1.00
C35    C     0.99219   0.11271   0.87718   0.00000  Uiso   1.00
C36    C     0.99577   0.06058   0.86649   0.00000  Uiso   1.00
C37    C     0.99812   0.02728   0.90945   0.00000  Uiso   1.00
C38    C     0.99699   0.04392   0.96179   0.00000  Uiso   1.00
N39    N     0.99020   0.13372   0.78311   0.00000  Uiso   1.00
C40    C     0.98965   0.14885   0.83250   0.00000  Uiso   1.00
C41    C     0.98065   0.21933   0.74482   0.00000  Uiso   1.00
C42    C     0.97994   0.25149   0.70043   0.00000  Uiso   1.00
C43    C     0.99201   0.23268   0.64830   0.00000  Uiso   1.00
C44    C     0.98526   0.17940   0.64222   0.00000  Uiso   1.00
C45    C     0.98599   0.14760   0.68689   0.00000  Uiso   1.00
C46    C     0.98787   0.16745   0.73836   0.00000  Uiso   1.00
O47    O     0.98745   0.18292   0.93979   0.00000  Uiso   1.00
C48    C     0.98646   0.19830   0.99445   0.00000  Uiso   1.00
C49    C     0.95382   0.30072   0.70938   0.00000  Uiso   1.00
C50    C     0.96445   0.15602   0.59253   0.00000  Uiso   1.00
H51    H     0.96624   0.16840   0.01938   0.00000  Uiso   1.00
H52    H     0.96554   0.23581   0.99805   0.00000  Uiso   1.00
H53    H     0.02681   0.20300   0.00966   0.00000  Uiso   1.00
H54    H     0.92035   0.29486   0.73746   0.00000  Uiso   1.00
H55    H     0.93977   0.31617   0.66944   0.00000  Uiso   1.00
H56    H     0.98136   0.32875   0.72808   0.00000  Uiso   1.00
H57    H     0.97387   0.11398   0.59201   0.00000  Uiso   1.00
H58    H     0.98188   0.17504   0.55596   0.00000  Uiso   1.00
H59    H     0.92168   0.16116   0.59163   0.00000  Uiso   1.00
H60    H     0.99255   0.10917   0.01670   0.00000  Uiso   1.00
H61    H     0.99669   0.04653   0.82334   0.00000  Uiso   1.00
H62    H     0.98713   0.19111   0.84096   0.00000  Uiso   1.00
H63    H     0.97529   0.23543   0.78680   0.00000  Uiso   1.00
H64    H     0.98504   0.10485   0.68132   0.00000  Uiso   1.00
C65    C     0.00653   0.90467   0.97347   0.00000  Uiso   1.00
C66    C     0.00897   0.86948   0.93078   0.00000  Uiso   1.00
C67    C     0.00781   0.88729   0.87718   0.00000  Uiso   1.00
C68    C     0.00423   0.93942   0.86649   0.00000  Uiso   1.00
C69    C     0.00188   0.97272   0.90945   0.00000  Uiso   1.00
C70    C     0.00301   0.95608   0.96179   0.00000  Uiso   1.00
N71    N     0.00980   0.86628   0.78311   0.00000  Uiso   1.00
C72    C     0.01035   0.85115   0.83250   0.00000  Uiso   1.00
C73    C     0.01935   0.78067   0.74482   0.00000  Uiso   1.00
C74    C     0.02006   0.74851   0.70043   0.00000  Uiso   1.00
C75    C     0.00799   0.76732   0.64830   0.00000  Uiso   1.00
C76    C     0.01474   0.82060   0.64222   0.00000  Uiso   1.00
C77    C     0.01401   0.85240   0.68689   0.00000  Uiso   1.00
C78    C     0.01213   0.83255   0.73836   0.00000  Uiso   1.00
O79    O     0.01255   0.81708   0.93979   0.00000  Uiso   1.00
C80    C     0.01354   0.80170   0.99445   0.00000  Uiso   1.00
C81    C     0.04618   0.69928   0.70938   0.00000  Uiso   1.00
C82    C     0.03555   0.84398   0.59253   0.00000  Uiso   1.00
H83    H     0.03376   0.83160   0.01938   0.00000  Uiso   1.00
H84    H     0.03446   0.76419   0.99805   0.00000  Uiso   1.00
H85    H     0.97319   0.79700   0.00966   0.00000  Uiso   1.00
H86    H     0.07965   0.70514   0.73746   0.00000  Uiso   1.00
H87    H     0.06023   0.68383   0.66944   0.00000  Uiso   1.00
H88    H     0.01864   0.67125   0.72808   0.00000  Uiso   1.00
H89    H     0.02613   0.88602   0.59201   0.00000  Uiso   1.00
H90    H     0.01812   0.82496   0.55596   0.00000  Uiso   1.00
H91    H     0.07832   0.83884   0.59163   0.00000  Uiso   1.00
H92    H     0.00745   0.89083   0.01670   0.00000  Uiso   1.00
H93    H     0.00331   0.95347   0.82334   0.00000  Uiso   1.00
H94    H     0.01287   0.80889   0.84096   0.00000  Uiso   1.00
H95    H     0.02471   0.76457   0.78680   0.00000  Uiso   1.00
H96    H     0.01496   0.89515   0.68132   0.00000  Uiso   1.00
C97    C     0.50653   0.40467   0.47347   0.00000  Uiso   1.00
C98    C     0.50897   0.36948   0.43078   0.00000  Uiso   1.00
C99    C     0.50781   0.38729   0.37718   0.00000  Uiso   1.00
C100   C     0.50423   0.43942   0.36649   0.00000  Uiso   1.00
C101   C     0.50188   0.47272   0.40945   0.00000  Uiso   1.00
C102   C     0.50301   0.45608   0.46179   0.00000  Uiso   1.00
N103   N     0.50980   0.36628   0.28311   0.00000  Uiso   1.00
C104   C     0.51035   0.35115   0.33250   0.00000  Uiso   1.00
C105   C     0.51935   0.28067   0.24482   0.00000  Uiso   1.00
C106   C     0.52006   0.24851   0.20043   0.00000  Uiso   1.00
C107   C     0.50799   0.26732   0.14830   0.00000  Uiso   1.00
C108   C     0.51474   0.32060   0.14222   0.00000  Uiso   1.00
C109   C     0.51401   0.35240   0.18689   0.00000  Uiso   1.00
C110   C     0.51213   0.33255   0.23836   0.00000  Uiso   1.00
O111   O     0.51255   0.31708   0.43979   0.00000  Uiso   1.00
C112   C     0.51354   0.30170   0.49445   0.00000  Uiso   1.00
C113   C     0.54618   0.19928   0.20938   0.00000  Uiso   1.00
C114   C     0.53555   0.34398   0.09253   0.00000  Uiso   1.00
H115   H     0.53376   0.33160   0.51938   0.00000  Uiso   1.00
H116   H     0.53446   0.26419   0.49805   0.00000  Uiso   1.00
H117   H     0.47319   0.29700   0.50966   0.00000  Uiso   1.00
H118   H     0.57965   0.20514   0.23746   0.00000  Uiso   1.00
H119   H     0.56023   0.18383   0.16944   0.00000  Uiso   1.00
H120   H     0.51864   0.17125   0.22808   0.00000  Uiso   1.00
H121   H     0.52613   0.38602   0.09201   0.00000  Uiso   1.00
H122   H     0.51812   0.32496   0.05596   0.00000  Uiso   1.00
H123   H     0.57832   0.33884   0.09163   0.00000  Uiso   1.00
H124   H     0.50745   0.39083   0.51670   0.00000  Uiso   1.00
H125   H     0.50331   0.45347   0.32334   0.00000  Uiso   1.00
H126   H     0.51287   0.30889   0.34096   0.00000  Uiso   1.00
H127   H     0.52471   0.26457   0.28680   0.00000  Uiso   1.00
H128   H     0.51496   0.39515   0.18132   0.00000  Uiso   1.00
C129   C     0.40467   0.99347   0.72347   0.00000  Uiso   1.00
C130   C     0.36948   0.99103   0.68078   0.00000  Uiso   1.00
C131   C     0.38729   0.99219   0.62718   0.00000  Uiso   1.00
C132   C     0.43942   0.99577   0.61649   0.00000  Uiso   1.00
C133   C     0.47272   0.99812   0.65945   0.00000  Uiso   1.00
C134   C     0.45608   0.99699   0.71179   0.00000  Uiso   1.00
N135   N     0.36628   0.99020   0.53311   0.00000  Uiso   1.00
C136   C     0.35115   0.98965   0.58250   0.00000  Uiso   1.00
C137   C     0.28067   0.98065   0.49482   0.00000  Uiso   1.00
C138   C     0.24851   0.97994   0.45043   0.00000  Uiso   1.00
C139   C     0.26732   0.99201   0.39830   0.00000  Uiso   1.00
C140   C     0.32060   0.98526   0.39222   0.00000  Uiso   1.00
C141   C     0.35240   0.98599   0.43689   0.00000  Uiso   1.00
C142   C     0.33255   0.98787   0.48836   0.00000  Uiso   1.00
O143   O     0.31708   0.98745   0.68979   0.00000  Uiso   1.00
C144   C     0.30170   0.98646   0.74445   0.00000  Uiso   1.00
C145   C     0.19928   0.95382   0.45938   0.00000  Uiso   1.00
C146   C     0.34398   0.96445   0.34253   0.00000  Uiso   1.00
H147   H     0.33160   0.96624   0.76938   0.00000  Uiso   1.00
H148   H     0.26419   0.96554   0.74805   0.00000  Uiso   1.00
H149   H     0.29700   0.02681   0.75966   0.00000  Uiso   1.00
H150   H     0.20514   0.92035   0.48746   0.00000  Uiso   1.00
H151   H     0.18383   0.93977   0.41944   0.00000  Uiso   1.00
H152   H     0.17125   0.98136   0.47808   0.00000  Uiso   1.00
H153   H     0.38602   0.97387   0.34201   0.00000  Uiso   1.00
H154   H     0.32496   0.98188   0.30596   0.00000  Uiso   1.00
H155   H     0.33884   0.92168   0.34163   0.00000  Uiso   1.00
H156   H     0.39083   0.99255   0.76670   0.00000  Uiso   1.00
H157   H     0.45347   0.99669   0.57334   0.00000  Uiso   1.00
H158   H     0.30889   0.98713   0.59096   0.00000  Uiso   1.00
H159   H     0.26457   0.97529   0.53680   0.00000  Uiso   1.00
H160   H     0.39515   0.98504   0.43132   0.00000  Uiso   1.00
C161   C     0.90467   0.49347   0.22347   0.00000  Uiso   1.00
C162   C     0.86948   0.49103   0.18078   0.00000  Uiso   1.00
C163   C     0.88729   0.49219   0.12718   0.00000  Uiso   1.00
C164   C     0.93942   0.49577   0.11649   0.00000  Uiso   1.00
C165   C     0.97272   0.49812   0.15945   0.00000  Uiso   1.00
C166   C     0.95608   0.49699   0.21179   0.00000  Uiso   1.00
N167   N     0.86628   0.49020   0.03311   0.00000  Uiso   1.00
C168   C     0.85115   0.48965   0.08250   0.00000  Uiso   1.00
C169   C     0.78067   0.48065   0.99482   0.00000  Uiso   1.00
C170   C     0.74851   0.47994   0.95043   0.00000  Uiso   1.00
C171   C     0.76732   0.49201   0.89830   0.00000  Uiso   1.00
C172   C     0.82060   0.48526   0.89222   0.00000  Uiso   1.00
C173   C     0.85240   0.48599   0.93689   0.00000  Uiso   1.00
C174   C     0.83255   0.48787   0.98836   0.00000  Uiso   1.00
O175   O     0.81708   0.48745   0.18979   0.00000  Uiso   1.00
C176   C     0.80170   0.48646   0.24445   0.00000  Uiso   1.00
C177   C     0.69928   0.45382   0.95938   0.00000  Uiso   1.00
C178   C     0.84398   0.46445   0.84253   0.00000  Uiso   1.00
H179   H     0.83160   0.46624   0.26938   0.00000  Uiso   1.00
H180   H     0.76419   0.46554   0.24805   0.00000  Uiso   1.00
H181   H     0.79700   0.52681   0.25966   0.00000  Uiso   1.00
H182   H     0.70514   0.42035   0.98746   0.00000  Uiso   1.00
H183   H     0.68383   0.43977   0.91944   0.00000  Uiso   1.00
H184   H     0.67125   0.48136   0.97808   0.00000  Uiso   1.00
H185   H     0.88602   0.47387   0.84201   0.00000  Uiso   1.00
H186   H     0.82496   0.48188   0.80596   0.00000  Uiso   1.00
H187   H     0.83884   0.42168   0.84163   0.00000  Uiso   1.00
H188   H     0.89083   0.49255   0.26670   0.00000  Uiso   1.00
H189   H     0.95347   0.49669   0.07334   0.00000  Uiso   1.00
H190   H     0.80889   0.48713   0.09096   0.00000  Uiso   1.00
H191   H     0.76457   0.47529   0.03680   0.00000  Uiso   1.00
H192   H     0.89515   0.48504   0.93132   0.00000  Uiso   1.00
C193   C     0.09533   0.50653   0.22347   0.00000  Uiso   1.00
C194   C     0.13052   0.50897   0.18078   0.00000  Uiso   1.00
C195   C     0.11271   0.50781   0.12718   0.00000  Uiso   1.00
C196   C     0.06058   0.50423   0.11649   0.00000  Uiso   1.00
C197   C     0.02728   0.50188   0.15945   0.00000  Uiso   1.00
C198   C     0.04392   0.50301   0.21179   0.00000  Uiso   1.00
N199   N     0.13372   0.50980   0.03311   0.00000  Uiso   1.00
C200   C     0.14885   0.51035   0.08250   0.00000  Uiso   1.00
C201   C     0.21933   0.51935   0.99482   0.00000  Uiso   1.00
C202   C     0.25149   0.52006   0.95043   0.00000  Uiso   1.00
C203   C     0.23268   0.50799   0.89830   0.00000  Uiso   1.00
C204   C     0.17940   0.51474   0.89222   0.00000  Uiso   1.00
C205   C     0.14760   0.51401   0.93689   0.00000  Uiso   1.00
C206   C     0.16745   0.51213   0.98836   0.00000  Uiso   1.00
O207   O     0.18292   0.51255   0.18979   0.00000  Uiso   1.00
C208   C     0.19830   0.51354   0.24445   0.00000  Uiso   1.00
C209   C     0.30072   0.54618   0.95938   0.00000  Uiso   1.00
C210   C     0.15602   0.53555   0.84253   0.00000  Uiso   1.00
H211   H     0.16840   0.53376   0.26938   0.00000  Uiso   1.00
H212   H     0.23581   0.53446   0.24805   0.00000  Uiso   1.00
H213   H     0.20300   0.47319   0.25966   0.00000  Uiso   1.00
H214   H     0.29486   0.57965   0.98746   0.00000  Uiso   1.00
H215   H     0.31617   0.56023   0.91944   0.00000  Uiso   1.00
H216   H     0.32875   0.51864   0.97808   0.00000  Uiso   1.00
H217   H     0.11398   0.52613   0.84201   0.00000  Uiso   1.00
H218   H     0.17504   0.51812   0.80596   0.00000  Uiso   1.00
H219   H     0.16116   0.57832   0.84163   0.00000  Uiso   1.00
H220   H     0.10917   0.50745   0.26670   0.00000  Uiso   1.00
H221   H     0.04653   0.50331   0.07334   0.00000  Uiso   1.00
H222   H     0.19111   0.51287   0.09096   0.00000  Uiso   1.00
H223   H     0.23543   0.52471   0.03680   0.00000  Uiso   1.00
H224   H     0.10485   0.51496   0.93132   0.00000  Uiso   1.00
C225   C     0.59533   0.00653   0.72347   0.00000  Uiso   1.00
C226   C     0.63052   0.00897   0.68078   0.00000  Uiso   1.00
C227   C     0.61271   0.00781   0.62718   0.00000  Uiso   1.00
C228   C     0.56058   0.00423   0.61649   0.00000  Uiso   1.00
C229   C     0.52728   0.00188   0.65945   0.00000  Uiso   1.00
C230   C     0.54392   0.00301   0.71179   0.00000  Uiso   1.00
N231   N     0.63372   0.00980   0.53311   0.00000  Uiso   1.00
C232   C     0.64885   0.01035   0.58250   0.00000  Uiso   1.00
C233   C     0.71933   0.01935   0.49482   0.00000  Uiso   1.00
C234   C     0.75149   0.02006   0.45043   0.00000  Uiso   1.00
C235   C     0.73268   0.00799   0.39830   0.00000  Uiso   1.00
C236   C     0.67940   0.01474   0.39222   0.00000  Uiso   1.00
C237   C     0.64760   0.01401   0.43689   0.00000  Uiso   1.00
C238   C     0.66745   0.01213   0.48836   0.00000  Uiso   1.00
O239   O     0.68292   0.01255   0.68979   0.00000  Uiso   1.00
C240   C     0.69830   0.01354   0.74445   0.00000  Uiso   1.00
C241   C     0.80072   0.04618   0.45938   0.00000  Uiso   1.00
C242   C     0.65602   0.03555   0.34253   0.00000  Uiso   1.00
H243   H     0.66840   0.03376   0.76938   0.00000  Uiso   1.00
H244   H     0.73581   0.03446   0.74805   0.00000  Uiso   1.00
H245   H     0.70300   0.97319   0.75966   0.00000  Uiso   1.00
H246   H     0.79486   0.07965   0.48746   0.00000  Uiso   1.00
H247   H     0.81617   0.06023   0.41944   0.00000  Uiso   1.00
H248   H     0.82875   0.01864   0.47808   0.00000  Uiso   1.00
H249   H     0.61398   0.02613   0.34201   0.00000  Uiso   1.00
H250   H     0.67504   0.01812   0.30596   0.00000  Uiso   1.00
H251   H     0.66116   0.07832   0.34163   0.00000  Uiso   1.00
H252   H     0.60917   0.00745   0.76670   0.00000  Uiso   1.00
H253   H     0.54653   0.00331   0.57334   0.00000  Uiso   1.00
H254   H     0.69111   0.01287   0.59096   0.00000  Uiso   1.00
H255   H     0.73543   0.02471   0.53680   0.00000  Uiso   1.00
H256   H     0.60485   0.01496   0.43132   0.00000  Uiso   1.00
C257   C     0.50653   0.90467   0.77653   0.00000  Uiso   1.00
C258   C     0.50897   0.86948   0.81922   0.00000  Uiso   1.00
C259   C     0.50781   0.88729   0.87282   0.00000  Uiso   1.00
C260   C     0.50423   0.93942   0.88351   0.00000  Uiso   1.00
C261   C     0.50188   0.97272   0.84055   0.00000  Uiso   1.00
C262   C     0.50301   0.95608   0.78821   0.00000  Uiso   1.00
N263   N     0.50980   0.86628   0.96689   0.00000  Uiso   1.00
C264   C     0.51035   0.85115   0.91750   0.00000  Uiso   1.00
C265   C     0.51935   0.78067   0.00518   0.00000  Uiso   1.00
C266   C     0.52006   0.74851   0.04957   0.00000  Uiso   1.00
C267   C     0.50799   0.76732   0.10170   0.00000  Uiso   1.00
C268   C     0.51474   0.82060   0.10778   0.00000  Uiso   1.00
C269   C     0.51401   0.85240   0.06311   0.00000  Uiso   1.00
C270   C     0.51213   0.83255   0.01164   0.00000  Uiso   1.00
O271   O     0.51255   0.81708   0.81021   0.00000  Uiso   1.00
C272   C     0.51354   0.80170   0.75555   0.00000  Uiso   1.00
C273   C     0.54618   0.69928   0.04062   0.00000  Uiso   1.00
C274   C     0.53555   0.84398   0.15747   0.00000  Uiso   1.00
H275   H     0.53376   0.83160   0.73062   0.00000  Uiso   1.00
H276   H     0.53446   0.76419   0.75195   0.00000  Uiso   1.00
H277   H     0.47319   0.79700   0.74034   0.00000  Uiso   1.00
H278   H     0.57965   0.70514   0.01254   0.00000  Uiso   1.00
H279   H     0.56023   0.68383   0.08056   0.00000  Uiso   1.00
H280   H     0.51864   0.67125   0.02192   0.00000  Uiso   1.00
H281   H     0.52613   0.88602   0.15799   0.00000  Uiso   1.00
H282   H     0.51812   0.82496   0.19404   0.00000  Uiso   1.00
H283   H     0.57832   0.83884   0.15837   0.00000  Uiso   1.00
H284   H     0.50745   0.89083   0.73330   0.00000  Uiso   1.00
H285   H     0.50331   0.95347   0.92666   0.00000  Uiso   1.00
H286   H     0.51287   0.80889   0.90904   0.00000  Uiso   1.00
H287   H     0.52471   0.76457   0.96320   0.00000  Uiso   1.00
H288   H     0.51496   0.89515   0.06868   0.00000  Uiso   1.00
C289   C     0.00653   0.40467   0.27653   0.00000  Uiso   1.00
C290   C     0.00897   0.36948   0.31922   0.00000  Uiso   1.00
C291   C     0.00781   0.38729   0.37282   0.00000  Uiso   1.00
C292   C     0.00423   0.43942   0.38351   0.00000  Uiso   1.00
C293   C     0.00188   0.47272   0.34055   0.00000  Uiso   1.00
C294   C     0.00301   0.45608   0.28821   0.00000  Uiso   1.00
N295   N     0.00980   0.36628   0.46689   0.00000  Uiso   1.00
C296   C     0.01035   0.35115   0.41750   0.00000  Uiso   1.00
C297   C     0.01935   0.28067   0.50518   0.00000  Uiso   1.00
C298   C     0.02006   0.24851   0.54957   0.00000  Uiso   1.00
C299   C     0.00799   0.26732   0.60170   0.00000  Uiso   1.00
C300   C     0.01474   0.32060   0.60778   0.00000  Uiso   1.00
C301   C     0.01401   0.35240   0.56311   0.00000  Uiso   1.00
C302   C     0.01213   0.33255   0.51164   0.00000  Uiso   1.00
O303   O     0.01255   0.31708   0.31021   0.00000  Uiso   1.00
C304   C     0.01354   0.30170   0.25555   0.00000  Uiso   1.00
C305   C     0.04618   0.19928   0.54062   0.00000  Uiso   1.00
C306   C     0.03555   0.34398   0.65747   0.00000  Uiso   1.00
H307   H     0.03376   0.33160   0.23062   0.00000  Uiso   1.00
H308   H     0.03446   0.26419   0.25195   0.00000  Uiso   1.00
H309   H     0.97319   0.29700   0.24034   0.00000  Uiso   1.00
H310   H     0.07965   0.20514   0.51254   0.00000  Uiso   1.00
H311   H     0.06023   0.18383   0.58056   0.00000  Uiso   1.00
H312   H     0.01864   0.17125   0.52192   0.00000  Uiso   1.00
H313   H     0.02613   0.38602   0.65799   0.00000  Uiso   1.00
H314   H     0.01812   0.32496   0.69404   0.00000  Uiso   1.00
H315   H     0.07832   0.33884   0.65837   0.00000  Uiso   1.00
H316   H     0.00745   0.39083   0.23330   0.00000  Uiso   1.00
H317   H     0.00331   0.45347   0.42666   0.00000  Uiso   1.00
H318   H     0.01287   0.30889   0.40904   0.00000  Uiso   1.00
H319   H     0.02471   0.26457   0.46320   0.00000  Uiso   1.00
H320   H     0.01496   0.39515   0.56868   0.00000  Uiso   1.00
C321   C     0.99347   0.59533   0.27653   0.00000  Uiso   1.00
C322   C     0.99103   0.63052   0.31922   0.00000  Uiso   1.00
C323   C     0.99219   0.61271   0.37282   0.00000  Uiso   1.00
C324   C     0.99577   0.56058   0.38351   0.00000  Uiso   1.00
C325   C     0.99812   0.52728   0.34055   0.00000  Uiso   1.00
C326   C     0.99699   0.54392   0.28821   0.00000  Uiso   1.00
N327   N     0.99020   0.63372   0.46689   0.00000  Uiso   1.00
C328   C     0.98965   0.64885   0.41750   0.00000  Uiso   1.00
C329   C     0.98065   0.71933   0.50518   0.00000  Uiso   1.00
C330   C     0.97994   0.75149   0.54957   0.00000  Uiso   1.00
C331   C     0.99201   0.73268   0.60170   0.00000  Uiso   1.00
C332   C     0.98526   0.67940   0.60778   0.00000  Uiso   1.00
C333   C     0.98599   0.64760   0.56311   0.00000  Uiso   1.00
C334   C     0.98787   0.66745   0.51164   0.00000  Uiso   1.00
O335   O     0.98745   0.68292   0.31021   0.00000  Uiso   1.00
C336   C     0.98646   0.69830   0.25555   0.00000  Uiso   1.00
C337   C     0.95382   0.80072   0.54062   0.00000  Uiso   1.00
C338   C     0.96445   0.65602   0.65747   0.00000  Uiso   1.00
H339   H     0.96624   0.66840   0.23062   0.00000  Uiso   1.00
H340   H     0.96554   0.73581   0.25195   0.00000  Uiso   1.00
H341   H     0.02681   0.70300   0.24034   0.00000  Uiso   1.00
H342   H     0.92035   0.79486   0.51254   0.00000  Uiso   1.00
H343   H     0.93977   0.81617   0.58056   0.00000  Uiso   1.00
H344   H     0.98136   0.82875   0.52192   0.00000  Uiso   1.00
H345   H     0.97387   0.61398   0.65799   0.00000  Uiso   1.00
H346   H     0.98188   0.67504   0.69404   0.00000  Uiso   1.00
H347   H     0.92168   0.66116   0.65837   0.00000  Uiso   1.00
H348   H     0.99255   0.60917   0.23330   0.00000  Uiso   1.00
H349   H     0.99669   0.54653   0.42666   0.00000  Uiso   1.00
H350   H     0.98713   0.69111   0.40904   0.00000  Uiso   1.00
H351   H     0.97529   0.73543   0.46320   0.00000  Uiso   1.00
H352   H     0.98504   0.60485   0.56868   0.00000  Uiso   1.00
C353   C     0.49347   0.09533   0.77653   0.00000  Uiso   1.00
C354   C     0.49103   0.13052   0.81922   0.00000  Uiso   1.00
C355   C     0.49219   0.11271   0.87282   0.00000  Uiso   1.00
C356   C     0.49577   0.06058   0.88351   0.00000  Uiso   1.00
C357   C     0.49812   0.02728   0.84055   0.00000  Uiso   1.00
C358   C     0.49699   0.04392   0.78821   0.00000  Uiso   1.00
N359   N     0.49020   0.13372   0.96689   0.00000  Uiso   1.00
C360   C     0.48965   0.14885   0.91750   0.00000  Uiso   1.00
C361   C     0.48065   0.21933   0.00518   0.00000  Uiso   1.00
C362   C     0.47994   0.25149   0.04957   0.00000  Uiso   1.00
C363   C     0.49201   0.23268   0.10170   0.00000  Uiso   1.00
C364   C     0.48526   0.17940   0.10778   0.00000  Uiso   1.00
C365   C     0.48599   0.14760   0.06311   0.00000  Uiso   1.00
C366   C     0.48787   0.16745   0.01164   0.00000  Uiso   1.00
O367   O     0.48745   0.18292   0.81021   0.00000  Uiso   1.00
C368   C     0.48646   0.19830   0.75555   0.00000  Uiso   1.00
C369   C     0.45382   0.30072   0.04062   0.00000  Uiso   1.00
C370   C     0.46445   0.15602   0.15747   0.00000  Uiso   1.00
H371   H     0.46624   0.16840   0.73062   0.00000  Uiso   1.00
H372   H     0.46554   0.23581   0.75195   0.00000  Uiso   1.00
H373   H     0.52681   0.20300   0.74034   0.00000  Uiso   1.00
H374   H     0.42035   0.29486   0.01254   0.00000  Uiso   1.00
H375   H     0.43977   0.31617   0.08056   0.00000  Uiso   1.00
H376   H     0.48136   0.32875   0.02192   0.00000  Uiso   1.00
H377   H     0.47387   0.11398   0.15799   0.00000  Uiso   1.00
H378   H     0.48188   0.17504   0.19404   0.00000  Uiso   1.00
H379   H     0.42168   0.16116   0.15837   0.00000  Uiso   1.00
H380   H     0.49255   0.10917   0.73330   0.00000  Uiso   1.00
H381   H     0.49669   0.04653   0.92666   0.00000  Uiso   1.00
H382   H     0.48713   0.19111   0.90904   0.00000  Uiso   1.00
H383   H     0.47529   0.23543   0.96320   0.00000  Uiso   1.00
H384   H     0.48504   0.10485   0.06868   0.00000  Uiso   1.00
C385   C     0.59533   0.50653   0.52653   0.00000  Uiso   1.00
C386   C     0.63052   0.50897   0.56922   0.00000  Uiso   1.00
C387   C     0.61271   0.50781   0.62282   0.00000  Uiso   1.00
C388   C     0.56058   0.50423   0.63351   0.00000  Uiso   1.00
C389   C     0.52728   0.50188   0.59055   0.00000  Uiso   1.00
C390   C     0.54392   0.50301   0.53821   0.00000  Uiso   1.00
N391   N     0.63372   0.50980   0.71689   0.00000  Uiso   1.00
C392   C     0.64885   0.51035   0.66750   0.00000  Uiso   1.00
C393   C     0.71933   0.51935   0.75518   0.00000  Uiso   1.00
C394   C     0.75149   0.52006   0.79957   0.00000  Uiso   1.00
C395   C     0.73268   0.50799   0.85170   0.00000  Uiso   1.00
C396   C     0.67940   0.51474   0.85778   0.00000  Uiso   1.00
C397   C     0.64760   0.51401   0.81311   0.00000  Uiso   1.00
C398   C     0.66745   0.51213   0.76164   0.00000  Uiso   1.00
O399   O     0.68292   0.51255   0.56021   0.00000  Uiso   1.00
C400   C     0.69830   0.51354   0.50555   0.00000  Uiso   1.00
C401   C     0.80072   0.54618   0.79062   0.00000  Uiso   1.00
C402   C     0.65602   0.53555   0.90747   0.00000  Uiso   1.00
H403   H     0.66840   0.53376   0.48062   0.00000  Uiso   1.00
H404   H     0.73581   0.53446   0.50195   0.00000  Uiso   1.00
H405   H     0.70300   0.47319   0.49034   0.00000  Uiso   1.00
H406   H     0.79486   0.57965   0.76254   0.00000  Uiso   1.00
H407   H     0.81617   0.56023   0.83056   0.00000  Uiso   1.00
H408   H     0.82875   0.51864   0.77192   0.00000  Uiso   1.00
H409   H     0.61398   0.52613   0.90799   0.00000  Uiso   1.00
H410   H     0.67504   0.51812   0.94404   0.00000  Uiso   1.00
H411   H     0.66116   0.57832   0.90837   0.00000  Uiso   1.00
H412   H     0.60917   0.50745   0.48330   0.00000  Uiso   1.00
H413   H     0.54653   0.50331   0.67666   0.00000  Uiso   1.00
H414   H     0.69111   0.51287   0.65904   0.00000  Uiso   1.00
H415   H     0.73543   0.52471   0.71320   0.00000  Uiso   1.00
H416   H     0.60485   0.51496   0.81868   0.00000  Uiso   1.00
C417   C     0.09533   0.00653   0.02653   0.00000  Uiso   1.00
C418   C     0.13052   0.00897   0.06922   0.00000  Uiso   1.00
C419   C     0.11271   0.00781   0.12282   0.00000  Uiso   1.00
C420   C     0.06058   0.00423   0.13351   0.00000  Uiso   1.00
C421   C     0.02728   0.00188   0.09055   0.00000  Uiso   1.00
C422   C     0.04392   0.00301   0.03821   0.00000  Uiso   1.00
N423   N     0.13372   0.00980   0.21689   0.00000  Uiso   1.00
C424   C     0.14885   0.01035   0.16750   0.00000  Uiso   1.00
C425   C     0.21933   0.01935   0.25518   0.00000  Uiso   1.00
C426   C     0.25149   0.02006   0.29957   0.00000  Uiso   1.00
C427   C     0.23268   0.00799   0.35170   0.00000  Uiso   1.00
C428   C     0.17940   0.01474   0.35778   0.00000  Uiso   1.00
C429   C     0.14760   0.01401   0.31311   0.00000  Uiso   1.00
C430   C     0.16745   0.01213   0.26164   0.00000  Uiso   1.00
O431   O     0.18292   0.01255   0.06021   0.00000  Uiso   1.00
C432   C     0.19830   0.01354   0.00555   0.00000  Uiso   1.00
C433   C     0.30072   0.04618   0.29062   0.00000  Uiso   1.00
C434   C     0.15602   0.03555   0.40747   0.00000  Uiso   1.00
H435   H     0.16840   0.03376   0.98062   0.00000  Uiso   1.00
H436   H     0.23581   0.03446   0.00195   0.00000  Uiso   1.00
H437   H     0.20300   0.97319   0.99034   0.00000  Uiso   1.00
H438   H     0.29486   0.07965   0.26254   0.00000  Uiso   1.00
H439   H     0.31617   0.06023   0.33056   0.00000  Uiso   1.00
H440   H     0.32875   0.01864   0.27192   0.00000  Uiso   1.00
H441   H     0.11398   0.02613   0.40799   0.00000  Uiso   1.00
H442   H     0.17504   0.01812   0.44404   0.00000  Uiso   1.00
H443   H     0.16116   0.07832   0.40837   0.00000  Uiso   1.00
H444   H     0.10917   0.00745   0.98330   0.00000  Uiso   1.00
H445   H     0.04653   0.00331   0.17666   0.00000  Uiso   1.00
H446   H     0.19111   0.01287   0.15904   0.00000  Uiso   1.00
H447   H     0.23543   0.02471   0.21320   0.00000  Uiso   1.00
H448   H     0.10485   0.01496   0.31868   0.00000  Uiso   1.00
C449   C     0.90467   0.99347   0.02653   0.00000  Uiso   1.00
C450   C     0.86948   0.99103   0.06922   0.00000  Uiso   1.00
C451   C     0.88729   0.99219   0.12282   0.00000  Uiso   1.00
C452   C     0.93942   0.99577   0.13351   0.00000  Uiso   1.00
C453   C     0.97272   0.99812   0.09055   0.00000  Uiso   1.00
C454   C     0.95608   0.99699   0.03821   0.00000  Uiso   1.00
N455   N     0.86628   0.99020   0.21689   0.00000  Uiso   1.00
C456   C     0.85115   0.98965   0.16750   0.00000  Uiso   1.00
C457   C     0.78067   0.98065   0.25518   0.00000  Uiso   1.00
C458   C     0.74851   0.97994   0.29957   0.00000  Uiso   1.00
C459   C     0.76732   0.99201   0.35170   0.00000  Uiso   1.00
C460   C     0.82060   0.98526   0.35778   0.00000  Uiso   1.00
C461   C     0.85240   0.98599   0.31311   0.00000  Uiso   1.00
C462   C     0.83255   0.98787   0.26164   0.00000  Uiso   1.00
O463   O     0.81708   0.98745   0.06021   0.00000  Uiso   1.00
C464   C     0.80170   0.98646   0.00555   0.00000  Uiso   1.00
C465   C     0.69928   0.95382   0.29062   0.00000  Uiso   1.00
C466   C     0.84398   0.96445   0.40747   0.00000  Uiso   1.00
H467   H     0.83160   0.96624   0.98062   0.00000  Uiso   1.00
H468   H     0.76419   0.96554   0.00195   0.00000  Uiso   1.00
H469   H     0.79700   0.02681   0.99034   0.00000  Uiso   1.00
H470   H     0.70514   0.92035   0.26254   0.00000  Uiso   1.00
H471   H     0.68383   0.93977   0.33056   0.00000  Uiso   1.00
H472   H     0.67125   0.98136   0.27192   0.00000  Uiso   1.00
H473   H     0.88602   0.97387   0.40799   0.00000  Uiso   1.00
H474   H     0.82496   0.98188   0.44404   0.00000  Uiso   1.00
H475   H     0.83884   0.92168   0.40837   0.00000  Uiso   1.00
H476   H     0.89083   0.99255   0.98330   0.00000  Uiso   1.00
H477   H     0.95347   0.99669   0.17666   0.00000  Uiso   1.00
H478   H     0.80889   0.98713   0.15904   0.00000  Uiso   1.00
H479   H     0.76457   0.97529   0.21320   0.00000  Uiso   1.00
H480   H     0.89515   0.98504   0.31868   0.00000  Uiso   1.00
C481   C     0.40467   0.49347   0.52653   0.00000  Uiso   1.00
C482   C     0.36948   0.49103   0.56922   0.00000  Uiso   1.00
C483   C     0.38729   0.49219   0.62282   0.00000  Uiso   1.00
C484   C     0.43942   0.49577   0.63351   0.00000  Uiso   1.00
C485   C     0.47272   0.49812   0.59055   0.00000  Uiso   1.00
C486   C     0.45608   0.49699   0.53821   0.00000  Uiso   1.00
N487   N     0.36628   0.49020   0.71689   0.00000  Uiso   1.00
C488   C     0.35115   0.48965   0.66750   0.00000  Uiso   1.00
C489   C     0.28067   0.48065   0.75518   0.00000  Uiso   1.00
C490   C     0.24851   0.47994   0.79957   0.00000  Uiso   1.00
C491   C     0.26732   0.49201   0.85170   0.00000  Uiso   1.00
C492   C     0.32060   0.48526   0.85778   0.00000  Uiso   1.00
C493   C     0.35240   0.48599   0.81311   0.00000  Uiso   1.00
C494   C     0.33255   0.48787   0.76164   0.00000  Uiso   1.00
O495   O     0.31708   0.48745   0.56021   0.00000  Uiso   1.00
C496   C     0.30170   0.48646   0.50555   0.00000  Uiso   1.00
C497   C     0.19928   0.45382   0.79062   0.00000  Uiso   1.00
C498   C     0.34398   0.46445   0.90747   0.00000  Uiso   1.00
H499   H     0.33160   0.46624   0.48062   0.00000  Uiso   1.00
H500   H     0.26419   0.46554   0.50195   0.00000  Uiso   1.00
H501   H     0.29700   0.52681   0.49034   0.00000  Uiso   1.00
H502   H     0.20514   0.42035   0.76254   0.00000  Uiso   1.00
H503   H     0.18383   0.43977   0.83056   0.00000  Uiso   1.00
H504   H     0.17125   0.48136   0.77192   0.00000  Uiso   1.00
H505   H     0.38602   0.47387   0.90799   0.00000  Uiso   1.00
H506   H     0.32496   0.48188   0.94404   0.00000  Uiso   1.00
H507   H     0.33884   0.42168   0.90837   0.00000  Uiso   1.00
H508   H     0.39083   0.49255   0.48330   0.00000  Uiso   1.00
H509   H     0.45347   0.49669   0.67666   0.00000  Uiso   1.00
H510   H     0.30889   0.48713   0.65904   0.00000  Uiso   1.00
H511   H     0.26457   0.47529   0.71320   0.00000  Uiso   1.00
H512   H     0.39515   0.48504   0.81868   0.00000  Uiso   1.00
C513   C     0.50000   0.50000   0.50000   0.00000  Uiso   1.00
C514   C     0.00000   0.00000   0.00000   0.00000  Uiso   1.00
C515   C     0.50000   0.00000   0.75000   0.00000  Uiso   1.00
C516   C     0.00000   0.50000   0.25000   0.00000  Uiso   1.00
loop_
_geom_bond_atom_site_label_1
_geom_bond_atom_site_label_2
_geom_bond_distance
_geom_bond_site_symmetry_2
_ccdc_geom_bond_type
C1     C2      1.417   .     S
C1     C6      1.394   .     D
C1     H28     1.140   .     S
C2     C3      1.419   .     D
C2     O15     1.408   .     S
C3     C4      1.408   .     S
C3     C8      1.471   .     S
C4     C5      1.389   .     D
C4     H29     1.140   .     S
C5     C6      1.379   .     S
C5     C101    1.447   .     S
C6     C513    1.506   .     S
N7     C8      1.296   .     D
N7     C14     1.431   .     S
C8     H30     1.140   .     S
C9     C10     1.397   .     S
C9     C14     1.395   .     D
C9     H31     1.140   .     S
C10    C11     1.429   .     D
C10    C17     1.492   .     S
C11    C12     1.429   .     S
C11    C267    1.540   .     S
C12    C13     1.397   .     D
C12    C18     1.492   .     S
C13    C14     1.389   .     S
C13    H32     1.140   .     S
O15    C16     1.424   .     S
C16    H19     1.140   .     S
C16    H20     1.140   .     S
C16    H21     1.140   .     S
C17    H22     1.140   .     S
C17    H23     1.140   .     S
C17    H24     1.140   .     S
C18    H25     1.140   .     S
C18    H26     1.140   .     S
C18    H27     1.140   .     S
C33    C34     1.417   .     S
C33    C38     1.394   .     D
C33    H60     1.140   1_556 S
C34    C35     1.419   .     D
C34    O47     1.408   .     S
C35    C36     1.408   .     S
C35    C40     1.471   .     S
C36    C37     1.389   .     D
C36    H61     1.140   .     S
C37    C38     1.379   .     S
C37    C69     1.447   1_645 S
C38    C514    1.506   1_656 S
N39    C40     1.296   .     D
N39    C46     1.431   .     S
C40    H62     1.140   .     S
C41    C42     1.397   .     S
C41    C46     1.395   .     D
C41    H63     1.140   .     S
C42    C43     1.429   .     D
C42    C49     1.492   .     S
C43    C44     1.429   .     S
C43    C299    1.540   1_655 S
C44    C45     1.397   .     D
C44    C50     1.492   .     S
C45    C46     1.389   .     S
C45    H64     1.140   .     S
O47    C48     1.424   .     S
C48    H51     1.140   1_556 S
C48    H52     1.140   .     S
C48    H53     1.140   1_656 S
C49    H54     1.140   .     S
C49    H55     1.140   .     S
C49    H56     1.140   .     S
C50    H57     1.140   .     S
C50    H58     1.140   .     S
C50    H59     1.140   .     S
H51    C48     1.140   1_554 S
H53    C48     1.140   1_454 S
H60    C33     1.140   1_554 S
C65    C66     1.417   .     S
C65    C70     1.394   .     D
C65    H92     1.140   1_556 S
C66    C67     1.419   .     D
C66    O79     1.408   .     S
C67    C68     1.408   .     S
C67    C72     1.471   .     S
C68    C69     1.389   .     D
C68    H93     1.140   .     S
C69    C37     1.447   1_465 S
C69    C70     1.379   .     S
C70    C514    1.506   1_566 S
N71    C72     1.296   .     D
N71    C78     1.431   .     S
C72    H94     1.140   .     S
C73    C74     1.397   .     S
C73    C78     1.395   .     D
C73    H95     1.140   .     S
C74    C75     1.429   .     D
C74    C81     1.492   .     S
C75    C76     1.429   .     S
C75    C331    1.540   1_455 S
C76    C77     1.397   .     D
C76    C82     1.492   .     S
C77    C78     1.389   .     S
C77    H96     1.140   .     S
O79    C80     1.424   .     S
C80    H83     1.140   1_556 S
C80    H84     1.140   .     S
C80    H85     1.140   1_456 S
C81    H86     1.140   .     S
C81    H87     1.140   .     S
C81    H88     1.140   .     S
C82    H89     1.140   .     S
C82    H90     1.140   .     S
C82    H91     1.140   .     S
H83    C80     1.140   1_554 S
H85    C80     1.140   1_654 S
H92    C65     1.140   1_554 S
C97    C98     1.417   .     S
C97    C102    1.394   .     D
C97    H124    1.140   .     S
C98    C99     1.419   .     D
C98    O111    1.408   .     S
C99    C100    1.408   .     S
C99    C104    1.471   .     S
C100   C101    1.389   .     D
C100   H125    1.140   .     S
C101   C102    1.379   .     S
C102   C513    1.506   .     S
N103   C104    1.296   .     D
N103   C110    1.431   .     S
C104   H126    1.140   .     S
C105   C106    1.397   .     S
C105   C110    1.395   .     D
C105   H127    1.140   .     S
C106   C107    1.429   .     D
C106   C113    1.492   .     S
C107   C108    1.429   .     S
C107   C363    1.540   .     S
C108   C109    1.397   .     D
C108   C114    1.492   .     S
C109   C110    1.389   .     S
C109   H128    1.140   .     S
O111   C112    1.424   .     S
C112   H115    1.140   .     S
C112   H116    1.140   .     S
C112   H117    1.140   .     S
C113   H118    1.140   .     S
C113   H119    1.140   .     S
C113   H120    1.140   .     S
C114   H121    1.140   .     S
C114   H122    1.140   .     S
C114   H123    1.140   .     S
C129   C130    1.417   .     S
C129   C134    1.394   .     D
C129   H156    1.140   .     S
C130   C131    1.419   .     D
C130   O143    1.408   .     S
C131   C132    1.408   .     S
C131   C136    1.471   .     S
C132   C133    1.389   .     D
C132   H157    1.140   .     S
C133   C134    1.379   .     S
C133   C229    1.447   1_565 S
C134   C515    1.506   1_565 S
N135   C136    1.296   .     D
N135   C142    1.431   .     S
C136   H158    1.140   .     S
C137   C138    1.397   .     S
C137   C142    1.395   .     D
C137   H159    1.140   .     S
C138   C139    1.429   .     D
C138   C145    1.492   .     S
C139   C140    1.429   .     S
C139   C427    1.540   1_565 S
C140   C141    1.397   .     D
C140   C146    1.492   .     S
C141   C142    1.389   .     S
C141   H160    1.140   .     S
O143   C144    1.424   .     S
C144   H147    1.140   .     S
C144   H148    1.140   .     S
C144   H149    1.140   1_565 S
C145   H150    1.140   .     S
C145   H151    1.140   .     S
C145   H152    1.140   .     S
C146   H153    1.140   .     S
C146   H154    1.140   .     S
C146   H155    1.140   .     S
H149   C144    1.140   1_545 S
C161   C162    1.417   .     S
C161   C166    1.394   .     D
C161   H188    1.140   .     S
C162   C163    1.419   .     D
C162   O175    1.408   .     S
C163   C164    1.408   .     S
C163   C168    1.471   .     S
C164   C165    1.389   .     D
C164   H189    1.140   .     S
C165   C166    1.379   .     S
C165   C197    1.447   1_655 S
C166   C516    1.506   1_655 S
N167   C168    1.296   .     D
N167   C174    1.431   1_554 S
C168   H190    1.140   .     S
C169   C170    1.397   .     S
C169   C174    1.395   .     D
C169   H191    1.140   1_556 S
C170   C171    1.429   .     D
C170   C177    1.492   .     S
C171   C172    1.429   .     S
C171   C395    1.540   .     S
C172   C173    1.397   .     D
C172   C178    1.492   .     S
C173   C174    1.389   .     S
C173   H192    1.140   .     S
C174   N167    1.431   1_556 S
O175   C176    1.424   .     S
C176   H179    1.140   .     S
C176   H180    1.140   .     S
C176   H181    1.140   .     S
C177   H182    1.140   .     S
C177   H183    1.140   .     S
C177   H184    1.140   .     S
C178   H185    1.140   .     S
C178   H186    1.140   .     S
C178   H187    1.140   .     S
H191   C169    1.140   1_554 S
C193   C194    1.417   .     S
C193   C198    1.394   .     D
C193   H220    1.140   .     S
C194   C195    1.419   .     D
C194   O207    1.408   .     S
C195   C196    1.408   .     S
C195   C200    1.471   .     S
C196   C197    1.389   .     D
C196   H221    1.140   .     S
C197   C165    1.447   1_455 S
C197   C198    1.379   .     S
C198   C516    1.506   .     S
N199   C200    1.296   .     D
N199   C206    1.431   1_554 S
C200   H222    1.140   .     S
C201   C202    1.397   .     S
C201   C206    1.395   .     D
C201   H223    1.140   1_556 S
C202   C203    1.429   .     D
C202   C209    1.492   .     S
C203   C204    1.429   .     S
C203   C491    1.540   .     S
C204   C205    1.397   .     D
C204   C210    1.492   .     S
C205   C206    1.389   .     S
C205   H224    1.140   .     S
C206   N199    1.431   1_556 S
O207   C208    1.424   .     S
C208   H211    1.140   .     S
C208   H212    1.140   .     S
C208   H213    1.140   .     S
C209   H214    1.140   .     S
C209   H215    1.140   .     S
C209   H216    1.140   .     S
C210   H217    1.140   .     S
C210   H218    1.140   .     S
C210   H219    1.140   .     S
H223   C201    1.140   1_554 S
C225   C226    1.417   .     S
C225   C230    1.394   .     D
C225   H252    1.140   .     S
C226   C227    1.419   .     D
C226   O239    1.408   .     S
C227   C228    1.408   .     S
C227   C232    1.471   .     S
C228   C229    1.389   .     D
C228   H253    1.140   .     S
C229   C133    1.447   1_545 S
C229   C230    1.379   .     S
C230   C515    1.506   .     S
N231   C232    1.296   .     D
N231   C238    1.431   .     S
C232   H254    1.140   .     S
C233   C234    1.397   .     S
C233   C238    1.395   .     D
C233   H255    1.140   .     S
C234   C235    1.429   .     D
C234   C241    1.492   .     S
C235   C236    1.429   .     S
C235   C459    1.540   1_545 S
C236   C237    1.397   .     D
C236   C242    1.492   .     S
C237   C238    1.389   .     S
C237   H256    1.140   .     S
O239   C240    1.424   .     S
C240   H243    1.140   .     S
C240   H244    1.140   .     S
C240   H245    1.140   1_545 S
C241   H246    1.140   .     S
C241   H247    1.140   .     S
C241   H248    1.140   .     S
C242   H249    1.140   .     S
C242   H250    1.140   .     S
C242   H251    1.140   .     S
H245   C240    1.140   1_565 S
C257   C258    1.417   .     S
C257   C262    1.394   .     D
C257   H284    1.140   .     S
C258   C259    1.419   .     D
C258   O271    1.408   .     S
C259   C260    1.408   .     S
C259   C264    1.471   .     S
C260   C261    1.389   .     D
C260   H285    1.140   .     S
C261   C262    1.379   .     S
C261   C357    1.447   1_565 S
C262   C515    1.506   1_565 S
N263   C264    1.296   .     D
N263   C270    1.431   1_556 S
C264   H286    1.140   .     S
C265   C266    1.397   .     D
C265   C270    1.395   .     S
C265   H287    1.140   1_554 S
C266   C267    1.429   .     S
C266   C273    1.492   .     S
C267   C268    1.429   .     D
C268   C269    1.397   .     S
C268   C274    1.492   .     S
C269   C270    1.389   .     D
C269   H288    1.140   .     S
C270   N263    1.431   1_554 S
O271   C272    1.424   .     S
C272   H275    1.140   .     S
C272   H276    1.140   .     S
C272   H277    1.140   .     S
C273   H278    1.140   .     S
C273   H279    1.140   .     S
C273   H280    1.140   .     S
C274   H281    1.140   .     S
C274   H282    1.140   .     S
C274   H283    1.140   .     S
H287   C265    1.140   1_556 S
C289   C290    1.417   .     S
C289   C294    1.394   .     D
C289   H316    1.140   .     S
C290   C291    1.419   .     D
C290   O303    1.408   .     S
C291   C292    1.408   .     S
C291   C296    1.471   .     S
C292   C293    1.389   .     D
C292   H317    1.140   .     S
C293   C294    1.379   .     S
C293   C325    1.447   1_455 S
C294   C516    1.506   .     S
N295   C296    1.296   .     D
N295   C302    1.431   .     S
C296   H318    1.140   .     S
C297   C298    1.397   .     S
C297   C302    1.395   .     D
C297   H319    1.140   .     S
C298   C299    1.429   .     D
C298   C305    1.492   .     S
C299   C43     1.540   1_455 S
C299   C300    1.429   .     S
C300   C301    1.397   .     D
C300   C306    1.492   .     S
C301   C302    1.389   .     S
C301   H320    1.140   .     S
O303   C304    1.424   .     S
C304   H307    1.140   .     S
C304   H308    1.140   .     S
C304   H309    1.140   1_455 S
C305   H310    1.140   .     S
C305   H311    1.140   .     S
C305   H312    1.140   .     S
C306   H313    1.140   .     S
C306   H314    1.140   .     S
C306   H315    1.140   .     S
H309   C304    1.140   1_655 S
C321   C322    1.417   .     D
C321   C326    1.394   .     S
C321   H348    1.140   .     S
C322   C323    1.419   .     S
C322   O335    1.408   .     S
C323   C324    1.408   .     D
C323   C328    1.471   .     S
C324   C325    1.389   .     S
C324   H349    1.140   .     S
C325   C293    1.447   1_655 S
C325   C326    1.379   .     D
C326   C516    1.506   1_655 S
N327   C328    1.296   .     D
N327   C334    1.431   .     S
C328   H350    1.140   .     S
C329   C330    1.397   .     D
C329   C334    1.395   .     S
C329   H351    1.140   .     S
C330   C331    1.429   .     S
C330   C337    1.492   .     S
C331   C75     1.540   1_655 S
C331   C332    1.429   .     D
C332   C333    1.397   .     S
C332   C338    1.492   .     S
C333   C334    1.389   .     D
C333   H352    1.140   .     S
O335   C336    1.424   .     S
C336   H339    1.140   .     S
C336   H340    1.140   .     S
C336   H341    1.140   1_655 S
C337   H342    1.140   .     S
C337   H343    1.140   .     S
C337   H344    1.140   .     S
C338   H345    1.140   .     S
C338   H346    1.140   .     S
C338   H347    1.140   .     S
H341   C336    1.140   1_455 S
C353   C354    1.417   .     D
C353   C358    1.394   .     S
C353   H380    1.140   .     S
C354   C355    1.419   .     S
C354   O367    1.408   .     S
C355   C356    1.408   .     D
C355   C360    1.471   .     S
C356   C357    1.389   .     S
C356   H381    1.140   .     S
C357   C261    1.447   1_545 S
C357   C358    1.379   .     D
C358   C515    1.506   .     S
N359   C360    1.296   .     D
N359   C366    1.431   1_556 S
C360   H382    1.140   .     S
C361   C362    1.397   .     D
C361   C366    1.395   .     S
C361   H383    1.140   1_554 S
C362   C363    1.429   .     S
C362   C369    1.492   .     S
C363   C364    1.429   .     D
C364   C365    1.397   .     S
C364   C370    1.492   .     S
C365   C366    1.389   .     D
C365   H384    1.140   .     S
C366   N359    1.431   1_554 S
O367   C368    1.424   .     S
C368   H371    1.140   .     S
C368   H372    1.140   .     S
C368   H373    1.140   .     S
C369   H374    1.140   .     S
C369   H375    1.140   .     S
C369   H376    1.140   .     S
C370   H377    1.140   .     S
C370   H378    1.140   .     S
C370   H379    1.140   .     S
H383   C361    1.140   1_556 S
C385   C386    1.417   .     S
C385   C390    1.394   .     D
C385   H412    1.140   .     S
C386   C387    1.419   .     D
C386   O399    1.408   .     S
C387   C388    1.408   .     S
C387   C392    1.471   .     S
C388   C389    1.389   .     D
C388   H413    1.140   .     S
C389   C390    1.379   .     S
C389   C485    1.447   .     S
C390   C513    1.506   .     S
N391   C392    1.296   .     D
N391   C398    1.431   .     S
C392   H414    1.140   .     S
C393   C394    1.397   .     S
C393   C398    1.395   .     D
C393   H415    1.140   .     S
C394   C395    1.429   .     D
C394   C401    1.492   .     S
C395   C396    1.429   .     S
C396   C397    1.397   .     D
C396   C402    1.492   .     S
C397   C398    1.389   .     S
C397   H416    1.140   .     S
O399   C400    1.424   .     S
C400   H403    1.140   .     S
C400   H404    1.140   .     S
C400   H405    1.140   .     S
C401   H406    1.140   .     S
C401   H407    1.140   .     S
C401   H408    1.140   .     S
C402   H409    1.140   .     S
C402   H410    1.140   .     S
C402   H411    1.140   .     S
C417   C418    1.417   .     S
C417   C422    1.394   .     D
C417   H444    1.140   1_554 S
C418   C419    1.419   .     D
C418   O431    1.408   .     S
C419   C420    1.408   .     S
C419   C424    1.471   .     S
C420   C421    1.389   .     D
C420   H445    1.140   .     S
C421   C422    1.379   .     S
C421   C453    1.447   1_445 S
C422   C514    1.506   .     S
N423   C424    1.296   .     D
N423   C430    1.431   .     S
C424   H446    1.140   .     S
C425   C426    1.397   .     S
C425   C430    1.395   .     D
C425   H447    1.140   .     S
C426   C427    1.429   .     D
C426   C433    1.492   .     S
C427   C139    1.540   1_545 S
C427   C428    1.429   .     S
C428   C429    1.397   .     D
C428   C434    1.492   .     S
C429   C430    1.389   .     S
C429   H448    1.140   .     S
O431   C432    1.424   .     S
C432   H435    1.140   1_554 S
C432   H436    1.140   .     S
C432   H437    1.140   1_544 S
C433   H438    1.140   .     S
C433   H439    1.140   .     S
C433   H440    1.140   .     S
C434   H441    1.140   .     S
C434   H442    1.140   .     S
C434   H443    1.140   .     S
H435   C432    1.140   1_556 S
H437   C432    1.140   1_566 S
H444   C417    1.140   1_556 S
C449   C450    1.417   .     D
C449   C454    1.394   .     S
C449   H476    1.140   1_554 S
C450   C451    1.419   .     S
C450   O463    1.408   .     S
C451   C452    1.408   .     D
C451   C456    1.471   .     S
C452   C453    1.389   .     S
C452   H477    1.140   .     S
C453   C421    1.447   1_665 S
C453   C454    1.379   .     D
C454   C514    1.506   1_665 S
N455   C456    1.296   .     D
N455   C462    1.431   .     S
C456   H478    1.140   .     S
C457   C458    1.397   .     S
C457   C462    1.395   .     D
C457   H479    1.140   .     S
C458   C459    1.429   .     D
C458   C465    1.492   .     S
C459   C235    1.540   1_565 S
C459   C460    1.429   .     S
C460   C461    1.397   .     D
C460   C466    1.492   .     S
C461   C462    1.389   .     S
C461   H480    1.140   .     S
O463   C464    1.424   .     S
C464   H467    1.140   1_554 S
C464   H468    1.140   .     S
C464   H469    1.140   1_564 S
C465   H470    1.140   .     S
C465   H471    1.140   .     S
C465   H472    1.140   .     S
C466   H473    1.140   .     S
C466   H474    1.140   .     S
C466   H475    1.140   .     S
H467   C464    1.140   1_556 S
H469   C464    1.140   1_546 S
H476   C449    1.140   1_556 S
C481   C482    1.417   .     D
C481   C486    1.394   .     S
C481   H508    1.140   .     S
C482   C483    1.419   .     S
C482   O495    1.408   .     S
C483   C484    1.408   .     D
C483   C488    1.471   .     S
C484   C485    1.389   .     S
C484   H509    1.140   .     S
C485   C486    1.379   .     D
C486   C513    1.506   .     S
N487   C488    1.296   .     D
N487   C494    1.431   .     S
C488   H510    1.140   .     S
C489   C490    1.397   .     S
C489   C494    1.395   .     D
C489   H511    1.140   .     S
C490   C491    1.429   .     D
C490   C497    1.492   .     S
C491   C492    1.429   .     S
C492   C493    1.397   .     D
C492   C498    1.492   .     S
C493   C494    1.389   .     S
C493   H512    1.140   .     S
O495   C496    1.424   .     S
C496   H499    1.140   .     S
C496   H500    1.140   .     S
C496   H501    1.140   .     S
C497   H502    1.140   .     S
C497   H503    1.140   .     S
C497   H504    1.140   .     S
C498   H505    1.140   .     S
C498   H506    1.140   .     S
C498   H507    1.140   .     S
C514   C454    1.506   1_445 S
C514   C38     1.506   1_454 S
C514   C70     1.506   1_544 S
C515   C134    1.506   1_545 S
C515   C262    1.506   1_545 S
C516   C166    1.506   1_455 S
C516   C326    1.506   1_455 S
