data_284
_audit_creation_date              2023-09-08
_audit_creation_method            'Materials Studio'
_symmetry_space_group_name_H-M    'P1'
_symmetry_Int_Tables_number       1
_symmetry_cell_setting            triclinic
loop_
_symmetry_equiv_pos_as_xyz
  x,y,z
_cell_length_a                    27.9370
_cell_length_b                    27.9370
_cell_length_c                    74.8012
_cell_angle_alpha                 90.0000
_cell_angle_beta                  90.0000
_cell_angle_gamma                 90.0000
loop_
_atom_site_label
_atom_site_type_symbol
_atom_site_fract_x
_atom_site_fract_y
_atom_site_fract_z
_atom_site_U_iso_or_equiv
_atom_site_adp_type
_atom_site_occupancy
C1     C     0.09371   0.99992   0.99194   0.00000  Uiso   1.00
C2     C     0.12923   0.99989   0.97774   0.00000  Uiso   1.00
C3     C     0.11170   0.99989   0.95977   0.00000  Uiso   1.00
C4     C     0.05949   0.99994   0.95605   0.00000  Uiso   1.00
C5     C     0.02588   0.99998   0.97037   0.00000  Uiso   1.00
C6     C     0.04212   0.99997   0.98793   0.00000  Uiso   1.00
C7     C     0.14825   0.99988   0.94494   0.00000  Uiso   1.00
C8     C     0.14839   0.99985   0.89554   0.00000  Uiso   1.00
C9     C     0.18128   0.99989   0.88096   0.00000  Uiso   1.00
C10    C     0.23427   0.99998   0.88287   0.00000  Uiso   1.00
C11    C     0.25319   0.00002   0.90092   0.00000  Uiso   1.00
C12    C     0.21975   0.99998   0.91544   0.00000  Uiso   1.00
C13    C     0.16742   0.99989   0.91288   0.00000  Uiso   1.00
N14    N     0.50013   0.63298   0.57234   0.00000  Uiso   1.00
O15    O     0.50020   0.68174   0.51913   0.00000  Uiso   1.00
C16    C     0.49984   0.69685   0.50082   0.00000  Uiso   1.00
C17    C     0.49989   0.80784   0.59407   0.00000  Uiso   1.00
H18    H     0.51860   0.66871   0.49221   0.00000  Uiso   1.00
H19    H     0.51948   0.73261   0.49955   0.00000  Uiso   1.00
H20    H     0.46115   0.70127   0.49611   0.00000  Uiso   1.00
H21    H     0.48048   0.82903   0.60495   0.00000  Uiso   1.00
H22    H     0.48066   0.81307   0.58073   0.00000  Uiso   1.00
H23    H     0.53847   0.82118   0.59289   0.00000  Uiso   1.00
H24    H     0.10567   0.99990   0.00655   0.00000  Uiso   1.00
H25    H     0.04604   0.99995   0.94163   0.00000  Uiso   1.00
H26    H     0.18821   0.99988   0.94827   0.00000  Uiso   1.00
H27    H     0.10808   0.99979   0.89287   0.00000  Uiso   1.00
C28    C     0.16733   0.99985   0.86660   0.00000  Uiso   1.00
H29    H     0.23331   0.00002   0.92985   0.00000  Uiso   1.00
H30    H     0.51907   0.80586   0.60756   0.00000  Uiso   1.00
H31    H     0.51921   0.86872   0.61605   0.00000  Uiso   1.00
H32    H     0.46124   0.83738   0.61184   0.00000  Uiso   1.00
C33    C     0.59371   0.49992   0.49194   0.00000  Uiso   1.00
C34    C     0.62923   0.49989   0.47774   0.00000  Uiso   1.00
C35    C     0.61170   0.49989   0.45977   0.00000  Uiso   1.00
C36    C     0.55949   0.49994   0.45605   0.00000  Uiso   1.00
C37    C     0.52588   0.49998   0.47037   0.00000  Uiso   1.00
C38    C     0.54212   0.49997   0.48793   0.00000  Uiso   1.00
C39    C     0.64825   0.49988   0.44494   0.00000  Uiso   1.00
C40    C     0.64839   0.49985   0.39554   0.00000  Uiso   1.00
C41    C     0.68128   0.49989   0.38096   0.00000  Uiso   1.00
C42    C     0.73427   0.49998   0.38287   0.00000  Uiso   1.00
C43    C     0.75319   0.50002   0.40092   0.00000  Uiso   1.00
C44    C     0.71975   0.49998   0.41544   0.00000  Uiso   1.00
C45    C     0.66742   0.49989   0.41288   0.00000  Uiso   1.00
N46    N     0.00013   0.13298   0.07234   0.00000  Uiso   1.00
O47    O     0.00020   0.18174   0.01913   0.00000  Uiso   1.00
C48    C     0.99984   0.19685   0.00082   0.00000  Uiso   1.00
C49    C     0.99989   0.30784   0.09407   0.00000  Uiso   1.00
H50    H     0.01860   0.16871   0.99221   0.00000  Uiso   1.00
H51    H     0.01948   0.23261   0.99955   0.00000  Uiso   1.00
H52    H     0.96115   0.20127   0.99611   0.00000  Uiso   1.00
H53    H     0.98048   0.32903   0.10495   0.00000  Uiso   1.00
H54    H     0.98066   0.31307   0.08073   0.00000  Uiso   1.00
H55    H     0.03847   0.32118   0.09289   0.00000  Uiso   1.00
H56    H     0.60567   0.49990   0.50655   0.00000  Uiso   1.00
H57    H     0.54604   0.49995   0.44163   0.00000  Uiso   1.00
H58    H     0.68821   0.49988   0.44827   0.00000  Uiso   1.00
H59    H     0.60808   0.49979   0.39287   0.00000  Uiso   1.00
C60    C     0.66733   0.49985   0.36660   0.00000  Uiso   1.00
H61    H     0.73331   0.50002   0.42985   0.00000  Uiso   1.00
H62    H     0.01907   0.30586   0.10756   0.00000  Uiso   1.00
H63    H     0.01921   0.36872   0.11605   0.00000  Uiso   1.00
H64    H     0.96124   0.33738   0.11184   0.00000  Uiso   1.00
C65    C     0.40629   0.50008   0.49194   0.00000  Uiso   1.00
C66    C     0.37077   0.50011   0.47774   0.00000  Uiso   1.00
C67    C     0.38830   0.50011   0.45977   0.00000  Uiso   1.00
C68    C     0.44051   0.50006   0.45605   0.00000  Uiso   1.00
C69    C     0.47412   0.50002   0.47037   0.00000  Uiso   1.00
C70    C     0.45788   0.50003   0.48793   0.00000  Uiso   1.00
C71    C     0.35175   0.50012   0.44494   0.00000  Uiso   1.00
C72    C     0.35161   0.50015   0.39554   0.00000  Uiso   1.00
C73    C     0.31872   0.50011   0.38096   0.00000  Uiso   1.00
C74    C     0.26573   0.50002   0.38287   0.00000  Uiso   1.00
C75    C     0.24681   0.49998   0.40092   0.00000  Uiso   1.00
C76    C     0.28025   0.50002   0.41544   0.00000  Uiso   1.00
C77    C     0.33258   0.50011   0.41288   0.00000  Uiso   1.00
N78    N     0.99987   0.86702   0.07234   0.00000  Uiso   1.00
O79    O     0.99980   0.81826   0.01913   0.00000  Uiso   1.00
C80    C     0.00016   0.80315   0.00082   0.00000  Uiso   1.00
C81    C     0.00011   0.69216   0.09407   0.00000  Uiso   1.00
H82    H     0.98140   0.83129   0.99221   0.00000  Uiso   1.00
H83    H     0.98052   0.76739   0.99955   0.00000  Uiso   1.00
H84    H     0.03885   0.79873   0.99611   0.00000  Uiso   1.00
H85    H     0.01952   0.67097   0.10495   0.00000  Uiso   1.00
H86    H     0.01934   0.68693   0.08073   0.00000  Uiso   1.00
H87    H     0.96153   0.67882   0.09289   0.00000  Uiso   1.00
H88    H     0.39433   0.50010   0.50655   0.00000  Uiso   1.00
H89    H     0.45396   0.50005   0.44163   0.00000  Uiso   1.00
H90    H     0.31179   0.50012   0.44827   0.00000  Uiso   1.00
H91    H     0.39192   0.50021   0.39287   0.00000  Uiso   1.00
C92    C     0.33267   0.50015   0.36660   0.00000  Uiso   1.00
H93    H     0.26669   0.49998   0.42985   0.00000  Uiso   1.00
H94    H     0.98093   0.69414   0.10756   0.00000  Uiso   1.00
H95    H     0.98079   0.63128   0.11605   0.00000  Uiso   1.00
H96    H     0.03876   0.66262   0.11184   0.00000  Uiso   1.00
C97    C     0.90629   0.00008   0.99194   0.00000  Uiso   1.00
C98    C     0.87077   0.00011   0.97774   0.00000  Uiso   1.00
C99    C     0.88830   0.00011   0.95977   0.00000  Uiso   1.00
C100   C     0.94051   0.00006   0.95605   0.00000  Uiso   1.00
C101   C     0.97412   0.00002   0.97037   0.00000  Uiso   1.00
C102   C     0.95788   0.00003   0.98793   0.00000  Uiso   1.00
C103   C     0.85175   0.00012   0.94494   0.00000  Uiso   1.00
C104   C     0.85161   0.00015   0.89554   0.00000  Uiso   1.00
C105   C     0.81872   0.00011   0.88096   0.00000  Uiso   1.00
C106   C     0.76573   0.00002   0.88287   0.00000  Uiso   1.00
C107   C     0.74681   0.99998   0.90092   0.00000  Uiso   1.00
C108   C     0.78025   0.00002   0.91544   0.00000  Uiso   1.00
C109   C     0.83258   0.00011   0.91288   0.00000  Uiso   1.00
N110   N     0.49987   0.36702   0.57234   0.00000  Uiso   1.00
O111   O     0.49980   0.31826   0.51913   0.00000  Uiso   1.00
C112   C     0.50016   0.30315   0.50082   0.00000  Uiso   1.00
C113   C     0.50011   0.19216   0.59407   0.00000  Uiso   1.00
H114   H     0.48140   0.33129   0.49221   0.00000  Uiso   1.00
H115   H     0.48052   0.26739   0.49955   0.00000  Uiso   1.00
H116   H     0.53885   0.29873   0.49611   0.00000  Uiso   1.00
H117   H     0.51952   0.17097   0.60495   0.00000  Uiso   1.00
H118   H     0.51934   0.18693   0.58073   0.00000  Uiso   1.00
H119   H     0.46153   0.17882   0.59289   0.00000  Uiso   1.00
H120   H     0.89433   0.00010   0.00655   0.00000  Uiso   1.00
H121   H     0.95396   0.00005   0.94163   0.00000  Uiso   1.00
H122   H     0.81179   0.00012   0.94827   0.00000  Uiso   1.00
H123   H     0.89192   0.00021   0.89287   0.00000  Uiso   1.00
C124   C     0.83267   0.00015   0.86660   0.00000  Uiso   1.00
H125   H     0.76669   0.99998   0.92985   0.00000  Uiso   1.00
H126   H     0.48093   0.19414   0.60756   0.00000  Uiso   1.00
H127   H     0.48079   0.13128   0.61605   0.00000  Uiso   1.00
H128   H     0.53876   0.16262   0.61184   0.00000  Uiso   1.00
C129   C     0.00008   0.59371   0.24194   0.00000  Uiso   1.00
C130   C     0.00011   0.62923   0.22774   0.00000  Uiso   1.00
C131   C     0.00011   0.61170   0.20977   0.00000  Uiso   1.00
C132   C     0.00006   0.55949   0.20605   0.00000  Uiso   1.00
C133   C     0.00002   0.52588   0.22037   0.00000  Uiso   1.00
C134   C     0.00003   0.54212   0.23793   0.00000  Uiso   1.00
C135   C     0.00012   0.64825   0.19494   0.00000  Uiso   1.00
C136   C     0.00015   0.64839   0.14554   0.00000  Uiso   1.00
C137   C     0.00011   0.68128   0.13096   0.00000  Uiso   1.00
C138   C     0.00002   0.73427   0.13287   0.00000  Uiso   1.00
C139   C     0.99998   0.75319   0.15092   0.00000  Uiso   1.00
C140   C     0.00002   0.71975   0.16544   0.00000  Uiso   1.00
C141   C     0.00011   0.66742   0.16288   0.00000  Uiso   1.00
N142   N     0.36702   0.00013   0.82234   0.00000  Uiso   1.00
O143   O     0.31826   0.00020   0.76913   0.00000  Uiso   1.00
C144   C     0.30315   0.99984   0.75082   0.00000  Uiso   1.00
C145   C     0.19216   0.99989   0.84407   0.00000  Uiso   1.00
H146   H     0.33129   0.01860   0.74221   0.00000  Uiso   1.00
H147   H     0.26739   0.01948   0.74955   0.00000  Uiso   1.00
H148   H     0.29873   0.96115   0.74611   0.00000  Uiso   1.00
H149   H     0.17097   0.98048   0.85495   0.00000  Uiso   1.00
H150   H     0.18693   0.98066   0.83073   0.00000  Uiso   1.00
H151   H     0.17882   0.03847   0.84289   0.00000  Uiso   1.00
H152   H     0.00010   0.60567   0.25655   0.00000  Uiso   1.00
H153   H     0.00005   0.54604   0.19163   0.00000  Uiso   1.00
H154   H     0.00012   0.68821   0.19827   0.00000  Uiso   1.00
H155   H     0.00021   0.60808   0.14287   0.00000  Uiso   1.00
C156   C     0.00015   0.66733   0.11660   0.00000  Uiso   1.00
H157   H     0.99998   0.73331   0.17985   0.00000  Uiso   1.00
H158   H     0.19414   0.01907   0.85756   0.00000  Uiso   1.00
H159   H     0.13128   0.01921   0.86605   0.00000  Uiso   1.00
H160   H     0.16262   0.96124   0.86184   0.00000  Uiso   1.00
C161   C     0.50008   0.09371   0.74194   0.00000  Uiso   1.00
C162   C     0.50011   0.12923   0.72774   0.00000  Uiso   1.00
C163   C     0.50011   0.11170   0.70977   0.00000  Uiso   1.00
C164   C     0.50006   0.05949   0.70605   0.00000  Uiso   1.00
C165   C     0.50002   0.02588   0.72037   0.00000  Uiso   1.00
C166   C     0.50003   0.04212   0.73793   0.00000  Uiso   1.00
C167   C     0.50012   0.14825   0.69494   0.00000  Uiso   1.00
C168   C     0.50015   0.14839   0.64554   0.00000  Uiso   1.00
C169   C     0.50011   0.18128   0.63096   0.00000  Uiso   1.00
C170   C     0.50002   0.23427   0.63287   0.00000  Uiso   1.00
C171   C     0.49998   0.25319   0.65092   0.00000  Uiso   1.00
C172   C     0.50002   0.21975   0.66544   0.00000  Uiso   1.00
C173   C     0.50011   0.16742   0.66288   0.00000  Uiso   1.00
N174   N     0.86702   0.50013   0.32234   0.00000  Uiso   1.00
O175   O     0.81826   0.50020   0.26913   0.00000  Uiso   1.00
C176   C     0.80315   0.49984   0.25082   0.00000  Uiso   1.00
C177   C     0.69216   0.49989   0.34407   0.00000  Uiso   1.00
H178   H     0.83129   0.51860   0.24221   0.00000  Uiso   1.00
H179   H     0.76739   0.51948   0.24955   0.00000  Uiso   1.00
H180   H     0.79873   0.46115   0.24611   0.00000  Uiso   1.00
H181   H     0.67097   0.48048   0.35495   0.00000  Uiso   1.00
H182   H     0.68693   0.48066   0.33073   0.00000  Uiso   1.00
H183   H     0.67882   0.53847   0.34289   0.00000  Uiso   1.00
H184   H     0.50010   0.10567   0.75655   0.00000  Uiso   1.00
H185   H     0.50005   0.04604   0.69163   0.00000  Uiso   1.00
H186   H     0.50012   0.18821   0.69827   0.00000  Uiso   1.00
H187   H     0.50021   0.10808   0.64287   0.00000  Uiso   1.00
C188   C     0.50015   0.16733   0.61660   0.00000  Uiso   1.00
H189   H     0.49998   0.23331   0.67985   0.00000  Uiso   1.00
H190   H     0.69414   0.51907   0.35756   0.00000  Uiso   1.00
H191   H     0.63128   0.51921   0.36605   0.00000  Uiso   1.00
H192   H     0.66262   0.46124   0.36184   0.00000  Uiso   1.00
C193   C     0.49992   0.90629   0.74194   0.00000  Uiso   1.00
C194   C     0.49989   0.87077   0.72774   0.00000  Uiso   1.00
C195   C     0.49989   0.88830   0.70977   0.00000  Uiso   1.00
C196   C     0.49994   0.94051   0.70605   0.00000  Uiso   1.00
C197   C     0.49998   0.97412   0.72037   0.00000  Uiso   1.00
C198   C     0.49997   0.95788   0.73793   0.00000  Uiso   1.00
C199   C     0.49988   0.85175   0.69494   0.00000  Uiso   1.00
C200   C     0.49985   0.85161   0.64554   0.00000  Uiso   1.00
C201   C     0.49989   0.81872   0.63096   0.00000  Uiso   1.00
C202   C     0.49998   0.76573   0.63287   0.00000  Uiso   1.00
C203   C     0.50002   0.74681   0.65092   0.00000  Uiso   1.00
C204   C     0.49998   0.78025   0.66544   0.00000  Uiso   1.00
C205   C     0.49989   0.83258   0.66288   0.00000  Uiso   1.00
N206   N     0.13298   0.49987   0.32234   0.00000  Uiso   1.00
O207   O     0.18174   0.49980   0.26913   0.00000  Uiso   1.00
C208   C     0.19685   0.50016   0.25082   0.00000  Uiso   1.00
C209   C     0.30784   0.50011   0.34407   0.00000  Uiso   1.00
H210   H     0.16871   0.48140   0.24221   0.00000  Uiso   1.00
H211   H     0.23261   0.48052   0.24955   0.00000  Uiso   1.00
H212   H     0.20127   0.53885   0.24611   0.00000  Uiso   1.00
H213   H     0.32903   0.51952   0.35495   0.00000  Uiso   1.00
H214   H     0.31307   0.51934   0.33073   0.00000  Uiso   1.00
H215   H     0.32118   0.46153   0.34289   0.00000  Uiso   1.00
H216   H     0.49990   0.89433   0.75655   0.00000  Uiso   1.00
H217   H     0.49995   0.95396   0.69163   0.00000  Uiso   1.00
H218   H     0.49988   0.81179   0.69827   0.00000  Uiso   1.00
H219   H     0.49979   0.89192   0.64287   0.00000  Uiso   1.00
C220   C     0.49985   0.83267   0.61660   0.00000  Uiso   1.00
H221   H     0.50002   0.76669   0.67985   0.00000  Uiso   1.00
H222   H     0.30586   0.48093   0.35756   0.00000  Uiso   1.00
H223   H     0.36872   0.48079   0.36605   0.00000  Uiso   1.00
H224   H     0.33738   0.53876   0.36184   0.00000  Uiso   1.00
C225   C     0.99992   0.40629   0.24194   0.00000  Uiso   1.00
C226   C     0.99989   0.37077   0.22774   0.00000  Uiso   1.00
C227   C     0.99989   0.38830   0.20977   0.00000  Uiso   1.00
C228   C     0.99994   0.44051   0.20605   0.00000  Uiso   1.00
C229   C     0.99998   0.47412   0.22037   0.00000  Uiso   1.00
C230   C     0.99997   0.45788   0.23793   0.00000  Uiso   1.00
C231   C     0.99988   0.35175   0.19494   0.00000  Uiso   1.00
C232   C     0.99985   0.35161   0.14554   0.00000  Uiso   1.00
C233   C     0.99989   0.31872   0.13096   0.00000  Uiso   1.00
C234   C     0.99998   0.26573   0.13287   0.00000  Uiso   1.00
C235   C     0.00002   0.24681   0.15092   0.00000  Uiso   1.00
C236   C     0.99998   0.28025   0.16544   0.00000  Uiso   1.00
C237   C     0.99989   0.33258   0.16288   0.00000  Uiso   1.00
N238   N     0.63298   0.99987   0.82234   0.00000  Uiso   1.00
O239   O     0.68174   0.99980   0.76913   0.00000  Uiso   1.00
C240   C     0.69685   0.00016   0.75082   0.00000  Uiso   1.00
C241   C     0.80784   0.00011   0.84407   0.00000  Uiso   1.00
H242   H     0.66871   0.98140   0.74221   0.00000  Uiso   1.00
H243   H     0.73261   0.98052   0.74955   0.00000  Uiso   1.00
H244   H     0.70127   0.03885   0.74611   0.00000  Uiso   1.00
H245   H     0.82903   0.01952   0.85495   0.00000  Uiso   1.00
H246   H     0.81307   0.01934   0.83073   0.00000  Uiso   1.00
H247   H     0.82118   0.96153   0.84289   0.00000  Uiso   1.00
H248   H     0.99990   0.39433   0.25655   0.00000  Uiso   1.00
H249   H     0.99995   0.45396   0.19163   0.00000  Uiso   1.00
H250   H     0.99988   0.31179   0.19827   0.00000  Uiso   1.00
H251   H     0.99979   0.39192   0.14287   0.00000  Uiso   1.00
C252   C     0.99985   0.33267   0.11660   0.00000  Uiso   1.00
H253   H     0.00002   0.26669   0.17985   0.00000  Uiso   1.00
H254   H     0.80586   0.98093   0.85756   0.00000  Uiso   1.00
H255   H     0.86872   0.98079   0.86605   0.00000  Uiso   1.00
H256   H     0.83738   0.03876   0.86184   0.00000  Uiso   1.00
C257   C     0.90629   0.50008   0.25806   0.00000  Uiso   1.00
C258   C     0.87077   0.50011   0.27226   0.00000  Uiso   1.00
C259   C     0.88830   0.50011   0.29023   0.00000  Uiso   1.00
C260   C     0.94051   0.50006   0.29395   0.00000  Uiso   1.00
C261   C     0.97412   0.50002   0.27963   0.00000  Uiso   1.00
C262   C     0.95788   0.50003   0.26207   0.00000  Uiso   1.00
C263   C     0.85175   0.50012   0.30506   0.00000  Uiso   1.00
C264   C     0.85161   0.50015   0.35446   0.00000  Uiso   1.00
C265   C     0.81872   0.50011   0.36904   0.00000  Uiso   1.00
C266   C     0.76573   0.50002   0.36713   0.00000  Uiso   1.00
C267   C     0.74681   0.49998   0.34908   0.00000  Uiso   1.00
C268   C     0.78025   0.50002   0.33456   0.00000  Uiso   1.00
C269   C     0.83258   0.50011   0.33712   0.00000  Uiso   1.00
N270   N     0.49987   0.86702   0.67766   0.00000  Uiso   1.00
O271   O     0.49980   0.81826   0.73087   0.00000  Uiso   1.00
C272   C     0.50016   0.80315   0.74918   0.00000  Uiso   1.00
C273   C     0.50011   0.69216   0.65593   0.00000  Uiso   1.00
H274   H     0.48140   0.83129   0.75779   0.00000  Uiso   1.00
H275   H     0.48052   0.76739   0.75045   0.00000  Uiso   1.00
H276   H     0.53885   0.79873   0.75389   0.00000  Uiso   1.00
H277   H     0.51952   0.67097   0.64505   0.00000  Uiso   1.00
H278   H     0.51934   0.68693   0.66927   0.00000  Uiso   1.00
H279   H     0.46153   0.67882   0.65711   0.00000  Uiso   1.00
H280   H     0.89433   0.50010   0.24345   0.00000  Uiso   1.00
H281   H     0.95396   0.50005   0.30837   0.00000  Uiso   1.00
H282   H     0.81179   0.50012   0.30173   0.00000  Uiso   1.00
H283   H     0.89192   0.50021   0.35713   0.00000  Uiso   1.00
C284   C     0.83267   0.50015   0.38340   0.00000  Uiso   1.00
H285   H     0.76669   0.49998   0.32015   0.00000  Uiso   1.00
H286   H     0.48093   0.69414   0.64244   0.00000  Uiso   1.00
H287   H     0.48079   0.63128   0.63395   0.00000  Uiso   1.00
H288   H     0.53876   0.66262   0.63816   0.00000  Uiso   1.00
C289   C     0.40629   0.00008   0.75806   0.00000  Uiso   1.00
C290   C     0.37077   0.00011   0.77226   0.00000  Uiso   1.00
C291   C     0.38830   0.00011   0.79023   0.00000  Uiso   1.00
C292   C     0.44051   0.00006   0.79395   0.00000  Uiso   1.00
C293   C     0.47412   0.00002   0.77963   0.00000  Uiso   1.00
C294   C     0.45788   0.00003   0.76207   0.00000  Uiso   1.00
C295   C     0.35175   0.00012   0.80506   0.00000  Uiso   1.00
C296   C     0.35161   0.00015   0.85446   0.00000  Uiso   1.00
C297   C     0.31872   0.00011   0.86904   0.00000  Uiso   1.00
C298   C     0.26573   0.00002   0.86713   0.00000  Uiso   1.00
C299   C     0.24681   0.99998   0.84908   0.00000  Uiso   1.00
C300   C     0.28025   0.00002   0.83456   0.00000  Uiso   1.00
C301   C     0.33258   0.00011   0.83712   0.00000  Uiso   1.00
N302   N     0.99987   0.36702   0.17766   0.00000  Uiso   1.00
O303   O     0.99980   0.31826   0.23087   0.00000  Uiso   1.00
C304   C     0.00016   0.30315   0.24918   0.00000  Uiso   1.00
C305   C     0.00011   0.19216   0.15593   0.00000  Uiso   1.00
H306   H     0.98140   0.33129   0.25779   0.00000  Uiso   1.00
H307   H     0.98052   0.26739   0.25045   0.00000  Uiso   1.00
H308   H     0.03885   0.29873   0.25389   0.00000  Uiso   1.00
H309   H     0.01952   0.17097   0.14505   0.00000  Uiso   1.00
H310   H     0.01934   0.18693   0.16927   0.00000  Uiso   1.00
H311   H     0.96153   0.17882   0.15711   0.00000  Uiso   1.00
H312   H     0.39433   0.00010   0.74345   0.00000  Uiso   1.00
H313   H     0.45396   0.00005   0.80837   0.00000  Uiso   1.00
H314   H     0.31179   0.00012   0.80173   0.00000  Uiso   1.00
H315   H     0.39192   0.00021   0.85713   0.00000  Uiso   1.00
C316   C     0.33267   0.00015   0.88340   0.00000  Uiso   1.00
H317   H     0.26669   0.99998   0.82015   0.00000  Uiso   1.00
H318   H     0.98093   0.19414   0.14244   0.00000  Uiso   1.00
H319   H     0.98079   0.13128   0.13395   0.00000  Uiso   1.00
H320   H     0.03876   0.16262   0.13816   0.00000  Uiso   1.00
C321   C     0.59371   0.99992   0.75806   0.00000  Uiso   1.00
C322   C     0.62923   0.99989   0.77226   0.00000  Uiso   1.00
C323   C     0.61170   0.99989   0.79023   0.00000  Uiso   1.00
C324   C     0.55949   0.99994   0.79395   0.00000  Uiso   1.00
C325   C     0.52588   0.99998   0.77963   0.00000  Uiso   1.00
C326   C     0.54212   0.99997   0.76207   0.00000  Uiso   1.00
C327   C     0.64825   0.99988   0.80506   0.00000  Uiso   1.00
C328   C     0.64839   0.99985   0.85446   0.00000  Uiso   1.00
C329   C     0.68128   0.99989   0.86904   0.00000  Uiso   1.00
C330   C     0.73427   0.99998   0.86713   0.00000  Uiso   1.00
C331   C     0.75319   0.00002   0.84908   0.00000  Uiso   1.00
C332   C     0.71975   0.99998   0.83456   0.00000  Uiso   1.00
C333   C     0.66742   0.99989   0.83712   0.00000  Uiso   1.00
N334   N     0.00013   0.63298   0.17766   0.00000  Uiso   1.00
O335   O     0.00020   0.68174   0.23087   0.00000  Uiso   1.00
C336   C     0.99984   0.69685   0.24918   0.00000  Uiso   1.00
C337   C     0.99989   0.80784   0.15593   0.00000  Uiso   1.00
H338   H     0.01860   0.66871   0.25779   0.00000  Uiso   1.00
H339   H     0.01948   0.73261   0.25045   0.00000  Uiso   1.00
H340   H     0.96115   0.70127   0.25389   0.00000  Uiso   1.00
H341   H     0.98048   0.82903   0.14505   0.00000  Uiso   1.00
H342   H     0.98066   0.81307   0.16927   0.00000  Uiso   1.00
H343   H     0.03847   0.82118   0.15711   0.00000  Uiso   1.00
H344   H     0.60567   0.99990   0.74345   0.00000  Uiso   1.00
H345   H     0.54604   0.99995   0.80837   0.00000  Uiso   1.00
H346   H     0.68821   0.99988   0.80173   0.00000  Uiso   1.00
H347   H     0.60808   0.99979   0.85713   0.00000  Uiso   1.00
C348   C     0.66733   0.99985   0.88340   0.00000  Uiso   1.00
H349   H     0.73331   0.00002   0.82015   0.00000  Uiso   1.00
H350   H     0.01907   0.80586   0.14244   0.00000  Uiso   1.00
H351   H     0.01921   0.86872   0.13395   0.00000  Uiso   1.00
H352   H     0.96124   0.83738   0.13816   0.00000  Uiso   1.00
C353   C     0.09371   0.49992   0.25806   0.00000  Uiso   1.00
C354   C     0.12923   0.49989   0.27226   0.00000  Uiso   1.00
C355   C     0.11170   0.49989   0.29023   0.00000  Uiso   1.00
C356   C     0.05949   0.49994   0.29395   0.00000  Uiso   1.00
C357   C     0.02588   0.49998   0.27963   0.00000  Uiso   1.00
C358   C     0.04212   0.49997   0.26207   0.00000  Uiso   1.00
C359   C     0.14825   0.49988   0.30506   0.00000  Uiso   1.00
C360   C     0.14839   0.49985   0.35446   0.00000  Uiso   1.00
C361   C     0.18128   0.49989   0.36904   0.00000  Uiso   1.00
C362   C     0.23427   0.49998   0.36713   0.00000  Uiso   1.00
C363   C     0.25319   0.50002   0.34908   0.00000  Uiso   1.00
C364   C     0.21975   0.49998   0.33456   0.00000  Uiso   1.00
C365   C     0.16742   0.49989   0.33712   0.00000  Uiso   1.00
N366   N     0.50013   0.13298   0.67766   0.00000  Uiso   1.00
O367   O     0.50020   0.18174   0.73087   0.00000  Uiso   1.00
C368   C     0.49984   0.19685   0.74918   0.00000  Uiso   1.00
C369   C     0.49989   0.30784   0.65593   0.00000  Uiso   1.00
H370   H     0.51860   0.16871   0.75779   0.00000  Uiso   1.00
H371   H     0.51948   0.23261   0.75045   0.00000  Uiso   1.00
H372   H     0.46115   0.20127   0.75389   0.00000  Uiso   1.00
H373   H     0.48048   0.32903   0.64505   0.00000  Uiso   1.00
H374   H     0.48066   0.31307   0.66927   0.00000  Uiso   1.00
H375   H     0.53847   0.32118   0.65711   0.00000  Uiso   1.00
H376   H     0.10567   0.49990   0.24345   0.00000  Uiso   1.00
H377   H     0.04604   0.49995   0.30837   0.00000  Uiso   1.00
H378   H     0.18821   0.49988   0.30173   0.00000  Uiso   1.00
H379   H     0.10808   0.49979   0.35713   0.00000  Uiso   1.00
C380   C     0.16733   0.49985   0.38340   0.00000  Uiso   1.00
H381   H     0.23331   0.50002   0.32015   0.00000  Uiso   1.00
H382   H     0.51907   0.30586   0.64244   0.00000  Uiso   1.00
H383   H     0.51921   0.36872   0.63395   0.00000  Uiso   1.00
H384   H     0.46124   0.33738   0.63816   0.00000  Uiso   1.00
C385   C     0.99992   0.90629   0.00806   0.00000  Uiso   1.00
C386   C     0.99989   0.87077   0.02226   0.00000  Uiso   1.00
C387   C     0.99989   0.88830   0.04023   0.00000  Uiso   1.00
C388   C     0.99994   0.94051   0.04395   0.00000  Uiso   1.00
C389   C     0.99998   0.97412   0.02963   0.00000  Uiso   1.00
C390   C     0.99997   0.95788   0.01207   0.00000  Uiso   1.00
C391   C     0.99988   0.85175   0.05506   0.00000  Uiso   1.00
C392   C     0.99985   0.85161   0.10446   0.00000  Uiso   1.00
C393   C     0.99989   0.81872   0.11904   0.00000  Uiso   1.00
C394   C     0.99998   0.76573   0.11713   0.00000  Uiso   1.00
C395   C     0.00002   0.74681   0.09908   0.00000  Uiso   1.00
C396   C     0.99998   0.78025   0.08456   0.00000  Uiso   1.00
C397   C     0.99989   0.83258   0.08712   0.00000  Uiso   1.00
N398   N     0.63298   0.49987   0.42766   0.00000  Uiso   1.00
O399   O     0.68174   0.49980   0.48087   0.00000  Uiso   1.00
C400   C     0.69685   0.50016   0.49918   0.00000  Uiso   1.00
C401   C     0.80784   0.50011   0.40593   0.00000  Uiso   1.00
H402   H     0.66871   0.48140   0.50779   0.00000  Uiso   1.00
H403   H     0.73261   0.48052   0.50045   0.00000  Uiso   1.00
H404   H     0.70127   0.53885   0.50389   0.00000  Uiso   1.00
H405   H     0.82903   0.51952   0.39505   0.00000  Uiso   1.00
H406   H     0.81307   0.51934   0.41927   0.00000  Uiso   1.00
H407   H     0.82118   0.46153   0.40711   0.00000  Uiso   1.00
H408   H     0.99990   0.89433   0.99345   0.00000  Uiso   1.00
H409   H     0.99995   0.95396   0.05837   0.00000  Uiso   1.00
H410   H     0.99988   0.81179   0.05173   0.00000  Uiso   1.00
H411   H     0.99979   0.89192   0.10713   0.00000  Uiso   1.00
C412   C     0.99985   0.83267   0.13340   0.00000  Uiso   1.00
H413   H     0.00002   0.76669   0.07015   0.00000  Uiso   1.00
H414   H     0.80586   0.48093   0.39244   0.00000  Uiso   1.00
H415   H     0.86872   0.48079   0.38395   0.00000  Uiso   1.00
H416   H     0.83738   0.53876   0.38816   0.00000  Uiso   1.00
C417   C     0.49992   0.40629   0.50806   0.00000  Uiso   1.00
C418   C     0.49989   0.37077   0.52226   0.00000  Uiso   1.00
C419   C     0.49989   0.38830   0.54023   0.00000  Uiso   1.00
C420   C     0.49994   0.44051   0.54395   0.00000  Uiso   1.00
C421   C     0.49998   0.47412   0.52963   0.00000  Uiso   1.00
C422   C     0.49997   0.45788   0.51207   0.00000  Uiso   1.00
C423   C     0.49988   0.35175   0.55506   0.00000  Uiso   1.00
C424   C     0.49985   0.35161   0.60446   0.00000  Uiso   1.00
C425   C     0.49989   0.31872   0.61904   0.00000  Uiso   1.00
C426   C     0.49998   0.26573   0.61713   0.00000  Uiso   1.00
C427   C     0.50002   0.24681   0.59908   0.00000  Uiso   1.00
C428   C     0.49998   0.28025   0.58456   0.00000  Uiso   1.00
C429   C     0.49989   0.33258   0.58712   0.00000  Uiso   1.00
N430   N     0.13298   0.99987   0.92766   0.00000  Uiso   1.00
O431   O     0.18174   0.99980   0.98087   0.00000  Uiso   1.00
C432   C     0.19685   0.00016   0.99918   0.00000  Uiso   1.00
C433   C     0.30784   0.00011   0.90593   0.00000  Uiso   1.00
H434   H     0.16871   0.98140   0.00779   0.00000  Uiso   1.00
H435   H     0.23261   0.98052   0.00045   0.00000  Uiso   1.00
H436   H     0.20127   0.03885   0.00389   0.00000  Uiso   1.00
H437   H     0.32903   0.01952   0.89505   0.00000  Uiso   1.00
H438   H     0.31307   0.01934   0.91927   0.00000  Uiso   1.00
H439   H     0.32118   0.96153   0.90711   0.00000  Uiso   1.00
H440   H     0.49990   0.39433   0.49345   0.00000  Uiso   1.00
H441   H     0.49995   0.45396   0.55837   0.00000  Uiso   1.00
H442   H     0.49988   0.31179   0.55173   0.00000  Uiso   1.00
H443   H     0.49979   0.39192   0.60713   0.00000  Uiso   1.00
C444   C     0.49985   0.33267   0.63340   0.00000  Uiso   1.00
H445   H     0.50002   0.26669   0.57015   0.00000  Uiso   1.00
H446   H     0.30586   0.98093   0.89244   0.00000  Uiso   1.00
H447   H     0.36872   0.98079   0.88395   0.00000  Uiso   1.00
H448   H     0.33738   0.03876   0.88816   0.00000  Uiso   1.00
C449   C     0.50008   0.59371   0.50806   0.00000  Uiso   1.00
C450   C     0.50011   0.62923   0.52226   0.00000  Uiso   1.00
C451   C     0.50011   0.61170   0.54023   0.00000  Uiso   1.00
C452   C     0.50006   0.55949   0.54395   0.00000  Uiso   1.00
C453   C     0.50002   0.52588   0.52963   0.00000  Uiso   1.00
C454   C     0.50003   0.54212   0.51207   0.00000  Uiso   1.00
C455   C     0.50012   0.64825   0.55506   0.00000  Uiso   1.00
C456   C     0.50015   0.64839   0.60446   0.00000  Uiso   1.00
C457   C     0.50011   0.68128   0.61904   0.00000  Uiso   1.00
C458   C     0.50002   0.73427   0.61713   0.00000  Uiso   1.00
C459   C     0.49998   0.75319   0.59908   0.00000  Uiso   1.00
C460   C     0.50002   0.71975   0.58456   0.00000  Uiso   1.00
C461   C     0.50011   0.66742   0.58712   0.00000  Uiso   1.00
N462   N     0.86702   0.00013   0.92766   0.00000  Uiso   1.00
O463   O     0.81826   0.00020   0.98087   0.00000  Uiso   1.00
C464   C     0.80315   0.99984   0.99918   0.00000  Uiso   1.00
C465   C     0.69216   0.99989   0.90593   0.00000  Uiso   1.00
H466   H     0.83129   0.01860   0.00779   0.00000  Uiso   1.00
H467   H     0.76739   0.01948   0.00045   0.00000  Uiso   1.00
H468   H     0.79873   0.96115   0.00389   0.00000  Uiso   1.00
H469   H     0.67097   0.98048   0.89505   0.00000  Uiso   1.00
H470   H     0.68693   0.98066   0.91927   0.00000  Uiso   1.00
H471   H     0.67882   0.03847   0.90711   0.00000  Uiso   1.00
H472   H     0.50010   0.60567   0.49345   0.00000  Uiso   1.00
H473   H     0.50005   0.54604   0.55837   0.00000  Uiso   1.00
H474   H     0.50012   0.68821   0.55173   0.00000  Uiso   1.00
H475   H     0.50021   0.60808   0.60713   0.00000  Uiso   1.00
C476   C     0.50015   0.66733   0.63340   0.00000  Uiso   1.00
H477   H     0.49998   0.73331   0.57015   0.00000  Uiso   1.00
H478   H     0.69414   0.01907   0.89244   0.00000  Uiso   1.00
H479   H     0.63128   0.01921   0.88395   0.00000  Uiso   1.00
H480   H     0.66262   0.96124   0.88816   0.00000  Uiso   1.00
C481   C     0.00008   0.09371   0.00806   0.00000  Uiso   1.00
C482   C     0.00011   0.12923   0.02226   0.00000  Uiso   1.00
C483   C     0.00011   0.11170   0.04023   0.00000  Uiso   1.00
C484   C     0.00006   0.05949   0.04395   0.00000  Uiso   1.00
C485   C     0.00002   0.02588   0.02963   0.00000  Uiso   1.00
C486   C     0.00003   0.04212   0.01207   0.00000  Uiso   1.00
C487   C     0.00012   0.14825   0.05506   0.00000  Uiso   1.00
C488   C     0.00015   0.14839   0.10446   0.00000  Uiso   1.00
C489   C     0.00011   0.18128   0.11904   0.00000  Uiso   1.00
C490   C     0.00002   0.23427   0.11713   0.00000  Uiso   1.00
C491   C     0.99998   0.25319   0.09908   0.00000  Uiso   1.00
C492   C     0.00002   0.21975   0.08456   0.00000  Uiso   1.00
C493   C     0.00011   0.16742   0.08712   0.00000  Uiso   1.00
N494   N     0.36702   0.50013   0.42766   0.00000  Uiso   1.00
O495   O     0.31826   0.50020   0.48087   0.00000  Uiso   1.00
C496   C     0.30315   0.49984   0.49918   0.00000  Uiso   1.00
C497   C     0.19216   0.49989   0.40593   0.00000  Uiso   1.00
H498   H     0.33129   0.51860   0.50779   0.00000  Uiso   1.00
H499   H     0.26739   0.51948   0.50045   0.00000  Uiso   1.00
H500   H     0.29873   0.46115   0.50389   0.00000  Uiso   1.00
H501   H     0.17097   0.48048   0.39505   0.00000  Uiso   1.00
H502   H     0.18693   0.48066   0.41927   0.00000  Uiso   1.00
H503   H     0.17882   0.53847   0.40711   0.00000  Uiso   1.00
H504   H     0.00010   0.10567   0.99345   0.00000  Uiso   1.00
H505   H     0.00005   0.04604   0.05837   0.00000  Uiso   1.00
H506   H     0.00012   0.18821   0.05173   0.00000  Uiso   1.00
H507   H     0.00021   0.10808   0.10713   0.00000  Uiso   1.00
C508   C     0.00015   0.16733   0.13340   0.00000  Uiso   1.00
H509   H     0.99998   0.23331   0.07015   0.00000  Uiso   1.00
H510   H     0.19414   0.51907   0.39244   0.00000  Uiso   1.00
H511   H     0.13128   0.51921   0.38395   0.00000  Uiso   1.00
H512   H     0.16262   0.46124   0.38816   0.00000  Uiso   1.00
C513   C     0.00000   0.00000   0.00000   0.00000  Uiso   1.00
C514   C     0.50000   0.50000   0.50000   0.00000  Uiso   1.00
C515   C     0.00000   0.50000   0.25000   0.00000  Uiso   1.00
C516   C     0.50000   0.00000   0.75000   0.00000  Uiso   1.00
loop_
_geom_bond_atom_site_label_1
_geom_bond_atom_site_label_2
_geom_bond_distance
_geom_bond_site_symmetry_2
_ccdc_geom_bond_type
C1     C2      1.454   .     S
C1     C6      1.472   .     D
C1     H24     1.143   1_556 S
C2     C3      1.431   .     D
C2     O431    1.486   .     S
C3     C4      1.485   .     S
C3     C7      1.508   .     S
C4     C5      1.424   .     D
C4     H25     1.142   .     S
C5     C6      1.390   .     S
C5     C101    1.446   1_465 S
C6     C513    1.483   1_566 S
C7     H26     1.144   .     S
C7     N430    1.361   .     D
C8     C9      1.426   .     D
C8     C13     1.402   .     S
C8     H27     1.144   .     S
C9     C10     1.487   .     S
C9     C28     1.143   .     S
C10    C11     1.450   1_565 D
C10    C298    1.469   1_565 S
C11    C10     1.450   1_545 D
C11    C12     1.433   1_545 S
C11    C433    1.572   .     S
C12    C11     1.433   1_565 S
C12    C13     1.474   .     D
C12    H29     1.143   1_565 S
C13    N430    1.466   .     S
N14    C455    1.361   .     D
N14    C461    1.466   .     S
O15    C16     1.433   .     S
O15    C450    1.486   .     S
C16    H18     1.143   .     S
C16    H19     1.144   .     S
C16    H20     1.144   .     S
C17    H21     1.143   .     S
C17    H22     1.143   .     S
C17    H23     1.144   .     S
C17    H30     1.144   .     S
C17    C459    1.572   .     S
H21    H32     0.780   .     S
H21    C220    1.031   .     S
H24    C1      1.143   1_554 S
C28    H149    1.031   .     S
C28    H158    1.143   1_565 S
C28    H159    1.144   1_565 S
C28    H160    1.143   .     S
H29    C12     1.143   1_545 S
H30    C220    1.143   .     S
H31    C220    1.144   .     S
H32    C220    1.143   .     S
C33    C34     1.454   .     S
C33    C38     1.472   .     D
C33    H56     1.143   .     S
C34    C35     1.431   .     D
C34    O399    1.486   .     S
C35    C36     1.485   .     S
C35    C39     1.508   .     S
C36    C37     1.424   .     D
C36    H57     1.142   .     S
C37    C38     1.390   .     S
C37    C69     1.446   .     S
C38    C514    1.483   .     S
C39    H58     1.144   .     S
C39    N398    1.361   .     D
C40    C41     1.426   .     D
C40    C45     1.402   .     S
C40    H59     1.144   .     S
C41    C42     1.487   .     S
C41    C60     1.143   .     S
C42    C43     1.450   .     D
C42    C266    1.469   .     S
C43    C44     1.433   .     S
C43    C401    1.572   .     S
C44    C45     1.474   .     D
C44    H61     1.143   .     S
C45    N398    1.466   .     S
N46    C487    1.361   .     D
N46    C493    1.466   .     S
O47    C48     1.433   1_455 S
O47    C482    1.486   .     S
C48    O47     1.433   1_655 S
C48    H50     1.143   1_654 S
C48    H51     1.144   1_654 S
C48    H52     1.144   1_554 S
C49    H53     1.143   .     S
C49    H54     1.143   .     S
C49    H55     1.144   1_655 S
C49    H62     1.144   1_655 S
C49    C491    1.572   .     S
H50    C48     1.143   1_456 S
H51    C48     1.144   1_456 S
H52    C48     1.144   1_556 S
H53    H64     0.780   .     S
H53    C252    1.031   .     S
H55    C49     1.144   1_455 S
C60    H181    1.031   .     S
C60    H190    1.143   .     S
C60    H191    1.144   .     S
C60    H192    1.143   .     S
H62    C49     1.144   1_455 S
H62    C252    1.143   1_455 S
H63    C252    1.144   1_455 S
H64    C252    1.143   .     S
C65    C66     1.454   .     D
C65    C70     1.472   .     S
C65    H88     1.143   .     S
C66    C67     1.431   .     S
C66    O495    1.486   .     S
C67    C68     1.485   .     D
C67    C71     1.508   .     S
C68    C69     1.424   .     S
C68    H89     1.142   .     S
C69    C70     1.390   .     D
C70    C514    1.483   .     S
C71    H90     1.144   .     S
C71    N494    1.361   .     D
C72    C73     1.426   .     D
C72    C77     1.402   .     S
C72    H91     1.144   .     S
C73    C74     1.487   .     S
C73    C92     1.143   .     S
C74    C75     1.450   .     D
C74    C362    1.469   .     S
C75    C76     1.433   .     S
C75    C497    1.572   .     S
C76    C77     1.474   .     D
C76    H93     1.143   .     S
C77    N494    1.466   .     S
N78    C391    1.361   .     D
N78    C397    1.466   .     S
O79    C80     1.433   1_655 S
O79    C386    1.486   .     S
C80    O79     1.433   1_455 S
C80    H82     1.143   1_454 S
C80    H83     1.144   1_454 S
C80    H84     1.144   1_554 S
C81    H85     1.143   .     S
C81    H86     1.143   .     S
C81    H87     1.144   1_455 S
C81    H94     1.144   1_455 S
C81    C395    1.572   .     S
H82    C80     1.143   1_656 S
H83    C80     1.144   1_656 S
H84    C80     1.144   1_556 S
H85    H96     0.780   .     S
H85    C156    1.031   .     S
H87    C81     1.144   1_655 S
C92    H213    1.031   .     S
C92    H222    1.143   .     S
C92    H223    1.144   .     S
C92    H224    1.143   .     S
H94    C81     1.144   1_655 S
H94    C156    1.143   1_655 S
H95    C156    1.144   1_655 S
H96    C156    1.143   .     S
C97    C98     1.454   .     D
C97    C102    1.472   .     S
C97    H120    1.143   1_556 S
C98    C99     1.431   .     S
C98    O463    1.486   .     S
C99    C100    1.485   .     D
C99    C103    1.508   .     S
C100   C101    1.424   .     S
C100   H121    1.142   .     S
C101   C5      1.446   1_645 S
C101   C102    1.390   .     D
C102   C513    1.483   1_656 S
C103   H122    1.144   .     S
C103   N462    1.361   .     D
C104   C105    1.426   .     D
C104   C109    1.402   .     S
C104   H123    1.144   .     S
C105   C106    1.487   .     S
C105   C124    1.143   .     S
C106   C107    1.450   1_545 D
C106   C330    1.469   1_545 S
C107   C106    1.450   1_565 D
C107   C108    1.433   1_565 S
C107   C465    1.572   .     S
C108   C107    1.433   1_545 S
C108   C109    1.474   .     D
C108   H125    1.143   1_545 S
C109   N462    1.466   .     S
N110   C423    1.361   .     D
N110   C429    1.466   .     S
O111   C112    1.433   .     S
O111   C418    1.486   .     S
C112   H114    1.143   .     S
C112   H115    1.144   .     S
C112   H116    1.144   .     S
C113   H117    1.143   .     S
C113   H118    1.143   .     S
C113   H119    1.144   .     S
C113   H126    1.144   .     S
C113   C427    1.572   .     S
H117   H128    0.780   .     S
H117   C188    1.031   .     S
H120   C97     1.143   1_554 S
C124   H245    1.031   .     S
C124   H254    1.143   1_545 S
C124   H255    1.144   1_545 S
C124   H256    1.143   .     S
H125   C108    1.143   1_565 S
H126   C188    1.143   .     S
H127   C188    1.144   .     S
H128   C188    1.143   .     S
C129   C130    1.454   .     S
C129   C134    1.472   .     D
C129   H152    1.143   .     S
C130   C131    1.431   .     D
C130   O335    1.486   .     S
C131   C132    1.485   .     S
C131   C135    1.508   .     S
C132   C133    1.424   .     D
C132   H153    1.142   .     S
C133   C134    1.390   .     S
C133   C229    1.446   1_455 S
C134   C515    1.483   .     S
C135   H154    1.144   .     S
C135   N334    1.361   .     D
C136   C137    1.426   .     S
C136   C141    1.402   .     D
C136   H155    1.144   .     S
C137   C138    1.487   .     D
C137   C156    1.143   .     S
C138   C139    1.450   1_455 S
C138   C394    1.469   1_455 S
C139   C138    1.450   1_655 S
C139   C140    1.433   1_655 D
C139   C337    1.572   .     S
C140   C139    1.433   1_455 D
C140   C141    1.474   .     S
C140   H157    1.143   1_455 S
C141   N334    1.466   .     S
N142   C295    1.361   .     D
N142   C301    1.466   .     S
O143   C144    1.433   1_545 S
O143   C290    1.486   .     S
C144   O143    1.433   1_565 S
C144   H146    1.143   1_565 S
C144   H147    1.144   1_565 S
C144   H148    1.144   .     S
C145   H149    1.143   .     S
C145   H150    1.143   .     S
C145   H151    1.144   1_565 S
C145   H158    1.144   1_565 S
C145   C299    1.572   .     S
H146   C144    1.143   1_545 S
H147   C144    1.144   1_545 S
H149   H160    0.780   .     S
H151   C145    1.144   1_545 S
C156   H94     1.143   1_455 S
C156   H95     1.144   1_455 S
H157   C140    1.143   1_655 S
H158   C28     1.143   1_545 S
H158   C145    1.144   1_545 S
H159   C28     1.144   1_545 S
C161   C162    1.454   .     S
C161   C166    1.472   .     D
C161   H184    1.143   .     S
C162   C163    1.431   .     D
C162   O367    1.486   .     S
C163   C164    1.485   .     S
C163   C167    1.508   .     S
C164   C165    1.424   .     D
C164   H185    1.142   .     S
C165   C166    1.390   .     S
C165   C197    1.446   1_545 S
C166   C516    1.483   .     S
C167   H186    1.144   .     S
C167   N366    1.361   .     D
C168   C169    1.426   .     S
C168   C173    1.402   .     D
C168   H187    1.144   .     S
C169   C170    1.487   .     D
C169   C188    1.143   .     S
C170   C171    1.450   .     S
C170   C426    1.469   .     S
C171   C172    1.433   .     D
C171   C369    1.572   .     S
C172   C173    1.474   .     S
C172   H189    1.143   .     S
C173   N366    1.466   .     S
N174   C263    1.361   .     D
N174   C269    1.466   .     S
O175   C176    1.433   .     S
O175   C258    1.486   .     S
C176   H178    1.143   .     S
C176   H179    1.144   .     S
C176   H180    1.144   .     S
C177   H181    1.143   .     S
C177   H182    1.143   .     S
C177   H183    1.144   .     S
C177   H190    1.144   .     S
C177   C267    1.572   .     S
H181   H192    0.780   .     S
C193   C194    1.454   .     S
C193   C198    1.472   .     D
C193   H216    1.143   .     S
C194   C195    1.431   .     D
C194   O271    1.486   .     S
C195   C196    1.485   .     S
C195   C199    1.508   .     S
C196   C197    1.424   .     D
C196   H217    1.142   .     S
C197   C165    1.446   1_565 S
C197   C198    1.390   .     S
C198   C516    1.483   1_565 S
C199   H218    1.144   .     S
C199   N270    1.361   .     D
C200   C201    1.426   .     S
C200   C205    1.402   .     D
C200   H219    1.144   .     S
C201   C202    1.487   .     D
C201   C220    1.143   .     S
C202   C203    1.450   .     S
C202   C458    1.469   .     S
C203   C204    1.433   .     D
C203   C273    1.572   .     S
C204   C205    1.474   .     S
C204   H221    1.143   .     S
C205   N270    1.466   .     S
N206   C359    1.361   .     D
N206   C365    1.466   .     S
O207   C208    1.433   .     S
O207   C354    1.486   .     S
C208   H210    1.143   .     S
C208   H211    1.144   .     S
C208   H212    1.144   .     S
C209   H213    1.143   .     S
C209   H214    1.143   .     S
C209   H215    1.144   .     S
C209   H222    1.144   .     S
C209   C363    1.572   .     S
H213   H224    0.780   .     S
C225   C226    1.454   .     D
C225   C230    1.472   .     S
C225   H248    1.143   .     S
C226   C227    1.431   .     S
C226   O303    1.486   .     S
C227   C228    1.485   .     D
C227   C231    1.508   .     S
C228   C229    1.424   .     S
C228   H249    1.142   .     S
C229   C133    1.446   1_655 S
C229   C230    1.390   .     D
C230   C515    1.483   1_655 S
C231   H250    1.144   .     S
C231   N302    1.361   .     D
C232   C233    1.426   .     D
C232   C237    1.402   .     S
C232   H251    1.144   .     S
C233   C234    1.487   .     S
C233   C252    1.143   .     S
C234   C235    1.450   1_655 D
C234   C490    1.469   1_655 S
C235   C234    1.450   1_455 D
C235   C236    1.433   1_455 S
C235   C305    1.572   .     S
C236   C235    1.433   1_655 S
C236   C237    1.474   .     D
C236   H253    1.143   1_655 S
C237   N302    1.466   .     S
N238   C327    1.361   .     D
N238   C333    1.466   .     S
O239   C240    1.433   1_565 S
O239   C322    1.486   .     S
C240   O239    1.433   1_545 S
C240   H242    1.143   1_545 S
C240   H243    1.144   1_545 S
C240   H244    1.144   .     S
C241   H245    1.143   .     S
C241   H246    1.143   .     S
C241   H247    1.144   1_545 S
C241   H254    1.144   1_545 S
C241   C331    1.572   .     S
H242   C240    1.143   1_565 S
H243   C240    1.144   1_565 S
H245   H256    0.780   .     S
H247   C241    1.144   1_565 S
C252   H63     1.144   1_655 S
C252   H62     1.143   1_655 S
H253   C236    1.143   1_455 S
H254   C124    1.143   1_565 S
H254   C241    1.144   1_565 S
H255   C124    1.144   1_565 S
C257   C258    1.454   .     S
C257   C262    1.472   .     D
C257   H280    1.143   .     S
C258   C259    1.431   .     D
C259   C260    1.485   .     S
C259   C263    1.508   .     S
C260   C261    1.424   .     D
C260   H281    1.142   .     S
C261   C262    1.390   .     S
C261   C357    1.446   1_655 S
C262   C515    1.483   1_655 S
C263   H282    1.144   .     S
C264   C265    1.426   .     S
C264   C269    1.402   .     D
C264   H283    1.144   .     S
C265   C266    1.487   .     D
C265   C284    1.143   .     S
C266   C267    1.450   .     S
C267   C268    1.433   .     D
C268   C269    1.474   .     S
C268   H285    1.143   .     S
O271   C272    1.433   .     S
C272   H274    1.143   .     S
C272   H275    1.144   .     S
C272   H276    1.144   .     S
C273   H277    1.143   .     S
C273   H278    1.143   .     S
C273   H279    1.144   .     S
C273   H286    1.144   .     S
H277   H288    0.780   .     S
H277   C476    1.031   .     S
C284   H405    1.031   .     S
C284   H414    1.143   .     S
C284   H415    1.144   .     S
C284   H416    1.143   .     S
H286   C476    1.143   .     S
H287   C476    1.144   .     S
H288   C476    1.143   .     S
C289   C290    1.454   .     S
C289   C294    1.472   .     D
C289   H312    1.143   .     S
C290   C291    1.431   .     D
C291   C292    1.485   .     S
C291   C295    1.508   .     S
C292   C293    1.424   .     D
C292   H313    1.142   .     S
C293   C294    1.390   .     S
C293   C325    1.446   1_545 S
C294   C516    1.483   .     S
C295   H314    1.144   .     S
C296   C297    1.426   .     S
C296   C301    1.402   .     D
C296   H315    1.144   .     S
C297   C298    1.487   .     D
C297   C316    1.143   .     S
C298   C10     1.469   1_545 S
C298   C299    1.450   1_545 S
C299   C298    1.450   1_565 S
C299   C300    1.433   1_565 D
C300   C299    1.433   1_545 D
C300   C301    1.474   .     S
C300   H317    1.143   1_545 S
O303   C304    1.433   1_655 S
C304   O303    1.433   1_455 S
C304   H306    1.143   1_455 S
C304   H307    1.144   1_455 S
C304   H308    1.144   .     S
C305   H309    1.143   .     S
C305   H310    1.143   .     S
C305   H311    1.144   1_455 S
C305   H318    1.144   1_455 S
H306   C304    1.143   1_655 S
H307   C304    1.144   1_655 S
H309   H320    0.780   .     S
H309   C508    1.031   .     S
H311   C305    1.144   1_655 S
C316   H437    1.031   .     S
C316   H446    1.143   1_545 S
C316   H447    1.144   1_545 S
C316   H448    1.143   .     S
H317   C300    1.143   1_565 S
H318   C305    1.144   1_655 S
H318   C508    1.143   1_655 S
H319   C508    1.144   1_655 S
H320   C508    1.143   .     S
C321   C322    1.454   .     S
C321   C326    1.472   .     D
C321   H344    1.143   .     S
C322   C323    1.431   .     D
C323   C324    1.485   .     S
C323   C327    1.508   .     S
C324   C325    1.424   .     D
C324   H345    1.142   .     S
C325   C293    1.446   1_565 S
C325   C326    1.390   .     S
C326   C516    1.483   1_565 S
C327   H346    1.144   .     S
C328   C329    1.426   .     S
C328   C333    1.402   .     D
C328   H347    1.144   .     S
C329   C330    1.487   .     D
C329   C348    1.143   .     S
C330   C106    1.469   1_565 S
C330   C331    1.450   1_565 S
C331   C330    1.450   1_545 S
C331   C332    1.433   1_545 D
C332   C331    1.433   1_565 D
C332   C333    1.474   .     S
C332   H349    1.143   1_565 S
O335   C336    1.433   1_455 S
C336   O335    1.433   1_655 S
C336   H338    1.143   1_655 S
C336   H339    1.144   1_655 S
C336   H340    1.144   .     S
C337   H341    1.143   .     S
C337   H342    1.143   .     S
C337   H343    1.144   1_655 S
C337   H350    1.144   1_655 S
H338   C336    1.143   1_455 S
H339   C336    1.144   1_455 S
H341   H352    0.780   .     S
H341   C412    1.031   .     S
H343   C337    1.144   1_455 S
C348   H469    1.031   .     S
C348   H478    1.143   1_565 S
C348   H479    1.144   1_565 S
C348   H480    1.143   .     S
H349   C332    1.143   1_545 S
H350   C337    1.144   1_455 S
H350   C412    1.143   1_455 S
H351   C412    1.144   1_455 S
H352   C412    1.143   .     S
C353   C354    1.454   .     S
C353   C358    1.472   .     D
C353   H376    1.143   .     S
C354   C355    1.431   .     D
C355   C356    1.485   .     S
C355   C359    1.508   .     S
C356   C357    1.424   .     D
C356   H377    1.142   .     S
C357   C261    1.446   1_455 S
C357   C358    1.390   .     S
C358   C515    1.483   .     S
C359   H378    1.144   .     S
C360   C361    1.426   .     S
C360   C365    1.402   .     D
C360   H379    1.144   .     S
C361   C362    1.487   .     D
C361   C380    1.143   .     S
C362   C363    1.450   .     S
C363   C364    1.433   .     D
C364   C365    1.474   .     S
C364   H381    1.143   .     S
O367   C368    1.433   .     S
C368   H370    1.143   .     S
C368   H371    1.144   .     S
C368   H372    1.144   .     S
C369   H373    1.143   .     S
C369   H374    1.143   .     S
C369   H375    1.144   .     S
C369   H382    1.144   .     S
H373   H384    0.780   .     S
H373   C444    1.031   .     S
C380   H501    1.031   .     S
C380   H510    1.143   .     S
C380   H511    1.144   .     S
C380   H512    1.143   .     S
H382   C444    1.143   .     S
H383   C444    1.144   .     S
H384   C444    1.143   .     S
C385   C386    1.454   .     S
C385   C390    1.472   .     D
C385   H408    1.143   1_554 S
C386   C387    1.431   .     D
C387   C388    1.485   .     S
C387   C391    1.508   .     S
C388   C389    1.424   .     D
C388   H409    1.142   .     S
C389   C390    1.390   .     S
C389   C485    1.446   1_665 S
C390   C513    1.483   1_665 S
C391   H410    1.144   .     S
C392   C393    1.426   .     D
C392   C397    1.402   .     S
C392   H411    1.144   .     S
C393   C394    1.487   .     S
C393   C412    1.143   .     S
C394   C138    1.469   1_655 S
C394   C395    1.450   1_655 D
C395   C394    1.450   1_455 D
C395   C396    1.433   1_455 S
C396   C395    1.433   1_655 S
C396   C397    1.474   .     D
C396   H413    1.143   1_655 S
O399   C400    1.433   .     S
C400   H402    1.143   .     S
C400   H403    1.144   .     S
C400   H404    1.144   .     S
C401   H405    1.143   .     S
C401   H406    1.143   .     S
C401   H407    1.144   .     S
C401   H414    1.144   .     S
H405   H416    0.780   .     S
H408   C385    1.143   1_556 S
C412   H351    1.144   1_655 S
C412   H350    1.143   1_655 S
H413   C396    1.143   1_455 S
C417   C418    1.454   .     S
C417   C422    1.472   .     D
C417   H440    1.143   .     S
C418   C419    1.431   .     D
C419   C420    1.485   .     S
C419   C423    1.508   .     S
C420   C421    1.424   .     D
C420   H441    1.142   .     S
C421   C422    1.390   .     S
C421   C453    1.446   .     S
C422   C514    1.483   .     S
C423   H442    1.144   .     S
C424   C425    1.426   .     D
C424   C429    1.402   .     S
C424   H443    1.144   .     S
C425   C426    1.487   .     S
C425   C444    1.143   .     S
C426   C427    1.450   .     D
C427   C428    1.433   .     S
C428   C429    1.474   .     D
C428   H445    1.143   .     S
O431   C432    1.433   1_565 S
C432   O431    1.433   1_545 S
C432   H434    1.143   1_546 S
C432   H435    1.144   1_546 S
C432   H436    1.144   1_556 S
C433   H437    1.143   .     S
C433   H438    1.143   .     S
C433   H439    1.144   1_545 S
C433   H446    1.144   1_545 S
H434   C432    1.143   1_564 S
H435   C432    1.144   1_564 S
H436   C432    1.144   1_554 S
H437   H448    0.780   .     S
H439   C433    1.144   1_565 S
H446   C316    1.143   1_565 S
H446   C433    1.144   1_565 S
H447   C316    1.144   1_565 S
C449   C450    1.454   .     S
C449   C454    1.472   .     D
C449   H472    1.143   .     S
C450   C451    1.431   .     D
C451   C452    1.485   .     S
C451   C455    1.508   .     S
C452   C453    1.424   .     D
C452   H473    1.142   .     S
C453   C454    1.390   .     S
C454   C514    1.483   .     S
C455   H474    1.144   .     S
C456   C457    1.426   .     D
C456   C461    1.402   .     S
C456   H475    1.144   .     S
C457   C458    1.487   .     S
C457   C476    1.143   .     S
C458   C459    1.450   .     D
C459   C460    1.433   .     S
C460   C461    1.474   .     D
C460   H477    1.143   .     S
O463   C464    1.433   1_545 S
C464   O463    1.433   1_565 S
C464   H466    1.143   1_566 S
C464   H467    1.144   1_566 S
C464   H468    1.144   1_556 S
C465   H469    1.143   .     S
C465   H470    1.143   .     S
C465   H471    1.144   1_565 S
C465   H478    1.144   1_565 S
H466   C464    1.143   1_544 S
H467   C464    1.144   1_544 S
H468   C464    1.144   1_554 S
H469   H480    0.780   .     S
H471   C465    1.144   1_545 S
H478   C348    1.143   1_545 S
H478   C465    1.144   1_545 S
H479   C348    1.144   1_545 S
C481   C482    1.454   .     D
C481   C486    1.472   .     S
C481   H504    1.143   1_554 S
C482   C483    1.431   .     S
C483   C484    1.485   .     D
C483   C487    1.508   .     S
C484   C485    1.424   .     S
C484   H505    1.142   .     S
C485   C389    1.446   1_445 S
C485   C486    1.390   .     D
C486   C513    1.483   .     S
C487   H506    1.144   .     S
C488   C489    1.426   .     S
C488   C493    1.402   .     D
C488   H507    1.144   .     S
C489   C490    1.487   .     D
C489   C508    1.143   .     S
C490   C234    1.469   1_455 S
C490   C491    1.450   1_455 S
C491   C490    1.450   1_655 S
C491   C492    1.433   1_655 D
C492   C491    1.433   1_455 D
C492   C493    1.474   .     S
C492   H509    1.143   1_455 S
O495   C496    1.433   .     S
C496   H498    1.143   .     S
C496   H499    1.144   .     S
C496   H500    1.144   .     S
C497   H501    1.143   .     S
C497   H502    1.143   .     S
C497   H503    1.144   .     S
C497   H510    1.144   .     S
H501   H512    0.780   .     S
H504   C481    1.143   1_556 S
C508   H319    1.144   1_455 S
C508   H318    1.143   1_455 S
H509   C492    1.143   1_655 S
C513   C390    1.483   1_445 S
C513   C102    1.483   1_454 S
C513   C6      1.483   1_544 S
C515   C230    1.483   1_455 S
C515   C262    1.483   1_455 S
C516   C198    1.483   1_545 S
C516   C326    1.483   1_545 S
