data_286
_audit_creation_date              2023-09-08
_audit_creation_method            'Materials Studio'
_symmetry_space_group_name_H-M    'P1'
_symmetry_Int_Tables_number       1
_symmetry_cell_setting            triclinic
loop_
_symmetry_equiv_pos_as_xyz
  x,y,z
_cell_length_a                    51.0253
_cell_length_b                    43.2067
_cell_length_c                    6.5014
_cell_angle_alpha                 90.0000
_cell_angle_beta                  90.0000
_cell_angle_gamma                 90.0000
loop_
_atom_site_label
_atom_site_type_symbol
_atom_site_fract_x
_atom_site_fract_y
_atom_site_fract_z
_atom_site_U_iso_or_equiv
_atom_site_adp_type
_atom_site_occupancy
C1     C     0.48680   0.50000   0.50000   0.00000  Uiso   1.00
C2     C     0.48680   0.00000   0.00000   0.00000  Uiso   1.00
C3     C     0.98680   0.50000   0.00000   0.00000  Uiso   1.00
C4     C     0.98680   0.00000   0.50000   0.00000  Uiso   1.00
C5     C     0.51320   0.50000   0.50000   0.00000  Uiso   1.00
C6     C     0.51320   0.00000   0.00000   0.00000  Uiso   1.00
C7     C     0.01320   0.50000   0.00000   0.00000  Uiso   1.00
C8     C     0.01320   0.00000   0.50000   0.00000  Uiso   1.00
C9     C     0.08187   0.07172   0.50000   0.00000  Uiso   1.00
H1     H     0.06240   0.08139   0.50000   0.00000  Uiso   1.00
C10    C     0.10235   0.09329   0.50000   0.00000  Uiso   1.00
H2     H     0.09767   0.11774   0.50000   0.00000  Uiso   1.00
C11    C     0.12844   0.08333   0.50000   0.00000  Uiso   1.00
C12    C     0.13362   0.05168   0.50000   0.00000  Uiso   1.00
H3     H     0.15358   0.04319   0.50000   0.00000  Uiso   1.00
C13    C     0.11298   0.03052   0.50000   0.00000  Uiso   1.00
C14    C     0.08665   0.03923   0.50000   0.00000  Uiso   1.00
N1     N     0.14690   0.13493   0.50000   0.00000  Uiso   1.00
C15    C     0.15051   0.10523   0.50000   0.00000  Uiso   1.00
C16    C     0.16160   0.18854   0.50000   0.00000  Uiso   1.00
H4     H     0.14126   0.19572   0.50000   0.00000  Uiso   1.00
C17    C     0.18131   0.21098   0.50000   0.00000  Uiso   1.00
H5     H     0.17473   0.23463   0.50000   0.00000  Uiso   1.00
C18    C     0.20818   0.20268   0.50000   0.00000  Uiso   1.00
C19    C     0.21407   0.17062   0.50000   0.00000  Uiso   1.00
H6     H     0.23380   0.16188   0.50000   0.00000  Uiso   1.00
C20    C     0.19426   0.14830   0.50000   0.00000  Uiso   1.00
H7     H     0.19972   0.12409   0.50000   0.00000  Uiso   1.00
C21    C     0.16782   0.15714   0.50000   0.00000  Uiso   1.00
C22    C     0.25641   0.21875   0.50000   0.00000  Uiso   1.00
C23    C     0.26296   0.19509   0.50000   0.00000  Uiso   1.00
C24    C     0.22383   0.25889   0.50000   0.00000  Uiso   1.00
H8     H     0.20409   0.26762   0.50000   0.00000  Uiso   1.00
C25    C     0.22964   0.22696   0.50000   0.00000  Uiso   1.00
C26    C     0.43604   0.51608   0.50000   0.00000  Uiso   1.00
S1     S     0.46826   0.53476   0.50000   0.00000  Uiso   1.00
H9     H     0.38222   0.50532   0.50000   0.00000  Uiso   1.00
H10    H     0.71845   0.59852   0.50000   0.00000  Uiso   1.00
C27    C     0.08187   0.57172   0.00000   0.00000  Uiso   1.00
H11    H     0.06240   0.58139   0.00000   0.00000  Uiso   1.00
C28    C     0.10235   0.59329   0.00000   0.00000  Uiso   1.00
H12    H     0.09767   0.61774   0.00000   0.00000  Uiso   1.00
C29    C     0.12844   0.58333   0.00000   0.00000  Uiso   1.00
C30    C     0.13362   0.55168   0.00000   0.00000  Uiso   1.00
H13    H     0.15358   0.54319   0.00000   0.00000  Uiso   1.00
C31    C     0.11298   0.53052   0.00000   0.00000  Uiso   1.00
C32    C     0.08665   0.53923   0.00000   0.00000  Uiso   1.00
N2     N     0.14690   0.63493   0.00000   0.00000  Uiso   1.00
C33    C     0.15051   0.60523   0.00000   0.00000  Uiso   1.00
C34    C     0.16160   0.68854   0.00000   0.00000  Uiso   1.00
H14    H     0.14126   0.69572   0.00000   0.00000  Uiso   1.00
C35    C     0.18131   0.71098   0.00000   0.00000  Uiso   1.00
H15    H     0.17473   0.73463   0.00000   0.00000  Uiso   1.00
C36    C     0.20818   0.70268   0.00000   0.00000  Uiso   1.00
C37    C     0.21407   0.67062   0.00000   0.00000  Uiso   1.00
H16    H     0.23380   0.66188   0.00000   0.00000  Uiso   1.00
C38    C     0.19426   0.64830   0.00000   0.00000  Uiso   1.00
H17    H     0.19972   0.62409   0.00000   0.00000  Uiso   1.00
C39    C     0.16782   0.65714   0.00000   0.00000  Uiso   1.00
C40    C     0.25641   0.71875   0.00000   0.00000  Uiso   1.00
C41    C     0.26296   0.69509   0.00000   0.00000  Uiso   1.00
C42    C     0.22383   0.75889   0.00000   0.00000  Uiso   1.00
H18    H     0.20409   0.76762   0.00000   0.00000  Uiso   1.00
C43    C     0.22964   0.72696   0.00000   0.00000  Uiso   1.00
C44    C     0.43604   0.01608   0.00000   0.00000  Uiso   1.00
S2     S     0.46826   0.03476   0.00000   0.00000  Uiso   1.00
H19    H     0.38222   0.00532   0.00000   0.00000  Uiso   1.00
H20    H     0.71845   0.09852   0.00000   0.00000  Uiso   1.00
C45    C     0.58187   0.07172   0.00000   0.00000  Uiso   1.00
H21    H     0.56240   0.08139   0.00000   0.00000  Uiso   1.00
C46    C     0.60235   0.09329   0.00000   0.00000  Uiso   1.00
H22    H     0.59767   0.11774   0.00000   0.00000  Uiso   1.00
C47    C     0.62844   0.08333   0.00000   0.00000  Uiso   1.00
C48    C     0.63362   0.05168   0.00000   0.00000  Uiso   1.00
H23    H     0.65358   0.04319   0.00000   0.00000  Uiso   1.00
C49    C     0.61298   0.03052   0.00000   0.00000  Uiso   1.00
C50    C     0.58665   0.03923   0.00000   0.00000  Uiso   1.00
N3     N     0.64690   0.13493   0.00000   0.00000  Uiso   1.00
C51    C     0.65051   0.10523   0.00000   0.00000  Uiso   1.00
C52    C     0.66160   0.18854   0.00000   0.00000  Uiso   1.00
H24    H     0.64126   0.19572   0.00000   0.00000  Uiso   1.00
C53    C     0.68131   0.21098   0.00000   0.00000  Uiso   1.00
H25    H     0.67473   0.23463   0.00000   0.00000  Uiso   1.00
C54    C     0.70818   0.20268   0.00000   0.00000  Uiso   1.00
C55    C     0.71407   0.17062   0.00000   0.00000  Uiso   1.00
H26    H     0.73380   0.16188   0.00000   0.00000  Uiso   1.00
C56    C     0.69426   0.14830   0.00000   0.00000  Uiso   1.00
H27    H     0.69972   0.12409   0.00000   0.00000  Uiso   1.00
C57    C     0.66782   0.15714   0.00000   0.00000  Uiso   1.00
C58    C     0.75641   0.21875   0.00000   0.00000  Uiso   1.00
C59    C     0.76296   0.19509   0.00000   0.00000  Uiso   1.00
C60    C     0.72383   0.25889   0.00000   0.00000  Uiso   1.00
H28    H     0.70409   0.26762   0.00000   0.00000  Uiso   1.00
C61    C     0.72964   0.22696   0.00000   0.00000  Uiso   1.00
C62    C     0.93604   0.51608   0.00000   0.00000  Uiso   1.00
S3     S     0.96826   0.53476   0.00000   0.00000  Uiso   1.00
H29    H     0.88222   0.50532   0.00000   0.00000  Uiso   1.00
H30    H     0.21845   0.59852   0.00000   0.00000  Uiso   1.00
C63    C     0.58187   0.57172   0.50000   0.00000  Uiso   1.00
H31    H     0.56240   0.58139   0.50000   0.00000  Uiso   1.00
C64    C     0.60235   0.59329   0.50000   0.00000  Uiso   1.00
H32    H     0.59767   0.61774   0.50000   0.00000  Uiso   1.00
C65    C     0.62844   0.58333   0.50000   0.00000  Uiso   1.00
C66    C     0.63362   0.55168   0.50000   0.00000  Uiso   1.00
H33    H     0.65358   0.54319   0.50000   0.00000  Uiso   1.00
C67    C     0.61298   0.53052   0.50000   0.00000  Uiso   1.00
C68    C     0.58665   0.53923   0.50000   0.00000  Uiso   1.00
N4     N     0.64690   0.63493   0.50000   0.00000  Uiso   1.00
C69    C     0.65051   0.60523   0.50000   0.00000  Uiso   1.00
C70    C     0.66160   0.68854   0.50000   0.00000  Uiso   1.00
H34    H     0.64126   0.69572   0.50000   0.00000  Uiso   1.00
C71    C     0.68131   0.71098   0.50000   0.00000  Uiso   1.00
H35    H     0.67473   0.73463   0.50000   0.00000  Uiso   1.00
C72    C     0.70818   0.70268   0.50000   0.00000  Uiso   1.00
C73    C     0.71407   0.67062   0.50000   0.00000  Uiso   1.00
H36    H     0.73380   0.66188   0.50000   0.00000  Uiso   1.00
C74    C     0.69426   0.64830   0.50000   0.00000  Uiso   1.00
H37    H     0.69972   0.62409   0.50000   0.00000  Uiso   1.00
C75    C     0.66782   0.65714   0.50000   0.00000  Uiso   1.00
C76    C     0.75641   0.71875   0.50000   0.00000  Uiso   1.00
C77    C     0.76296   0.69509   0.50000   0.00000  Uiso   1.00
C78    C     0.72383   0.75889   0.50000   0.00000  Uiso   1.00
H38    H     0.70409   0.76762   0.50000   0.00000  Uiso   1.00
C79    C     0.72964   0.72696   0.50000   0.00000  Uiso   1.00
C80    C     0.93604   0.01608   0.50000   0.00000  Uiso   1.00
S4     S     0.96826   0.03476   0.50000   0.00000  Uiso   1.00
H39    H     0.88222   0.00532   0.50000   0.00000  Uiso   1.00
H40    H     0.21845   0.09852   0.50000   0.00000  Uiso   1.00
C81    C     0.91813   0.92828   0.50000   0.00000  Uiso   1.00
H41    H     0.93760   0.91861   0.50000   0.00000  Uiso   1.00
C82    C     0.89765   0.90671   0.50000   0.00000  Uiso   1.00
H42    H     0.90233   0.88226   0.50000   0.00000  Uiso   1.00
C83    C     0.87156   0.91667   0.50000   0.00000  Uiso   1.00
C84    C     0.86638   0.94832   0.50000   0.00000  Uiso   1.00
H43    H     0.84642   0.95681   0.50000   0.00000  Uiso   1.00
C85    C     0.88702   0.96948   0.50000   0.00000  Uiso   1.00
C86    C     0.91335   0.96077   0.50000   0.00000  Uiso   1.00
N5     N     0.85310   0.86507   0.50000   0.00000  Uiso   1.00
C87    C     0.84949   0.89477   0.50000   0.00000  Uiso   1.00
C88    C     0.83840   0.81146   0.50000   0.00000  Uiso   1.00
H44    H     0.85874   0.80428   0.50000   0.00000  Uiso   1.00
C89    C     0.81869   0.78902   0.50000   0.00000  Uiso   1.00
H45    H     0.82527   0.76537   0.50000   0.00000  Uiso   1.00
C90    C     0.79182   0.79732   0.50000   0.00000  Uiso   1.00
C91    C     0.78593   0.82938   0.50000   0.00000  Uiso   1.00
H46    H     0.76620   0.83812   0.50000   0.00000  Uiso   1.00
C92    C     0.80574   0.85170   0.50000   0.00000  Uiso   1.00
H47    H     0.80028   0.87591   0.50000   0.00000  Uiso   1.00
C93    C     0.83218   0.84286   0.50000   0.00000  Uiso   1.00
C94    C     0.74359   0.78125   0.50000   0.00000  Uiso   1.00
C95    C     0.73704   0.80491   0.50000   0.00000  Uiso   1.00
C96    C     0.77617   0.74111   0.50000   0.00000  Uiso   1.00
H48    H     0.79591   0.73238   0.50000   0.00000  Uiso   1.00
C97    C     0.77036   0.77304   0.50000   0.00000  Uiso   1.00
C98    C     0.56396   0.48392   0.50000   0.00000  Uiso   1.00
S5     S     0.53174   0.46524   0.50000   0.00000  Uiso   1.00
H49    H     0.61778   0.49468   0.50000   0.00000  Uiso   1.00
H50    H     0.28155   0.40148   0.50000   0.00000  Uiso   1.00
C99    C     0.91813   0.42828   0.00000   0.00000  Uiso   1.00
H51    H     0.93760   0.41861   0.00000   0.00000  Uiso   1.00
C100   C     0.89765   0.40671   0.00000   0.00000  Uiso   1.00
H52    H     0.90233   0.38226   0.00000   0.00000  Uiso   1.00
C101   C     0.87156   0.41667   0.00000   0.00000  Uiso   1.00
C102   C     0.86638   0.44832   0.00000   0.00000  Uiso   1.00
H53    H     0.84642   0.45681   0.00000   0.00000  Uiso   1.00
C103   C     0.88702   0.46948   0.00000   0.00000  Uiso   1.00
C104   C     0.91335   0.46077   0.00000   0.00000  Uiso   1.00
N6     N     0.85310   0.36507   0.00000   0.00000  Uiso   1.00
C105   C     0.84949   0.39477   0.00000   0.00000  Uiso   1.00
C106   C     0.83840   0.31146   0.00000   0.00000  Uiso   1.00
H54    H     0.85874   0.30428   0.00000   0.00000  Uiso   1.00
C107   C     0.81869   0.28902   0.00000   0.00000  Uiso   1.00
H55    H     0.82527   0.26537   0.00000   0.00000  Uiso   1.00
C108   C     0.79182   0.29732   0.00000   0.00000  Uiso   1.00
C109   C     0.78593   0.32938   0.00000   0.00000  Uiso   1.00
H56    H     0.76620   0.33812   0.00000   0.00000  Uiso   1.00
C110   C     0.80574   0.35170   0.00000   0.00000  Uiso   1.00
H57    H     0.80028   0.37591   0.00000   0.00000  Uiso   1.00
C111   C     0.83218   0.34286   0.00000   0.00000  Uiso   1.00
C112   C     0.74359   0.28125   0.00000   0.00000  Uiso   1.00
C113   C     0.73704   0.30491   0.00000   0.00000  Uiso   1.00
C114   C     0.77617   0.24111   0.00000   0.00000  Uiso   1.00
H58    H     0.79591   0.23238   0.00000   0.00000  Uiso   1.00
C115   C     0.77036   0.27304   0.00000   0.00000  Uiso   1.00
C116   C     0.56396   0.98392   0.00000   0.00000  Uiso   1.00
S6     S     0.53174   0.96524   0.00000   0.00000  Uiso   1.00
H59    H     0.61778   0.99468   0.00000   0.00000  Uiso   1.00
H60    H     0.28155   0.90148   0.00000   0.00000  Uiso   1.00
C117   C     0.41813   0.92828   0.00000   0.00000  Uiso   1.00
H61    H     0.43760   0.91861   0.00000   0.00000  Uiso   1.00
C118   C     0.39765   0.90671   0.00000   0.00000  Uiso   1.00
H62    H     0.40233   0.88226   0.00000   0.00000  Uiso   1.00
C119   C     0.37156   0.91667   0.00000   0.00000  Uiso   1.00
C120   C     0.36638   0.94832   0.00000   0.00000  Uiso   1.00
H63    H     0.34642   0.95681   0.00000   0.00000  Uiso   1.00
C121   C     0.38702   0.96948   0.00000   0.00000  Uiso   1.00
C122   C     0.41335   0.96077   0.00000   0.00000  Uiso   1.00
N7     N     0.35310   0.86507   0.00000   0.00000  Uiso   1.00
C123   C     0.34949   0.89477   0.00000   0.00000  Uiso   1.00
C124   C     0.33840   0.81146   0.00000   0.00000  Uiso   1.00
H64    H     0.35874   0.80428   0.00000   0.00000  Uiso   1.00
C125   C     0.31869   0.78902   0.00000   0.00000  Uiso   1.00
H65    H     0.32527   0.76537   0.00000   0.00000  Uiso   1.00
C126   C     0.29182   0.79732   0.00000   0.00000  Uiso   1.00
C127   C     0.28593   0.82938   0.00000   0.00000  Uiso   1.00
H66    H     0.26620   0.83812   0.00000   0.00000  Uiso   1.00
C128   C     0.30574   0.85170   0.00000   0.00000  Uiso   1.00
H67    H     0.30028   0.87591   0.00000   0.00000  Uiso   1.00
C129   C     0.33218   0.84286   0.00000   0.00000  Uiso   1.00
C130   C     0.24359   0.78125   0.00000   0.00000  Uiso   1.00
C131   C     0.23704   0.80491   0.00000   0.00000  Uiso   1.00
C132   C     0.27617   0.74111   0.00000   0.00000  Uiso   1.00
H68    H     0.29591   0.73238   0.00000   0.00000  Uiso   1.00
C133   C     0.27036   0.77304   0.00000   0.00000  Uiso   1.00
C134   C     0.06396   0.48392   0.00000   0.00000  Uiso   1.00
S7     S     0.03174   0.46524   0.00000   0.00000  Uiso   1.00
H69    H     0.11778   0.49468   0.00000   0.00000  Uiso   1.00
H70    H     0.78155   0.40148   0.00000   0.00000  Uiso   1.00
C135   C     0.41813   0.42828   0.50000   0.00000  Uiso   1.00
H71    H     0.43760   0.41861   0.50000   0.00000  Uiso   1.00
C136   C     0.39765   0.40671   0.50000   0.00000  Uiso   1.00
H72    H     0.40233   0.38226   0.50000   0.00000  Uiso   1.00
C137   C     0.37156   0.41667   0.50000   0.00000  Uiso   1.00
C138   C     0.36638   0.44832   0.50000   0.00000  Uiso   1.00
H73    H     0.34642   0.45681   0.50000   0.00000  Uiso   1.00
C139   C     0.38702   0.46948   0.50000   0.00000  Uiso   1.00
C140   C     0.41335   0.46077   0.50000   0.00000  Uiso   1.00
N8     N     0.35310   0.36507   0.50000   0.00000  Uiso   1.00
C141   C     0.34949   0.39477   0.50000   0.00000  Uiso   1.00
C142   C     0.33840   0.31146   0.50000   0.00000  Uiso   1.00
H74    H     0.35874   0.30428   0.50000   0.00000  Uiso   1.00
C143   C     0.31869   0.28902   0.50000   0.00000  Uiso   1.00
H75    H     0.32527   0.26537   0.50000   0.00000  Uiso   1.00
C144   C     0.29182   0.29732   0.50000   0.00000  Uiso   1.00
C145   C     0.28593   0.32938   0.50000   0.00000  Uiso   1.00
H76    H     0.26620   0.33812   0.50000   0.00000  Uiso   1.00
C146   C     0.30574   0.35170   0.50000   0.00000  Uiso   1.00
H77    H     0.30028   0.37591   0.50000   0.00000  Uiso   1.00
C147   C     0.33218   0.34286   0.50000   0.00000  Uiso   1.00
C148   C     0.24359   0.28125   0.50000   0.00000  Uiso   1.00
C149   C     0.23704   0.30491   0.50000   0.00000  Uiso   1.00
C150   C     0.27617   0.24111   0.50000   0.00000  Uiso   1.00
H78    H     0.29591   0.23238   0.50000   0.00000  Uiso   1.00
C151   C     0.27036   0.27304   0.50000   0.00000  Uiso   1.00
C152   C     0.06396   0.98392   0.50000   0.00000  Uiso   1.00
S8     S     0.03174   0.96524   0.50000   0.00000  Uiso   1.00
H79    H     0.11778   0.99468   0.50000   0.00000  Uiso   1.00
H80    H     0.78155   0.90148   0.50000   0.00000  Uiso   1.00
C153   C     0.91813   0.07172   0.50000   0.00000  Uiso   1.00
H81    H     0.93760   0.08139   0.50000   0.00000  Uiso   1.00
C154   C     0.89765   0.09329   0.50000   0.00000  Uiso   1.00
H82    H     0.90233   0.11774   0.50000   0.00000  Uiso   1.00
C155   C     0.87156   0.08333   0.50000   0.00000  Uiso   1.00
C156   C     0.86638   0.05168   0.50000   0.00000  Uiso   1.00
H83    H     0.84642   0.04319   0.50000   0.00000  Uiso   1.00
C157   C     0.88702   0.03052   0.50000   0.00000  Uiso   1.00
C158   C     0.91335   0.03923   0.50000   0.00000  Uiso   1.00
N9     N     0.85310   0.13493   0.50000   0.00000  Uiso   1.00
C159   C     0.84949   0.10523   0.50000   0.00000  Uiso   1.00
C160   C     0.83840   0.18854   0.50000   0.00000  Uiso   1.00
H84    H     0.85874   0.19572   0.50000   0.00000  Uiso   1.00
C161   C     0.81869   0.21098   0.50000   0.00000  Uiso   1.00
H85    H     0.82527   0.23463   0.50000   0.00000  Uiso   1.00
C162   C     0.79182   0.20268   0.50000   0.00000  Uiso   1.00
C163   C     0.78593   0.17062   0.50000   0.00000  Uiso   1.00
H86    H     0.76620   0.16188   0.50000   0.00000  Uiso   1.00
C164   C     0.80574   0.14830   0.50000   0.00000  Uiso   1.00
H87    H     0.80028   0.12409   0.50000   0.00000  Uiso   1.00
C165   C     0.83218   0.15714   0.50000   0.00000  Uiso   1.00
C166   C     0.74359   0.21875   0.50000   0.00000  Uiso   1.00
C167   C     0.73704   0.19509   0.50000   0.00000  Uiso   1.00
C168   C     0.77617   0.25889   0.50000   0.00000  Uiso   1.00
H88    H     0.79591   0.26762   0.50000   0.00000  Uiso   1.00
C169   C     0.77036   0.22696   0.50000   0.00000  Uiso   1.00
C170   C     0.56396   0.51608   0.50000   0.00000  Uiso   1.00
S9     S     0.53174   0.53476   0.50000   0.00000  Uiso   1.00
H89    H     0.61778   0.50532   0.50000   0.00000  Uiso   1.00
H90    H     0.28155   0.59852   0.50000   0.00000  Uiso   1.00
C171   C     0.91813   0.57172   0.00000   0.00000  Uiso   1.00
H91    H     0.93760   0.58139   0.00000   0.00000  Uiso   1.00
C172   C     0.89765   0.59329   0.00000   0.00000  Uiso   1.00
H92    H     0.90233   0.61774   0.00000   0.00000  Uiso   1.00
C173   C     0.87156   0.58333   0.00000   0.00000  Uiso   1.00
C174   C     0.86638   0.55168   0.00000   0.00000  Uiso   1.00
H93    H     0.84642   0.54319   0.00000   0.00000  Uiso   1.00
C175   C     0.88702   0.53052   0.00000   0.00000  Uiso   1.00
C176   C     0.91335   0.53923   0.00000   0.00000  Uiso   1.00
N10    N     0.85310   0.63493   0.00000   0.00000  Uiso   1.00
C177   C     0.84949   0.60523   0.00000   0.00000  Uiso   1.00
C178   C     0.83840   0.68854   0.00000   0.00000  Uiso   1.00
H94    H     0.85874   0.69572   0.00000   0.00000  Uiso   1.00
C179   C     0.81869   0.71098   0.00000   0.00000  Uiso   1.00
H95    H     0.82527   0.73463   0.00000   0.00000  Uiso   1.00
C180   C     0.79182   0.70268   0.00000   0.00000  Uiso   1.00
C181   C     0.78593   0.67062   0.00000   0.00000  Uiso   1.00
H96    H     0.76620   0.66188   0.00000   0.00000  Uiso   1.00
C182   C     0.80574   0.64830   0.00000   0.00000  Uiso   1.00
H97    H     0.80028   0.62409   0.00000   0.00000  Uiso   1.00
C183   C     0.83218   0.65714   0.00000   0.00000  Uiso   1.00
C184   C     0.74359   0.71875   0.00000   0.00000  Uiso   1.00
C185   C     0.73704   0.69509   0.00000   0.00000  Uiso   1.00
C186   C     0.77617   0.75889   0.00000   0.00000  Uiso   1.00
H98    H     0.79591   0.76762   0.00000   0.00000  Uiso   1.00
C187   C     0.77036   0.72696   0.00000   0.00000  Uiso   1.00
C188   C     0.56396   0.01608   0.00000   0.00000  Uiso   1.00
S10    S     0.53174   0.03476   0.00000   0.00000  Uiso   1.00
H99    H     0.61778   0.00532   0.00000   0.00000  Uiso   1.00
H100   H     0.28155   0.09852   0.00000   0.00000  Uiso   1.00
C189   C     0.41813   0.07172   0.00000   0.00000  Uiso   1.00
H101   H     0.43760   0.08139   0.00000   0.00000  Uiso   1.00
C190   C     0.39765   0.09329   0.00000   0.00000  Uiso   1.00
H102   H     0.40233   0.11774   0.00000   0.00000  Uiso   1.00
C191   C     0.37156   0.08333   0.00000   0.00000  Uiso   1.00
C192   C     0.36638   0.05168   0.00000   0.00000  Uiso   1.00
H103   H     0.34642   0.04319   0.00000   0.00000  Uiso   1.00
C193   C     0.38702   0.03052   0.00000   0.00000  Uiso   1.00
C194   C     0.41335   0.03923   0.00000   0.00000  Uiso   1.00
N11    N     0.35310   0.13493   0.00000   0.00000  Uiso   1.00
C195   C     0.34949   0.10523   0.00000   0.00000  Uiso   1.00
C196   C     0.33840   0.18854   0.00000   0.00000  Uiso   1.00
H104   H     0.35874   0.19572   0.00000   0.00000  Uiso   1.00
C197   C     0.31869   0.21098   0.00000   0.00000  Uiso   1.00
H105   H     0.32527   0.23463   0.00000   0.00000  Uiso   1.00
C198   C     0.29182   0.20268   0.00000   0.00000  Uiso   1.00
C199   C     0.28593   0.17062   0.00000   0.00000  Uiso   1.00
H106   H     0.26620   0.16188   0.00000   0.00000  Uiso   1.00
C200   C     0.30574   0.14830   0.00000   0.00000  Uiso   1.00
H107   H     0.30028   0.12409   0.00000   0.00000  Uiso   1.00
C201   C     0.33218   0.15714   0.00000   0.00000  Uiso   1.00
C202   C     0.24359   0.21875   0.00000   0.00000  Uiso   1.00
C203   C     0.23704   0.19509   0.00000   0.00000  Uiso   1.00
C204   C     0.27617   0.25889   0.00000   0.00000  Uiso   1.00
H108   H     0.29591   0.26762   0.00000   0.00000  Uiso   1.00
C205   C     0.27036   0.22696   0.00000   0.00000  Uiso   1.00
C206   C     0.06396   0.51608   0.00000   0.00000  Uiso   1.00
S11    S     0.03174   0.53476   0.00000   0.00000  Uiso   1.00
H109   H     0.11778   0.50532   0.00000   0.00000  Uiso   1.00
H110   H     0.78155   0.59852   0.00000   0.00000  Uiso   1.00
C207   C     0.41813   0.57172   0.50000   0.00000  Uiso   1.00
H111   H     0.43760   0.58139   0.50000   0.00000  Uiso   1.00
C208   C     0.39765   0.59329   0.50000   0.00000  Uiso   1.00
H112   H     0.40233   0.61774   0.50000   0.00000  Uiso   1.00
C209   C     0.37156   0.58333   0.50000   0.00000  Uiso   1.00
C210   C     0.36638   0.55168   0.50000   0.00000  Uiso   1.00
H113   H     0.34642   0.54319   0.50000   0.00000  Uiso   1.00
C211   C     0.38702   0.53052   0.50000   0.00000  Uiso   1.00
C212   C     0.41335   0.53923   0.50000   0.00000  Uiso   1.00
N12    N     0.35310   0.63493   0.50000   0.00000  Uiso   1.00
C213   C     0.34949   0.60523   0.50000   0.00000  Uiso   1.00
C214   C     0.33840   0.68854   0.50000   0.00000  Uiso   1.00
H114   H     0.35874   0.69572   0.50000   0.00000  Uiso   1.00
C215   C     0.31869   0.71098   0.50000   0.00000  Uiso   1.00
H115   H     0.32527   0.73463   0.50000   0.00000  Uiso   1.00
C216   C     0.29182   0.70268   0.50000   0.00000  Uiso   1.00
C217   C     0.28593   0.67062   0.50000   0.00000  Uiso   1.00
H116   H     0.26620   0.66188   0.50000   0.00000  Uiso   1.00
C218   C     0.30574   0.64830   0.50000   0.00000  Uiso   1.00
H117   H     0.30028   0.62409   0.50000   0.00000  Uiso   1.00
C219   C     0.33218   0.65714   0.50000   0.00000  Uiso   1.00
C220   C     0.24359   0.71875   0.50000   0.00000  Uiso   1.00
C221   C     0.23704   0.69509   0.50000   0.00000  Uiso   1.00
C222   C     0.27617   0.75889   0.50000   0.00000  Uiso   1.00
H118   H     0.29591   0.76762   0.50000   0.00000  Uiso   1.00
C223   C     0.27036   0.72696   0.50000   0.00000  Uiso   1.00
C224   C     0.06396   0.01608   0.50000   0.00000  Uiso   1.00
S12    S     0.03174   0.03476   0.50000   0.00000  Uiso   1.00
H119   H     0.11778   0.00532   0.50000   0.00000  Uiso   1.00
H120   H     0.78155   0.09852   0.50000   0.00000  Uiso   1.00
C225   C     0.08187   0.92828   0.50000   0.00000  Uiso   1.00
H121   H     0.06240   0.91861   0.50000   0.00000  Uiso   1.00
C226   C     0.10235   0.90671   0.50000   0.00000  Uiso   1.00
H122   H     0.09767   0.88226   0.50000   0.00000  Uiso   1.00
C227   C     0.12844   0.91667   0.50000   0.00000  Uiso   1.00
C228   C     0.13362   0.94832   0.50000   0.00000  Uiso   1.00
H123   H     0.15358   0.95681   0.50000   0.00000  Uiso   1.00
C229   C     0.11298   0.96948   0.50000   0.00000  Uiso   1.00
C230   C     0.08665   0.96077   0.50000   0.00000  Uiso   1.00
N13    N     0.14690   0.86507   0.50000   0.00000  Uiso   1.00
C231   C     0.15051   0.89477   0.50000   0.00000  Uiso   1.00
C232   C     0.16160   0.81146   0.50000   0.00000  Uiso   1.00
H124   H     0.14126   0.80428   0.50000   0.00000  Uiso   1.00
C233   C     0.18131   0.78902   0.50000   0.00000  Uiso   1.00
H125   H     0.17473   0.76537   0.50000   0.00000  Uiso   1.00
C234   C     0.20818   0.79732   0.50000   0.00000  Uiso   1.00
C235   C     0.21407   0.82938   0.50000   0.00000  Uiso   1.00
H126   H     0.23380   0.83812   0.50000   0.00000  Uiso   1.00
C236   C     0.19426   0.85170   0.50000   0.00000  Uiso   1.00
H127   H     0.19972   0.87591   0.50000   0.00000  Uiso   1.00
C237   C     0.16782   0.84286   0.50000   0.00000  Uiso   1.00
C238   C     0.25641   0.78125   0.50000   0.00000  Uiso   1.00
C239   C     0.26296   0.80491   0.50000   0.00000  Uiso   1.00
C240   C     0.22383   0.74111   0.50000   0.00000  Uiso   1.00
H128   H     0.20409   0.73238   0.50000   0.00000  Uiso   1.00
C241   C     0.22964   0.77304   0.50000   0.00000  Uiso   1.00
C242   C     0.43604   0.48392   0.50000   0.00000  Uiso   1.00
S13    S     0.46826   0.46524   0.50000   0.00000  Uiso   1.00
H129   H     0.38222   0.49468   0.50000   0.00000  Uiso   1.00
H130   H     0.71845   0.40148   0.50000   0.00000  Uiso   1.00
C243   C     0.08187   0.42828   0.00000   0.00000  Uiso   1.00
H131   H     0.06240   0.41861   0.00000   0.00000  Uiso   1.00
C244   C     0.10235   0.40671   0.00000   0.00000  Uiso   1.00
H132   H     0.09767   0.38226   0.00000   0.00000  Uiso   1.00
C245   C     0.12844   0.41667   0.00000   0.00000  Uiso   1.00
C246   C     0.13362   0.44832   0.00000   0.00000  Uiso   1.00
H133   H     0.15358   0.45681   0.00000   0.00000  Uiso   1.00
C247   C     0.11298   0.46948   0.00000   0.00000  Uiso   1.00
C248   C     0.08665   0.46077   0.00000   0.00000  Uiso   1.00
N14    N     0.14690   0.36507   0.00000   0.00000  Uiso   1.00
C249   C     0.15051   0.39477   0.00000   0.00000  Uiso   1.00
C250   C     0.16160   0.31146   0.00000   0.00000  Uiso   1.00
H134   H     0.14126   0.30428   0.00000   0.00000  Uiso   1.00
C251   C     0.18131   0.28902   0.00000   0.00000  Uiso   1.00
H135   H     0.17473   0.26537   0.00000   0.00000  Uiso   1.00
C252   C     0.20818   0.29732   0.00000   0.00000  Uiso   1.00
C253   C     0.21407   0.32938   0.00000   0.00000  Uiso   1.00
H136   H     0.23380   0.33812   0.00000   0.00000  Uiso   1.00
C254   C     0.19426   0.35170   0.00000   0.00000  Uiso   1.00
H137   H     0.19972   0.37591   0.00000   0.00000  Uiso   1.00
C255   C     0.16782   0.34286   0.00000   0.00000  Uiso   1.00
C256   C     0.25641   0.28125   0.00000   0.00000  Uiso   1.00
C257   C     0.26296   0.30491   0.00000   0.00000  Uiso   1.00
C258   C     0.22383   0.24111   0.00000   0.00000  Uiso   1.00
H138   H     0.20409   0.23238   0.00000   0.00000  Uiso   1.00
C259   C     0.22964   0.27304   0.00000   0.00000  Uiso   1.00
C260   C     0.43604   0.98392   0.00000   0.00000  Uiso   1.00
S14    S     0.46826   0.96524   0.00000   0.00000  Uiso   1.00
H139   H     0.38222   0.99468   0.00000   0.00000  Uiso   1.00
H140   H     0.71845   0.90148   0.00000   0.00000  Uiso   1.00
C261   C     0.58187   0.92828   0.00000   0.00000  Uiso   1.00
H141   H     0.56240   0.91861   0.00000   0.00000  Uiso   1.00
C262   C     0.60235   0.90671   0.00000   0.00000  Uiso   1.00
H142   H     0.59767   0.88226   0.00000   0.00000  Uiso   1.00
C263   C     0.62844   0.91667   0.00000   0.00000  Uiso   1.00
C264   C     0.63362   0.94832   0.00000   0.00000  Uiso   1.00
H143   H     0.65358   0.95681   0.00000   0.00000  Uiso   1.00
C265   C     0.61298   0.96948   0.00000   0.00000  Uiso   1.00
C266   C     0.58665   0.96077   0.00000   0.00000  Uiso   1.00
N15    N     0.64690   0.86507   0.00000   0.00000  Uiso   1.00
C267   C     0.65051   0.89477   0.00000   0.00000  Uiso   1.00
C268   C     0.66160   0.81146   0.00000   0.00000  Uiso   1.00
H144   H     0.64126   0.80428   0.00000   0.00000  Uiso   1.00
C269   C     0.68131   0.78902   0.00000   0.00000  Uiso   1.00
H145   H     0.67473   0.76537   0.00000   0.00000  Uiso   1.00
C270   C     0.70818   0.79732   0.00000   0.00000  Uiso   1.00
C271   C     0.71407   0.82938   0.00000   0.00000  Uiso   1.00
H146   H     0.73380   0.83812   0.00000   0.00000  Uiso   1.00
C272   C     0.69426   0.85170   0.00000   0.00000  Uiso   1.00
H147   H     0.69972   0.87591   0.00000   0.00000  Uiso   1.00
C273   C     0.66782   0.84286   0.00000   0.00000  Uiso   1.00
C274   C     0.75641   0.78125   0.00000   0.00000  Uiso   1.00
C275   C     0.76296   0.80491   0.00000   0.00000  Uiso   1.00
C276   C     0.72383   0.74111   0.00000   0.00000  Uiso   1.00
H148   H     0.70409   0.73238   0.00000   0.00000  Uiso   1.00
C277   C     0.72964   0.77304   0.00000   0.00000  Uiso   1.00
C278   C     0.93604   0.48392   0.00000   0.00000  Uiso   1.00
S15    S     0.96826   0.46524   0.00000   0.00000  Uiso   1.00
H149   H     0.88222   0.49468   0.00000   0.00000  Uiso   1.00
H150   H     0.21845   0.40148   0.00000   0.00000  Uiso   1.00
C279   C     0.58187   0.42828   0.50000   0.00000  Uiso   1.00
H151   H     0.56240   0.41861   0.50000   0.00000  Uiso   1.00
C280   C     0.60235   0.40671   0.50000   0.00000  Uiso   1.00
H152   H     0.59767   0.38226   0.50000   0.00000  Uiso   1.00
C281   C     0.62844   0.41667   0.50000   0.00000  Uiso   1.00
C282   C     0.63362   0.44832   0.50000   0.00000  Uiso   1.00
H153   H     0.65358   0.45681   0.50000   0.00000  Uiso   1.00
C283   C     0.61298   0.46948   0.50000   0.00000  Uiso   1.00
C284   C     0.58665   0.46077   0.50000   0.00000  Uiso   1.00
N16    N     0.64690   0.36507   0.50000   0.00000  Uiso   1.00
C285   C     0.65051   0.39477   0.50000   0.00000  Uiso   1.00
C286   C     0.66160   0.31146   0.50000   0.00000  Uiso   1.00
H154   H     0.64126   0.30428   0.50000   0.00000  Uiso   1.00
C287   C     0.68131   0.28902   0.50000   0.00000  Uiso   1.00
H155   H     0.67473   0.26537   0.50000   0.00000  Uiso   1.00
C288   C     0.70818   0.29732   0.50000   0.00000  Uiso   1.00
C289   C     0.71407   0.32938   0.50000   0.00000  Uiso   1.00
H156   H     0.73380   0.33812   0.50000   0.00000  Uiso   1.00
C290   C     0.69426   0.35170   0.50000   0.00000  Uiso   1.00
H157   H     0.69972   0.37591   0.50000   0.00000  Uiso   1.00
C291   C     0.66782   0.34286   0.50000   0.00000  Uiso   1.00
C292   C     0.75641   0.28125   0.50000   0.00000  Uiso   1.00
C293   C     0.76296   0.30491   0.50000   0.00000  Uiso   1.00
C294   C     0.72383   0.24111   0.50000   0.00000  Uiso   1.00
H158   H     0.70409   0.23238   0.50000   0.00000  Uiso   1.00
C295   C     0.72964   0.27304   0.50000   0.00000  Uiso   1.00
C296   C     0.93604   0.98392   0.50000   0.00000  Uiso   1.00
S16    S     0.96826   0.96524   0.50000   0.00000  Uiso   1.00
H159   H     0.88222   0.99468   0.50000   0.00000  Uiso   1.00
H160   H     0.21845   0.90148   0.50000   0.00000  Uiso   1.00
loop_
_geom_bond_atom_site_label_1
_geom_bond_atom_site_label_2
_geom_bond_distance
_geom_bond_site_symmetry_2
_ccdc_geom_bond_type
C1     C5      1.347   .     D
C1     S1      1.775   .     S
C1     S13     1.775   .     S
C2     C6      1.347   .     D
C2     S2      1.775   .     S
C2     S14     1.775   1_545 S
C3     C7      1.347   1_655 D
C3     S3      1.775   .     S
C3     S15     1.775   .     S
C4     C8      1.347   1_655 D
C4     S4      1.775   .     S
C4     S16     1.775   1_545 S
C5     S5      1.775   .     S
C5     S9      1.775   .     S
C6     S6      1.775   1_545 S
C6     S10     1.775   .     S
C7     C3      1.347   1_455 D
C7     S7      1.775   .     S
C7     S11     1.775   .     S
C8     C4      1.347   1_455 D
C8     S8      1.775   1_545 S
C8     S12     1.775   .     S
C9     H1      1.078   .     S
C9     C10     1.400   .     D
C9     C14     1.425   .     S
C10    H2      1.083   .     S
C10    C11     1.399   .     S
C11    C12     1.393   .     S
C11    C15     1.471   .     D
C12    H3      1.083   .     S
C12    C13     1.395   .     D
C13    C14     1.395   .     S
C13    H119    1.116   .     S
C14    C224    1.530   .     D
N1     C15     1.296   .     D
N1     C21     1.435   .     S
C16    H4      1.083   .     S
C16    C17     1.397   .     D
C16    C21     1.393   .     S
C17    H5      1.076   .     S
C17    C18     1.417   .     S
C18    C19     1.417   .     D
C18    C25     1.516   .     S
C19    H6      1.075   .     S
C19    C20     1.397   .     S
C20    H7      1.082   .     S
C20    C21     1.402   .     D
C22    C23     1.076   .     D
C22    C25     1.411   .     S
C22    C150    1.396   .     S
C24    H8      1.076   .     S
C24    C25     1.411   .     D
C24    C148    1.396   .     S
C26    S1      1.831   .     S
C26    C212    1.530   .     D
C26    C242    1.390   .     S
H9     C211    1.116   .     S
H9     H129    0.460   .     S
C27    H11     1.078   .     S
C27    C28     1.400   .     D
C27    C32     1.425   .     S
C28    H12     1.083   .     S
C28    C29     1.399   .     S
C29    C30     1.393   .     S
C29    C33     1.471   .     D
C30    H13     1.083   .     S
C30    C31     1.395   .     D
C31    C32     1.395   .     S
C31    H109    1.116   .     S
C32    C206    1.530   .     D
N2     C33     1.296   .     D
N2     C39     1.435   .     S
C34    H14     1.083   .     S
C34    C35     1.397   .     D
C34    C39     1.393   .     S
C35    H15     1.076   .     S
C35    C36     1.417   .     S
C36    C37     1.417   .     D
C36    C43     1.516   .     S
C37    H16     1.075   .     S
C37    C38     1.397   .     S
C38    H17     1.083   .     S
C38    C39     1.402   .     D
C40    C41     1.076   .     D
C40    C43     1.411   .     S
C40    C132    1.396   .     S
C42    H18     1.076   .     S
C42    C43     1.411   .     D
C42    C130    1.396   .     S
C44    S2      1.831   .     S
C44    C194    1.530   .     D
C44    C260    1.390   1_545 S
H19    C193    1.116   .     S
H19    H139    0.460   1_545 S
C45    H21     1.078   .     S
C45    C46     1.400   .     D
C45    C50     1.425   .     S
C46    H22     1.083   .     S
C46    C47     1.399   .     S
C47    C48     1.393   .     S
C47    C51     1.471   .     D
C48    H23     1.083   .     S
C48    C49     1.395   .     D
C49    C50     1.395   .     S
C49    H99     1.116   .     S
C50    C188    1.530   .     D
N3     C51     1.296   .     D
N3     C57     1.435   .     S
C52    H24     1.083   .     S
C52    C53     1.397   .     D
C52    C57     1.393   .     S
C53    H25     1.076   .     S
C53    C54     1.417   .     S
C54    C55     1.417   .     D
C54    C61     1.516   .     S
C55    H26     1.075   .     S
C55    C56     1.397   .     S
C56    H27     1.082   .     S
C56    C57     1.402   .     D
C58    C59     1.076   .     D
C58    C61     1.411   .     S
C58    C114    1.396   .     S
C60    H28     1.076   .     S
C60    C61     1.411   .     D
C60    C112    1.396   .     S
C62    S3      1.831   .     S
C62    C176    1.530   .     D
C62    C278    1.390   .     S
H29    C175    1.116   .     S
H29    H149    0.460   .     S
C63    H31     1.078   .     S
C63    C64     1.400   .     D
C63    C68     1.425   .     S
C64    H32     1.083   .     S
C64    C65     1.399   .     S
C65    C66     1.393   .     S
C65    C69     1.471   .     D
C66    H33     1.083   .     S
C66    C67     1.395   .     D
C67    C68     1.395   .     S
C67    H89     1.116   .     S
C68    C170    1.530   .     D
N4     C69     1.296   .     D
N4     C75     1.435   .     S
C70    H34     1.083   .     S
C70    C71     1.397   .     D
C70    C75     1.393   .     S
C71    H35     1.076   .     S
C71    C72     1.417   .     S
C72    C73     1.417   .     D
C72    C79     1.516   .     S
C73    H36     1.075   .     S
C73    C74     1.397   .     S
C74    H37     1.083   .     S
C74    C75     1.402   .     D
C76    C77     1.076   .     D
C76    C79     1.411   .     S
C76    C96     1.396   .     S
C78    H38     1.076   .     S
C78    C79     1.411   .     D
C78    C94     1.396   .     S
C80    S4      1.831   .     S
C80    C158    1.530   .     D
C80    C296    1.390   1_545 S
H39    C157    1.116   .     S
H39    H159    0.460   1_545 S
C81    H41     1.078   .     S
C81    C82     1.400   .     D
C81    C86     1.425   .     S
C82    H42     1.083   .     S
C82    C83     1.399   .     S
C83    C84     1.393   .     S
C83    C87     1.471   .     D
C84    H43     1.083   .     S
C84    C85     1.395   .     D
C85    C86     1.395   .     S
C85    H159    1.116   .     S
C86    C296    1.530   .     D
N5     C87     1.296   .     D
N5     C93     1.435   .     S
C88    H44     1.083   .     S
C88    C89     1.397   .     D
C88    C93     1.393   .     S
C89    H45     1.076   .     S
C89    C90     1.417   .     S
C90    C91     1.417   .     D
C90    C97     1.516   .     S
C91    H46     1.075   .     S
C91    C92     1.397   .     S
C92    H47     1.083   .     S
C92    C93     1.402   .     D
C94    C95     1.076   .     D
C94    C97     1.411   .     S
C96    H48     1.076   .     S
C96    C97     1.411   .     D
C98    S5      1.831   .     S
C98    C170    1.390   .     S
C98    C284    1.530   .     D
H49    H89     0.460   .     S
H49    C283    1.116   .     S
C99    H51     1.078   .     S
C99    C100    1.400   .     D
C99    C104    1.425   .     S
C100   H52     1.083   .     S
C100   C101    1.399   .     S
C101   C102    1.393   .     S
C101   C105    1.471   .     D
C102   H53     1.083   .     S
C102   C103    1.395   .     D
C103   C104    1.395   .     S
C103   H149    1.116   .     S
C104   C278    1.530   .     D
N6     C105    1.296   .     D
N6     C111    1.435   .     S
C106   H54     1.083   .     S
C106   C107    1.397   .     D
C106   C111    1.393   .     S
C107   H55     1.076   .     S
C107   C108    1.417   .     S
C108   C109    1.417   .     D
C108   C115    1.516   .     S
C109   H56     1.075   .     S
C109   C110    1.397   .     S
C110   H57     1.082   .     S
C110   C111    1.402   .     D
C112   C113    1.076   .     D
C112   C115    1.411   .     S
C114   H58     1.076   .     S
C114   C115    1.411   .     D
C116   S6      1.831   .     S
C116   C188    1.390   1_565 S
C116   C266    1.530   .     D
S6     C6      1.775   1_565 S
H59    H99     0.460   1_565 S
H59    C265    1.116   .     S
C117   H61     1.078   .     S
C117   C118    1.400   .     D
C117   C122    1.425   .     S
C118   H62     1.083   .     S
C118   C119    1.399   .     S
C119   C120    1.393   .     S
C119   C123    1.471   .     D
C120   H63     1.083   .     S
C120   C121    1.395   .     D
C121   C122    1.395   .     S
C121   H139    1.116   .     S
C122   C260    1.530   .     D
N7     C123    1.296   .     D
N7     C129    1.435   .     S
C124   H64     1.083   .     S
C124   C125    1.397   .     S
C124   C129    1.393   .     D
C125   H65     1.076   .     S
C125   C126    1.417   .     D
C126   C127    1.417   .     S
C126   C133    1.516   .     S
C127   H66     1.075   .     S
C127   C128    1.397   .     D
C128   H67     1.083   .     S
C128   C129    1.402   .     S
C130   C131    1.076   .     D
C130   C133    1.411   .     S
C132   H68     1.076   .     S
C132   C133    1.411   .     D
C134   S7      1.831   .     S
C134   C206    1.390   .     S
C134   C248    1.530   .     D
H69    H109    0.460   .     S
H69    C247    1.116   .     S
C135   H71     1.078   .     S
C135   C136    1.400   .     D
C135   C140    1.425   .     S
C136   H72     1.083   .     S
C136   C137    1.399   .     S
C137   C138    1.393   .     S
C137   C141    1.471   .     D
C138   H73     1.083   .     S
C138   C139    1.395   .     D
C139   C140    1.395   .     S
C139   H129    1.116   .     S
C140   C242    1.530   .     D
N8     C141    1.296   .     D
N8     C147    1.435   .     S
C142   H74     1.083   .     S
C142   C143    1.397   .     S
C142   C147    1.393   .     D
C143   H75     1.076   .     S
C143   C144    1.417   .     D
C144   C145    1.417   .     S
C144   C151    1.516   .     S
C145   H76     1.075   .     S
C145   C146    1.397   .     D
C146   H77     1.082   .     S
C146   C147    1.402   .     S
C148   C149    1.076   .     D
C148   C151    1.411   .     S
C150   H78     1.076   .     S
C150   C151    1.411   .     D
C152   S8      1.831   .     S
C152   C224    1.390   1_565 S
C152   C230    1.530   .     D
S8     C8      1.775   1_565 S
H79    H119    0.460   1_565 S
H79    C229    1.116   .     S
C153   H81     1.078   .     S
C153   C154    1.400   .     D
C153   C158    1.425   .     S
C154   H82     1.083   .     S
C154   C155    1.399   .     S
C155   C156    1.393   .     S
C155   C159    1.471   .     D
C156   H83     1.083   .     S
C156   C157    1.395   .     D
C157   C158    1.395   .     S
N9     C159    1.296   .     D
N9     C165    1.435   .     S
C160   H84     1.083   .     S
C160   C161    1.397   .     D
C160   C165    1.393   .     S
C161   H85     1.076   .     S
C161   C162    1.417   .     S
C162   C163    1.417   .     D
C162   C169    1.516   .     S
C163   H86     1.075   .     S
C163   C164    1.397   .     S
C164   H87     1.082   .     S
C164   C165    1.402   .     D
C166   C167    1.076   .     D
C166   C169    1.411   .     S
C166   C294    1.396   .     S
C168   H88     1.076   .     S
C168   C169    1.411   .     D
C168   C292    1.396   .     S
C170   S9      1.831   .     S
C171   H91     1.078   .     S
C171   C172    1.400   .     D
C171   C176    1.425   .     S
C172   H92     1.083   .     S
C172   C173    1.399   .     S
C173   C174    1.393   .     S
C173   C177    1.471   .     D
C174   H93     1.083   .     S
C174   C175    1.395   .     D
C175   C176    1.395   .     S
N10    C177    1.296   .     D
N10    C183    1.435   .     S
C178   H94     1.083   .     S
C178   C179    1.397   .     D
C178   C183    1.393   .     S
C179   H95     1.076   .     S
C179   C180    1.417   .     S
C180   C181    1.417   .     D
C180   C187    1.516   .     S
C181   H96     1.075   .     S
C181   C182    1.397   .     S
C182   H97     1.083   .     S
C182   C183    1.402   .     D
C184   C185    1.076   .     D
C184   C187    1.411   .     S
C184   C276    1.396   .     S
C186   H98     1.076   .     S
C186   C187    1.411   .     D
C186   C274    1.396   .     S
C188   C116    1.390   1_545 S
C188   S10     1.831   .     S
H99    H59     0.460   1_545 S
C189   H101    1.078   .     S
C189   C190    1.400   .     D
C189   C194    1.425   .     S
C190   H102    1.083   .     S
C190   C191    1.399   .     S
C191   C192    1.393   .     S
C191   C195    1.471   .     D
C192   H103    1.083   .     S
C192   C193    1.395   .     D
C193   C194    1.395   .     S
N11    C195    1.296   .     D
N11    C201    1.435   .     S
C196   H104    1.083   .     S
C196   C197    1.397   .     D
C196   C201    1.393   .     S
C197   H105    1.076   .     S
C197   C198    1.417   .     S
C198   C199    1.417   .     D
C198   C205    1.516   .     S
C199   H106    1.075   .     S
C199   C200    1.397   .     S
C200   H107    1.082   .     S
C200   C201    1.402   .     D
C202   C203    1.076   .     D
C202   C205    1.411   .     S
C202   C258    1.396   .     S
C204   H108    1.076   .     S
C204   C205    1.411   .     D
C204   C256    1.396   .     S
C206   S11     1.831   .     S
C207   H111    1.078   .     S
C207   C208    1.400   .     D
C207   C212    1.425   .     S
C208   H112    1.083   .     S
C208   C209    1.399   .     S
C209   C210    1.393   .     S
C209   C213    1.471   .     D
C210   H113    1.083   .     S
C210   C211    1.395   .     D
C211   C212    1.395   .     S
N12    C213    1.296   .     D
N12    C219    1.435   .     S
C214   H114    1.083   .     S
C214   C215    1.397   .     D
C214   C219    1.393   .     S
C215   H115    1.076   .     S
C215   C216    1.417   .     S
C216   C217    1.417   .     D
C216   C223    1.516   .     S
C217   H116    1.075   .     S
C217   C218    1.397   .     S
C218   H117    1.083   .     S
C218   C219    1.402   .     D
C220   C221    1.076   .     D
C220   C223    1.411   .     S
C220   C240    1.396   .     S
C222   H118    1.076   .     S
C222   C223    1.411   .     D
C222   C238    1.396   .     S
C224   C152    1.390   1_545 S
C224   S12     1.831   .     S
H119   H79     0.460   1_545 S
C225   H121    1.078   .     S
C225   C226    1.400   .     D
C225   C230    1.425   .     S
C226   H122    1.083   .     S
C226   C227    1.399   .     S
C227   C228    1.393   .     S
C227   C231    1.471   .     D
C228   H123    1.083   .     S
C228   C229    1.395   .     D
C229   C230    1.395   .     S
N13    C231    1.296   .     D
N13    C237    1.435   .     S
C232   H124    1.083   .     S
C232   C233    1.397   .     D
C232   C237    1.393   .     S
C233   H125    1.076   .     S
C233   C234    1.417   .     S
C234   C235    1.417   .     D
C234   C241    1.516   .     S
C235   H126    1.075   .     S
C235   C236    1.397   .     S
C236   H127    1.083   .     S
C236   C237    1.402   .     D
C238   C239    1.076   .     D
C238   C241    1.411   .     S
C240   H128    1.076   .     S
C240   C241    1.411   .     D
C242   S13     1.831   .     S
C243   H131    1.078   .     S
C243   C244    1.400   .     D
C243   C248    1.425   .     S
C244   H132    1.083   .     S
C244   C245    1.399   .     S
C245   C246    1.393   .     S
C245   C249    1.471   .     D
C246   H133    1.083   .     S
C246   C247    1.395   .     D
C247   C248    1.395   .     S
N14    C249    1.296   .     D
N14    C255    1.435   .     S
C250   H134    1.083   .     S
C250   C251    1.397   .     D
C250   C255    1.393   .     S
C251   H135    1.076   .     S
C251   C252    1.417   .     S
C252   C253    1.417   .     D
C252   C259    1.516   .     S
C253   H136    1.075   .     S
C253   C254    1.397   .     S
C254   H137    1.082   .     S
C254   C255    1.402   .     D
C256   C257    1.076   .     D
C256   C259    1.411   .     S
C258   H138    1.076   .     S
C258   C259    1.411   .     D
C260   C44     1.390   1_565 S
C260   S14     1.831   .     S
S14    C2      1.775   1_565 S
H139   H19     0.460   1_565 S
C261   H141    1.078   .     S
C261   C262    1.400   .     D
C261   C266    1.425   .     S
C262   H142    1.083   .     S
C262   C263    1.399   .     S
C263   C264    1.393   .     S
C263   C267    1.471   .     D
C264   H143    1.083   .     S
C264   C265    1.395   .     D
C265   C266    1.395   .     S
N15    C267    1.296   .     D
N15    C273    1.435   .     S
C268   H144    1.083   .     S
C268   C269    1.397   .     S
C268   C273    1.393   .     D
C269   H145    1.076   .     S
C269   C270    1.417   .     D
C270   C271    1.417   .     S
C270   C277    1.516   .     S
C271   H146    1.075   .     S
C271   C272    1.397   .     D
C272   H147    1.083   .     S
C272   C273    1.402   .     S
C274   C275    1.076   .     D
C274   C277    1.411   .     S
C276   H148    1.076   .     S
C276   C277    1.411   .     D
C278   S15     1.831   .     S
C279   H151    1.078   .     S
C279   C280    1.400   .     D
C279   C284    1.425   .     S
C280   H152    1.083   .     S
C280   C281    1.399   .     S
C281   C282    1.393   .     S
C281   C285    1.471   .     D
C282   H153    1.083   .     S
C282   C283    1.395   .     D
C283   C284    1.395   .     S
N16    C285    1.296   .     D
N16    C291    1.435   .     S
C286   H154    1.083   .     S
C286   C287    1.397   .     S
C286   C291    1.393   .     D
C287   H155    1.076   .     S
C287   C288    1.417   .     D
C288   C289    1.417   .     S
C288   C295    1.516   .     S
C289   H156    1.075   .     S
C289   C290    1.397   .     D
C290   H157    1.082   .     S
C290   C291    1.402   .     S
C292   C293    1.076   .     D
C292   C295    1.411   .     S
C294   H158    1.076   .     S
C294   C295    1.411   .     D
C296   C80     1.390   1_565 S
C296   S16     1.831   .     S
S16    C4      1.775   1_565 S
H159   H39     0.460   1_565 S
