data_287
_audit_creation_date              2023-09-08
_audit_creation_method            'Materials Studio'
_symmetry_space_group_name_H-M    'P1'
_symmetry_Int_Tables_number       1
_symmetry_cell_setting            triclinic
loop_
_symmetry_equiv_pos_as_xyz
  x,y,z
_cell_length_a                    10.5223
_cell_length_b                    89.0138
_cell_length_c                    26.2907
_cell_angle_alpha                 90.0000
_cell_angle_beta                  90.0000
_cell_angle_gamma                 90.0000
loop_
_atom_site_label
_atom_site_type_symbol
_atom_site_fract_x
_atom_site_fract_y
_atom_site_fract_z
_atom_site_U_iso_or_equiv
_atom_site_adp_type
_atom_site_occupancy
C1     C     0.74160   0.75768   0.11548   0.00000  Uiso   1.00
S2     S     0.77153   0.73253   0.05831   0.00000  Uiso   1.00
C3     C     0.66051   0.81505   0.43068   0.00000  Uiso   1.00
C4     C     0.66451   0.80694   0.38711   0.00000  Uiso   1.00
C5     C     0.75639   0.80215   0.36822   0.00000  Uiso   1.00
C6     C     0.84284   0.80523   0.39432   0.00000  Uiso   1.00
C7     C     0.83885   0.81346   0.43764   0.00000  Uiso   1.00
C8     C     0.74768   0.81849   0.45587   0.00000  Uiso   1.00
C9     C     0.71020   0.85183   0.45631   0.00000  Uiso   1.00
C10    C     0.68754   0.86761   0.45642   0.00000  Uiso   1.00
C11    C     0.70058   0.79429   0.28860   0.00000  Uiso   1.00
N12    N     0.76476   0.79388   0.32345   0.00000  Uiso   1.00
C13    C     0.64573   0.78642   0.79311   0.00000  Uiso   1.00
C14    C     0.65477   0.77749   0.83480   0.00000  Uiso   1.00
C15    C     0.73409   0.76717   0.84014   0.00000  Uiso   1.00
C16    C     0.80611   0.76630   0.80360   0.00000  Uiso   1.00
C17    C     0.79617   0.77509   0.76151   0.00000  Uiso   1.00
C18    C     0.71512   0.78514   0.75578   0.00000  Uiso   1.00
C19    C     0.66673   0.92618   0.45628   0.00000  Uiso   1.00
C20    C     0.62758   0.94115   0.45628   0.00000  Uiso   1.00
H21    H     0.58977   0.81875   0.44485   0.00000  Uiso   1.00
H22    H     0.59585   0.80429   0.36889   0.00000  Uiso   1.00
H23    H     0.91356   0.80143   0.38049   0.00000  Uiso   1.00
H24    H     0.90671   0.81606   0.45667   0.00000  Uiso   1.00
H25    H     0.71923   0.84616   0.42184   0.00000  Uiso   1.00
H26    H     0.67871   0.87369   0.42255   0.00000  Uiso   1.00
H27    H     0.63590   0.80165   0.29104   0.00000  Uiso   1.00
H28    H     0.58437   0.79437   0.78991   0.00000  Uiso   1.00
H29    H     0.59903   0.77852   0.86268   0.00000  Uiso   1.00
H30    H     0.86964   0.75876   0.80752   0.00000  Uiso   1.00
H31    H     0.85168   0.77400   0.73355   0.00000  Uiso   1.00
H32    H     0.67992   0.92036   0.42230   0.00000  Uiso   1.00
H33    H     0.60998   0.94669   0.42230   0.00000  Uiso   1.00
C34    C     0.24160   0.25768   0.11548   0.00000  Uiso   1.00
S35    S     0.27153   0.23253   0.05831   0.00000  Uiso   1.00
C36    C     0.16051   0.31505   0.43068   0.00000  Uiso   1.00
C37    C     0.16451   0.30694   0.38711   0.00000  Uiso   1.00
C38    C     0.25639   0.30215   0.36822   0.00000  Uiso   1.00
C39    C     0.34284   0.30523   0.39432   0.00000  Uiso   1.00
C40    C     0.33885   0.31346   0.43764   0.00000  Uiso   1.00
C41    C     0.24768   0.31849   0.45587   0.00000  Uiso   1.00
C42    C     0.21020   0.35183   0.45631   0.00000  Uiso   1.00
C43    C     0.18754   0.36761   0.45642   0.00000  Uiso   1.00
C44    C     0.20058   0.29429   0.28860   0.00000  Uiso   1.00
N45    N     0.26476   0.29388   0.32345   0.00000  Uiso   1.00
C46    C     0.14573   0.28642   0.79311   0.00000  Uiso   1.00
C47    C     0.15477   0.27749   0.83480   0.00000  Uiso   1.00
C48    C     0.23409   0.26717   0.84014   0.00000  Uiso   1.00
C49    C     0.30611   0.26630   0.80360   0.00000  Uiso   1.00
C50    C     0.29617   0.27509   0.76151   0.00000  Uiso   1.00
C51    C     0.21512   0.28514   0.75578   0.00000  Uiso   1.00
C52    C     0.16673   0.42618   0.45628   0.00000  Uiso   1.00
C53    C     0.12758   0.44115   0.45628   0.00000  Uiso   1.00
H54    H     0.08977   0.31875   0.44485   0.00000  Uiso   1.00
H55    H     0.09585   0.30429   0.36889   0.00000  Uiso   1.00
H56    H     0.41356   0.30143   0.38049   0.00000  Uiso   1.00
H57    H     0.40671   0.31606   0.45667   0.00000  Uiso   1.00
H58    H     0.21923   0.34616   0.42184   0.00000  Uiso   1.00
H59    H     0.17871   0.37369   0.42255   0.00000  Uiso   1.00
H60    H     0.13590   0.30165   0.29104   0.00000  Uiso   1.00
H61    H     0.08437   0.29437   0.78991   0.00000  Uiso   1.00
H62    H     0.09903   0.27852   0.86268   0.00000  Uiso   1.00
H63    H     0.36964   0.25876   0.80752   0.00000  Uiso   1.00
H64    H     0.35168   0.27400   0.73355   0.00000  Uiso   1.00
H65    H     0.17992   0.42036   0.42230   0.00000  Uiso   1.00
H66    H     0.10998   0.44669   0.42230   0.00000  Uiso   1.00
C67    C     0.25840   0.24232   0.11548   0.00000  Uiso   1.00
S68    S     0.22847   0.26747   0.05831   0.00000  Uiso   1.00
C69    C     0.33949   0.18495   0.43068   0.00000  Uiso   1.00
C70    C     0.33549   0.19306   0.38711   0.00000  Uiso   1.00
C71    C     0.24361   0.19785   0.36822   0.00000  Uiso   1.00
C72    C     0.15716   0.19477   0.39432   0.00000  Uiso   1.00
C73    C     0.16115   0.18654   0.43764   0.00000  Uiso   1.00
C74    C     0.25232   0.18151   0.45587   0.00000  Uiso   1.00
C75    C     0.28980   0.14817   0.45631   0.00000  Uiso   1.00
C76    C     0.31246   0.13239   0.45642   0.00000  Uiso   1.00
C77    C     0.29942   0.20571   0.28860   0.00000  Uiso   1.00
N78    N     0.23524   0.20612   0.32345   0.00000  Uiso   1.00
C79    C     0.35427   0.21358   0.79311   0.00000  Uiso   1.00
C80    C     0.34523   0.22251   0.83480   0.00000  Uiso   1.00
C81    C     0.26591   0.23283   0.84014   0.00000  Uiso   1.00
C82    C     0.19389   0.23370   0.80360   0.00000  Uiso   1.00
C83    C     0.20383   0.22491   0.76151   0.00000  Uiso   1.00
C84    C     0.28488   0.21486   0.75578   0.00000  Uiso   1.00
C85    C     0.33327   0.07382   0.45628   0.00000  Uiso   1.00
C86    C     0.37242   0.05885   0.45628   0.00000  Uiso   1.00
H87    H     0.41023   0.18125   0.44485   0.00000  Uiso   1.00
H88    H     0.40415   0.19571   0.36889   0.00000  Uiso   1.00
H89    H     0.08644   0.19857   0.38049   0.00000  Uiso   1.00
H90    H     0.09329   0.18394   0.45667   0.00000  Uiso   1.00
H91    H     0.28077   0.15384   0.42184   0.00000  Uiso   1.00
H92    H     0.32129   0.12631   0.42255   0.00000  Uiso   1.00
H93    H     0.36410   0.19835   0.29104   0.00000  Uiso   1.00
H94    H     0.41563   0.20563   0.78991   0.00000  Uiso   1.00
H95    H     0.40097   0.22148   0.86268   0.00000  Uiso   1.00
H96    H     0.13036   0.24124   0.80752   0.00000  Uiso   1.00
H97    H     0.14832   0.22600   0.73355   0.00000  Uiso   1.00
H98    H     0.32008   0.07964   0.42230   0.00000  Uiso   1.00
H99    H     0.39002   0.05331   0.42230   0.00000  Uiso   1.00
C100   C     0.75840   0.74232   0.11548   0.00000  Uiso   1.00
S101   S     0.72847   0.76747   0.05831   0.00000  Uiso   1.00
C102   C     0.83949   0.68495   0.43068   0.00000  Uiso   1.00
C103   C     0.83549   0.69306   0.38711   0.00000  Uiso   1.00
C104   C     0.74361   0.69785   0.36822   0.00000  Uiso   1.00
C105   C     0.65716   0.69477   0.39432   0.00000  Uiso   1.00
C106   C     0.66115   0.68654   0.43764   0.00000  Uiso   1.00
C107   C     0.75232   0.68151   0.45587   0.00000  Uiso   1.00
C108   C     0.78980   0.64817   0.45631   0.00000  Uiso   1.00
C109   C     0.81246   0.63239   0.45642   0.00000  Uiso   1.00
C110   C     0.79942   0.70571   0.28860   0.00000  Uiso   1.00
N111   N     0.73524   0.70612   0.32345   0.00000  Uiso   1.00
C112   C     0.85427   0.71358   0.79311   0.00000  Uiso   1.00
C113   C     0.84523   0.72251   0.83480   0.00000  Uiso   1.00
C114   C     0.76591   0.73283   0.84014   0.00000  Uiso   1.00
C115   C     0.69389   0.73370   0.80360   0.00000  Uiso   1.00
C116   C     0.70383   0.72491   0.76151   0.00000  Uiso   1.00
C117   C     0.78488   0.71486   0.75578   0.00000  Uiso   1.00
C118   C     0.83327   0.57382   0.45628   0.00000  Uiso   1.00
C119   C     0.87242   0.55885   0.45628   0.00000  Uiso   1.00
H120   H     0.91023   0.68125   0.44485   0.00000  Uiso   1.00
H121   H     0.90415   0.69571   0.36889   0.00000  Uiso   1.00
H122   H     0.58644   0.69857   0.38049   0.00000  Uiso   1.00
H123   H     0.59329   0.68394   0.45667   0.00000  Uiso   1.00
H124   H     0.78077   0.65384   0.42184   0.00000  Uiso   1.00
H125   H     0.82129   0.62631   0.42255   0.00000  Uiso   1.00
H126   H     0.86410   0.69835   0.29104   0.00000  Uiso   1.00
H127   H     0.91563   0.70563   0.78991   0.00000  Uiso   1.00
H128   H     0.90097   0.72148   0.86268   0.00000  Uiso   1.00
H129   H     0.63036   0.74124   0.80752   0.00000  Uiso   1.00
H130   H     0.64832   0.72600   0.73355   0.00000  Uiso   1.00
H131   H     0.82008   0.57964   0.42230   0.00000  Uiso   1.00
H132   H     0.89002   0.55331   0.42230   0.00000  Uiso   1.00
C133   C     0.25840   0.75768   0.88452   0.00000  Uiso   1.00
S134   S     0.22847   0.73253   0.94169   0.00000  Uiso   1.00
C135   C     0.33949   0.81505   0.56932   0.00000  Uiso   1.00
C136   C     0.33549   0.80694   0.61289   0.00000  Uiso   1.00
C137   C     0.24361   0.80215   0.63178   0.00000  Uiso   1.00
C138   C     0.15716   0.80523   0.60568   0.00000  Uiso   1.00
C139   C     0.16115   0.81346   0.56236   0.00000  Uiso   1.00
C140   C     0.25232   0.81849   0.54413   0.00000  Uiso   1.00
C141   C     0.28980   0.85183   0.54369   0.00000  Uiso   1.00
C142   C     0.31246   0.86761   0.54358   0.00000  Uiso   1.00
C143   C     0.29942   0.79429   0.71140   0.00000  Uiso   1.00
N144   N     0.23524   0.79388   0.67655   0.00000  Uiso   1.00
C145   C     0.35427   0.78642   0.20689   0.00000  Uiso   1.00
C146   C     0.34523   0.77749   0.16520   0.00000  Uiso   1.00
C147   C     0.26591   0.76717   0.15986   0.00000  Uiso   1.00
C148   C     0.19389   0.76630   0.19640   0.00000  Uiso   1.00
C149   C     0.20383   0.77509   0.23849   0.00000  Uiso   1.00
C150   C     0.28488   0.78514   0.24422   0.00000  Uiso   1.00
C151   C     0.33327   0.92618   0.54372   0.00000  Uiso   1.00
C152   C     0.37242   0.94115   0.54372   0.00000  Uiso   1.00
H153   H     0.41023   0.81875   0.55515   0.00000  Uiso   1.00
H154   H     0.40415   0.80429   0.63111   0.00000  Uiso   1.00
H155   H     0.08644   0.80143   0.61951   0.00000  Uiso   1.00
H156   H     0.09329   0.81606   0.54333   0.00000  Uiso   1.00
H157   H     0.28077   0.84616   0.57816   0.00000  Uiso   1.00
H158   H     0.32129   0.87369   0.57745   0.00000  Uiso   1.00
H159   H     0.36410   0.80165   0.70896   0.00000  Uiso   1.00
H160   H     0.41563   0.79437   0.21009   0.00000  Uiso   1.00
H161   H     0.40097   0.77852   0.13732   0.00000  Uiso   1.00
H162   H     0.13036   0.75876   0.19248   0.00000  Uiso   1.00
H163   H     0.14832   0.77400   0.26645   0.00000  Uiso   1.00
H164   H     0.32008   0.92036   0.57770   0.00000  Uiso   1.00
H165   H     0.39002   0.94669   0.57770   0.00000  Uiso   1.00
C166   C     0.75840   0.25768   0.88452   0.00000  Uiso   1.00
S167   S     0.72847   0.23253   0.94169   0.00000  Uiso   1.00
C168   C     0.83949   0.31505   0.56932   0.00000  Uiso   1.00
C169   C     0.83549   0.30694   0.61289   0.00000  Uiso   1.00
C170   C     0.74361   0.30215   0.63178   0.00000  Uiso   1.00
C171   C     0.65716   0.30523   0.60568   0.00000  Uiso   1.00
C172   C     0.66115   0.31346   0.56236   0.00000  Uiso   1.00
C173   C     0.75232   0.31849   0.54413   0.00000  Uiso   1.00
C174   C     0.78980   0.35183   0.54369   0.00000  Uiso   1.00
C175   C     0.81246   0.36761   0.54358   0.00000  Uiso   1.00
C176   C     0.79942   0.29429   0.71140   0.00000  Uiso   1.00
N177   N     0.73524   0.29388   0.67655   0.00000  Uiso   1.00
C178   C     0.85427   0.28642   0.20689   0.00000  Uiso   1.00
C179   C     0.84523   0.27749   0.16520   0.00000  Uiso   1.00
C180   C     0.76591   0.26717   0.15986   0.00000  Uiso   1.00
C181   C     0.69389   0.26630   0.19640   0.00000  Uiso   1.00
C182   C     0.70383   0.27509   0.23849   0.00000  Uiso   1.00
C183   C     0.78488   0.28514   0.24422   0.00000  Uiso   1.00
C184   C     0.83327   0.42618   0.54372   0.00000  Uiso   1.00
C185   C     0.87242   0.44115   0.54372   0.00000  Uiso   1.00
H186   H     0.91023   0.31875   0.55515   0.00000  Uiso   1.00
H187   H     0.90415   0.30429   0.63111   0.00000  Uiso   1.00
H188   H     0.58644   0.30143   0.61951   0.00000  Uiso   1.00
H189   H     0.59329   0.31606   0.54333   0.00000  Uiso   1.00
H190   H     0.78077   0.34616   0.57816   0.00000  Uiso   1.00
H191   H     0.82129   0.37369   0.57745   0.00000  Uiso   1.00
H192   H     0.86410   0.30165   0.70896   0.00000  Uiso   1.00
H193   H     0.91563   0.29437   0.21009   0.00000  Uiso   1.00
H194   H     0.90097   0.27852   0.13732   0.00000  Uiso   1.00
H195   H     0.63036   0.25876   0.19248   0.00000  Uiso   1.00
H196   H     0.64832   0.27400   0.26645   0.00000  Uiso   1.00
H197   H     0.82008   0.42036   0.57770   0.00000  Uiso   1.00
H198   H     0.89002   0.44669   0.57770   0.00000  Uiso   1.00
C199   C     0.74160   0.24232   0.88452   0.00000  Uiso   1.00
S200   S     0.77153   0.26747   0.94169   0.00000  Uiso   1.00
C201   C     0.66051   0.18495   0.56932   0.00000  Uiso   1.00
C202   C     0.66451   0.19306   0.61289   0.00000  Uiso   1.00
C203   C     0.75639   0.19785   0.63178   0.00000  Uiso   1.00
C204   C     0.84284   0.19477   0.60568   0.00000  Uiso   1.00
C205   C     0.83885   0.18654   0.56236   0.00000  Uiso   1.00
C206   C     0.74768   0.18151   0.54413   0.00000  Uiso   1.00
C207   C     0.71020   0.14817   0.54369   0.00000  Uiso   1.00
C208   C     0.68754   0.13239   0.54358   0.00000  Uiso   1.00
C209   C     0.70058   0.20571   0.71140   0.00000  Uiso   1.00
N210   N     0.76476   0.20612   0.67655   0.00000  Uiso   1.00
C211   C     0.64573   0.21358   0.20689   0.00000  Uiso   1.00
C212   C     0.65477   0.22251   0.16520   0.00000  Uiso   1.00
C213   C     0.73409   0.23283   0.15986   0.00000  Uiso   1.00
C214   C     0.80611   0.23370   0.19640   0.00000  Uiso   1.00
C215   C     0.79617   0.22491   0.23849   0.00000  Uiso   1.00
C216   C     0.71512   0.21486   0.24422   0.00000  Uiso   1.00
C217   C     0.66673   0.07382   0.54372   0.00000  Uiso   1.00
C218   C     0.62758   0.05885   0.54372   0.00000  Uiso   1.00
H219   H     0.58977   0.18125   0.55515   0.00000  Uiso   1.00
H220   H     0.59585   0.19571   0.63111   0.00000  Uiso   1.00
H221   H     0.91356   0.19857   0.61951   0.00000  Uiso   1.00
H222   H     0.90671   0.18394   0.54333   0.00000  Uiso   1.00
H223   H     0.71923   0.15384   0.57816   0.00000  Uiso   1.00
H224   H     0.67871   0.12631   0.57745   0.00000  Uiso   1.00
H225   H     0.63590   0.19835   0.70896   0.00000  Uiso   1.00
H226   H     0.58437   0.20563   0.21009   0.00000  Uiso   1.00
H227   H     0.59903   0.22148   0.13732   0.00000  Uiso   1.00
H228   H     0.86964   0.24124   0.19248   0.00000  Uiso   1.00
H229   H     0.85168   0.22600   0.26645   0.00000  Uiso   1.00
H230   H     0.67992   0.07964   0.57770   0.00000  Uiso   1.00
H231   H     0.60998   0.05331   0.57770   0.00000  Uiso   1.00
C232   C     0.24160   0.74232   0.88452   0.00000  Uiso   1.00
S233   S     0.27153   0.76747   0.94169   0.00000  Uiso   1.00
C234   C     0.16051   0.68495   0.56932   0.00000  Uiso   1.00
C235   C     0.16451   0.69306   0.61289   0.00000  Uiso   1.00
C236   C     0.25639   0.69785   0.63178   0.00000  Uiso   1.00
C237   C     0.34284   0.69477   0.60568   0.00000  Uiso   1.00
C238   C     0.33885   0.68654   0.56236   0.00000  Uiso   1.00
C239   C     0.24768   0.68151   0.54413   0.00000  Uiso   1.00
C240   C     0.21020   0.64817   0.54369   0.00000  Uiso   1.00
C241   C     0.18754   0.63239   0.54358   0.00000  Uiso   1.00
C242   C     0.20058   0.70571   0.71140   0.00000  Uiso   1.00
N243   N     0.26476   0.70612   0.67655   0.00000  Uiso   1.00
C244   C     0.14573   0.71358   0.20689   0.00000  Uiso   1.00
C245   C     0.15477   0.72251   0.16520   0.00000  Uiso   1.00
C246   C     0.23409   0.73283   0.15986   0.00000  Uiso   1.00
C247   C     0.30611   0.73370   0.19640   0.00000  Uiso   1.00
C248   C     0.29617   0.72491   0.23849   0.00000  Uiso   1.00
C249   C     0.21512   0.71486   0.24422   0.00000  Uiso   1.00
C250   C     0.16673   0.57382   0.54372   0.00000  Uiso   1.00
C251   C     0.12758   0.55885   0.54372   0.00000  Uiso   1.00
H252   H     0.08977   0.68125   0.55515   0.00000  Uiso   1.00
H253   H     0.09585   0.69571   0.63111   0.00000  Uiso   1.00
H254   H     0.41356   0.69857   0.61951   0.00000  Uiso   1.00
H255   H     0.40671   0.68394   0.54333   0.00000  Uiso   1.00
H256   H     0.21923   0.65384   0.57816   0.00000  Uiso   1.00
H257   H     0.17871   0.62631   0.57745   0.00000  Uiso   1.00
H258   H     0.13590   0.69835   0.70896   0.00000  Uiso   1.00
H259   H     0.08437   0.70563   0.21009   0.00000  Uiso   1.00
H260   H     0.09903   0.72148   0.13732   0.00000  Uiso   1.00
H261   H     0.36964   0.74124   0.19248   0.00000  Uiso   1.00
H262   H     0.35168   0.72600   0.26645   0.00000  Uiso   1.00
H263   H     0.17992   0.57964   0.57770   0.00000  Uiso   1.00
H264   H     0.10998   0.55331   0.57770   0.00000  Uiso   1.00
C265   C     0.25840   0.24232   0.88452   0.00000  Uiso   1.00
S266   S     0.22847   0.26747   0.94169   0.00000  Uiso   1.00
C267   C     0.33949   0.18495   0.56932   0.00000  Uiso   1.00
C268   C     0.33549   0.19306   0.61289   0.00000  Uiso   1.00
C269   C     0.24361   0.19785   0.63178   0.00000  Uiso   1.00
C270   C     0.15716   0.19477   0.60568   0.00000  Uiso   1.00
C271   C     0.16115   0.18654   0.56236   0.00000  Uiso   1.00
C272   C     0.25232   0.18151   0.54413   0.00000  Uiso   1.00
C273   C     0.28980   0.14817   0.54369   0.00000  Uiso   1.00
C274   C     0.31246   0.13239   0.54358   0.00000  Uiso   1.00
C275   C     0.29942   0.20571   0.71140   0.00000  Uiso   1.00
N276   N     0.23524   0.20612   0.67655   0.00000  Uiso   1.00
C277   C     0.35427   0.21358   0.20689   0.00000  Uiso   1.00
C278   C     0.34523   0.22251   0.16520   0.00000  Uiso   1.00
C279   C     0.26591   0.23283   0.15986   0.00000  Uiso   1.00
C280   C     0.19389   0.23370   0.19640   0.00000  Uiso   1.00
C281   C     0.20383   0.22491   0.23849   0.00000  Uiso   1.00
C282   C     0.28488   0.21486   0.24422   0.00000  Uiso   1.00
C283   C     0.33327   0.07382   0.54372   0.00000  Uiso   1.00
C284   C     0.37242   0.05885   0.54372   0.00000  Uiso   1.00
H285   H     0.41023   0.18125   0.55515   0.00000  Uiso   1.00
H286   H     0.40415   0.19571   0.63111   0.00000  Uiso   1.00
H287   H     0.08644   0.19857   0.61951   0.00000  Uiso   1.00
H288   H     0.09329   0.18394   0.54333   0.00000  Uiso   1.00
H289   H     0.28077   0.15384   0.57816   0.00000  Uiso   1.00
H290   H     0.32129   0.12631   0.57745   0.00000  Uiso   1.00
H291   H     0.36410   0.19835   0.70896   0.00000  Uiso   1.00
H292   H     0.41563   0.20563   0.21009   0.00000  Uiso   1.00
H293   H     0.40097   0.22148   0.13732   0.00000  Uiso   1.00
H294   H     0.13036   0.24124   0.19248   0.00000  Uiso   1.00
H295   H     0.14832   0.22600   0.26645   0.00000  Uiso   1.00
H296   H     0.32008   0.07964   0.57770   0.00000  Uiso   1.00
H297   H     0.39002   0.05331   0.57770   0.00000  Uiso   1.00
C298   C     0.75840   0.74232   0.88452   0.00000  Uiso   1.00
S299   S     0.72847   0.76747   0.94169   0.00000  Uiso   1.00
C300   C     0.83949   0.68495   0.56932   0.00000  Uiso   1.00
C301   C     0.83549   0.69306   0.61289   0.00000  Uiso   1.00
C302   C     0.74361   0.69785   0.63178   0.00000  Uiso   1.00
C303   C     0.65716   0.69477   0.60568   0.00000  Uiso   1.00
C304   C     0.66115   0.68654   0.56236   0.00000  Uiso   1.00
C305   C     0.75232   0.68151   0.54413   0.00000  Uiso   1.00
C306   C     0.78980   0.64817   0.54369   0.00000  Uiso   1.00
C307   C     0.81246   0.63239   0.54358   0.00000  Uiso   1.00
C308   C     0.79942   0.70571   0.71140   0.00000  Uiso   1.00
N309   N     0.73524   0.70612   0.67655   0.00000  Uiso   1.00
C310   C     0.85427   0.71358   0.20689   0.00000  Uiso   1.00
C311   C     0.84523   0.72251   0.16520   0.00000  Uiso   1.00
C312   C     0.76591   0.73283   0.15986   0.00000  Uiso   1.00
C313   C     0.69389   0.73370   0.19640   0.00000  Uiso   1.00
C314   C     0.70383   0.72491   0.23849   0.00000  Uiso   1.00
C315   C     0.78488   0.71486   0.24422   0.00000  Uiso   1.00
C316   C     0.83327   0.57382   0.54372   0.00000  Uiso   1.00
C317   C     0.87242   0.55885   0.54372   0.00000  Uiso   1.00
H318   H     0.91023   0.68125   0.55515   0.00000  Uiso   1.00
H319   H     0.90415   0.69571   0.63111   0.00000  Uiso   1.00
H320   H     0.58644   0.69857   0.61951   0.00000  Uiso   1.00
H321   H     0.59329   0.68394   0.54333   0.00000  Uiso   1.00
H322   H     0.78077   0.65384   0.57816   0.00000  Uiso   1.00
H323   H     0.82129   0.62631   0.57745   0.00000  Uiso   1.00
H324   H     0.86410   0.69835   0.70896   0.00000  Uiso   1.00
H325   H     0.91563   0.70563   0.21009   0.00000  Uiso   1.00
H326   H     0.90097   0.72148   0.13732   0.00000  Uiso   1.00
H327   H     0.63036   0.74124   0.19248   0.00000  Uiso   1.00
H328   H     0.64832   0.72600   0.26645   0.00000  Uiso   1.00
H329   H     0.82008   0.57964   0.57770   0.00000  Uiso   1.00
H330   H     0.89002   0.55331   0.57770   0.00000  Uiso   1.00
C331   C     0.74160   0.75768   0.88452   0.00000  Uiso   1.00
S332   S     0.77153   0.73253   0.94169   0.00000  Uiso   1.00
C333   C     0.66051   0.81505   0.56932   0.00000  Uiso   1.00
C334   C     0.66451   0.80694   0.61289   0.00000  Uiso   1.00
C335   C     0.75639   0.80215   0.63178   0.00000  Uiso   1.00
C336   C     0.84284   0.80523   0.60568   0.00000  Uiso   1.00
C337   C     0.83885   0.81346   0.56236   0.00000  Uiso   1.00
C338   C     0.74768   0.81849   0.54413   0.00000  Uiso   1.00
C339   C     0.71020   0.85183   0.54369   0.00000  Uiso   1.00
C340   C     0.68754   0.86761   0.54358   0.00000  Uiso   1.00
C341   C     0.70058   0.79429   0.71140   0.00000  Uiso   1.00
N342   N     0.76476   0.79388   0.67655   0.00000  Uiso   1.00
C343   C     0.64573   0.78642   0.20689   0.00000  Uiso   1.00
C344   C     0.65477   0.77749   0.16520   0.00000  Uiso   1.00
C345   C     0.73409   0.76717   0.15986   0.00000  Uiso   1.00
C346   C     0.80611   0.76630   0.19640   0.00000  Uiso   1.00
C347   C     0.79617   0.77509   0.23849   0.00000  Uiso   1.00
C348   C     0.71512   0.78514   0.24422   0.00000  Uiso   1.00
C349   C     0.66673   0.92618   0.54372   0.00000  Uiso   1.00
C350   C     0.62758   0.94115   0.54372   0.00000  Uiso   1.00
H351   H     0.58977   0.81875   0.55515   0.00000  Uiso   1.00
H352   H     0.59585   0.80429   0.63111   0.00000  Uiso   1.00
H353   H     0.91356   0.80143   0.61951   0.00000  Uiso   1.00
H354   H     0.90671   0.81606   0.54333   0.00000  Uiso   1.00
H355   H     0.71923   0.84616   0.57816   0.00000  Uiso   1.00
H356   H     0.67871   0.87369   0.57745   0.00000  Uiso   1.00
H357   H     0.63590   0.80165   0.70896   0.00000  Uiso   1.00
H358   H     0.58437   0.79437   0.21009   0.00000  Uiso   1.00
H359   H     0.59903   0.77852   0.13732   0.00000  Uiso   1.00
H360   H     0.86964   0.75876   0.19248   0.00000  Uiso   1.00
H361   H     0.85168   0.77400   0.26645   0.00000  Uiso   1.00
H362   H     0.67992   0.92036   0.57770   0.00000  Uiso   1.00
H363   H     0.60998   0.94669   0.57770   0.00000  Uiso   1.00
C364   C     0.24160   0.25768   0.88452   0.00000  Uiso   1.00
S365   S     0.27153   0.23253   0.94169   0.00000  Uiso   1.00
C366   C     0.16051   0.31505   0.56932   0.00000  Uiso   1.00
C367   C     0.16451   0.30694   0.61289   0.00000  Uiso   1.00
C368   C     0.25639   0.30215   0.63178   0.00000  Uiso   1.00
C369   C     0.34284   0.30523   0.60568   0.00000  Uiso   1.00
C370   C     0.33885   0.31346   0.56236   0.00000  Uiso   1.00
C371   C     0.24768   0.31849   0.54413   0.00000  Uiso   1.00
C372   C     0.21020   0.35183   0.54369   0.00000  Uiso   1.00
C373   C     0.18754   0.36761   0.54358   0.00000  Uiso   1.00
C374   C     0.20058   0.29429   0.71140   0.00000  Uiso   1.00
N375   N     0.26476   0.29388   0.67655   0.00000  Uiso   1.00
C376   C     0.14573   0.28642   0.20689   0.00000  Uiso   1.00
C377   C     0.15477   0.27749   0.16520   0.00000  Uiso   1.00
C378   C     0.23409   0.26717   0.15986   0.00000  Uiso   1.00
C379   C     0.30611   0.26630   0.19640   0.00000  Uiso   1.00
C380   C     0.29617   0.27509   0.23849   0.00000  Uiso   1.00
C381   C     0.21512   0.28514   0.24422   0.00000  Uiso   1.00
C382   C     0.16673   0.42618   0.54372   0.00000  Uiso   1.00
C383   C     0.12758   0.44115   0.54372   0.00000  Uiso   1.00
H384   H     0.08977   0.31875   0.55515   0.00000  Uiso   1.00
H385   H     0.09585   0.30429   0.63111   0.00000  Uiso   1.00
H386   H     0.41356   0.30143   0.61951   0.00000  Uiso   1.00
H387   H     0.40671   0.31606   0.54333   0.00000  Uiso   1.00
H388   H     0.21923   0.34616   0.57816   0.00000  Uiso   1.00
H389   H     0.17871   0.37369   0.57745   0.00000  Uiso   1.00
H390   H     0.13590   0.30165   0.70896   0.00000  Uiso   1.00
H391   H     0.08437   0.29437   0.21009   0.00000  Uiso   1.00
H392   H     0.09903   0.27852   0.13732   0.00000  Uiso   1.00
H393   H     0.36964   0.25876   0.19248   0.00000  Uiso   1.00
H394   H     0.35168   0.27400   0.26645   0.00000  Uiso   1.00
H395   H     0.17992   0.42036   0.57770   0.00000  Uiso   1.00
H396   H     0.10998   0.44669   0.57770   0.00000  Uiso   1.00
C397   C     0.74160   0.24232   0.11548   0.00000  Uiso   1.00
S398   S     0.77153   0.26747   0.05831   0.00000  Uiso   1.00
C399   C     0.66051   0.18495   0.43068   0.00000  Uiso   1.00
C400   C     0.66451   0.19306   0.38711   0.00000  Uiso   1.00
C401   C     0.75639   0.19785   0.36822   0.00000  Uiso   1.00
C402   C     0.84284   0.19477   0.39432   0.00000  Uiso   1.00
C403   C     0.83885   0.18654   0.43764   0.00000  Uiso   1.00
C404   C     0.74768   0.18151   0.45587   0.00000  Uiso   1.00
C405   C     0.71020   0.14817   0.45631   0.00000  Uiso   1.00
C406   C     0.68754   0.13239   0.45642   0.00000  Uiso   1.00
C407   C     0.70058   0.20571   0.28860   0.00000  Uiso   1.00
N408   N     0.76476   0.20612   0.32345   0.00000  Uiso   1.00
C409   C     0.64573   0.21358   0.79311   0.00000  Uiso   1.00
C410   C     0.65477   0.22251   0.83480   0.00000  Uiso   1.00
C411   C     0.73409   0.23283   0.84014   0.00000  Uiso   1.00
C412   C     0.80611   0.23370   0.80360   0.00000  Uiso   1.00
C413   C     0.79617   0.22491   0.76151   0.00000  Uiso   1.00
C414   C     0.71512   0.21486   0.75578   0.00000  Uiso   1.00
C415   C     0.66673   0.07382   0.45628   0.00000  Uiso   1.00
C416   C     0.62758   0.05885   0.45628   0.00000  Uiso   1.00
H417   H     0.58977   0.18125   0.44485   0.00000  Uiso   1.00
H418   H     0.59585   0.19571   0.36889   0.00000  Uiso   1.00
H419   H     0.91356   0.19857   0.38049   0.00000  Uiso   1.00
H420   H     0.90671   0.18394   0.45667   0.00000  Uiso   1.00
H421   H     0.71923   0.15384   0.42184   0.00000  Uiso   1.00
H422   H     0.67871   0.12631   0.42255   0.00000  Uiso   1.00
H423   H     0.63590   0.19835   0.29104   0.00000  Uiso   1.00
H424   H     0.58437   0.20563   0.78991   0.00000  Uiso   1.00
H425   H     0.59903   0.22148   0.86268   0.00000  Uiso   1.00
H426   H     0.86964   0.24124   0.80752   0.00000  Uiso   1.00
H427   H     0.85168   0.22600   0.73355   0.00000  Uiso   1.00
H428   H     0.67992   0.07964   0.42230   0.00000  Uiso   1.00
H429   H     0.60998   0.05331   0.42230   0.00000  Uiso   1.00
C430   C     0.24160   0.74232   0.11548   0.00000  Uiso   1.00
S431   S     0.27153   0.76747   0.05831   0.00000  Uiso   1.00
C432   C     0.16051   0.68495   0.43068   0.00000  Uiso   1.00
C433   C     0.16451   0.69306   0.38711   0.00000  Uiso   1.00
C434   C     0.25639   0.69785   0.36822   0.00000  Uiso   1.00
C435   C     0.34284   0.69477   0.39432   0.00000  Uiso   1.00
C436   C     0.33885   0.68654   0.43764   0.00000  Uiso   1.00
C437   C     0.24768   0.68151   0.45587   0.00000  Uiso   1.00
C438   C     0.21020   0.64817   0.45631   0.00000  Uiso   1.00
C439   C     0.18754   0.63239   0.45642   0.00000  Uiso   1.00
C440   C     0.20058   0.70571   0.28860   0.00000  Uiso   1.00
N441   N     0.26476   0.70612   0.32345   0.00000  Uiso   1.00
C442   C     0.14573   0.71358   0.79311   0.00000  Uiso   1.00
C443   C     0.15477   0.72251   0.83480   0.00000  Uiso   1.00
C444   C     0.23409   0.73283   0.84014   0.00000  Uiso   1.00
C445   C     0.30611   0.73370   0.80360   0.00000  Uiso   1.00
C446   C     0.29617   0.72491   0.76151   0.00000  Uiso   1.00
C447   C     0.21512   0.71486   0.75578   0.00000  Uiso   1.00
C448   C     0.16673   0.57382   0.45628   0.00000  Uiso   1.00
C449   C     0.12758   0.55885   0.45628   0.00000  Uiso   1.00
H450   H     0.08977   0.68125   0.44485   0.00000  Uiso   1.00
H451   H     0.09585   0.69571   0.36889   0.00000  Uiso   1.00
H452   H     0.41356   0.69857   0.38049   0.00000  Uiso   1.00
H453   H     0.40671   0.68394   0.45667   0.00000  Uiso   1.00
H454   H     0.21923   0.65384   0.42184   0.00000  Uiso   1.00
H455   H     0.17871   0.62631   0.42255   0.00000  Uiso   1.00
H456   H     0.13590   0.69835   0.29104   0.00000  Uiso   1.00
H457   H     0.08437   0.70563   0.78991   0.00000  Uiso   1.00
H458   H     0.09903   0.72148   0.86268   0.00000  Uiso   1.00
H459   H     0.36964   0.74124   0.80752   0.00000  Uiso   1.00
H460   H     0.35168   0.72600   0.73355   0.00000  Uiso   1.00
H461   H     0.17992   0.57964   0.42230   0.00000  Uiso   1.00
H462   H     0.10998   0.55331   0.42230   0.00000  Uiso   1.00
C463   C     0.25840   0.75768   0.11548   0.00000  Uiso   1.00
S464   S     0.22847   0.73253   0.05831   0.00000  Uiso   1.00
C465   C     0.33949   0.81505   0.43068   0.00000  Uiso   1.00
C466   C     0.33549   0.80694   0.38711   0.00000  Uiso   1.00
C467   C     0.24361   0.80215   0.36822   0.00000  Uiso   1.00
C468   C     0.15716   0.80523   0.39432   0.00000  Uiso   1.00
C469   C     0.16115   0.81346   0.43764   0.00000  Uiso   1.00
C470   C     0.25232   0.81849   0.45587   0.00000  Uiso   1.00
C471   C     0.28980   0.85183   0.45631   0.00000  Uiso   1.00
C472   C     0.31246   0.86761   0.45642   0.00000  Uiso   1.00
C473   C     0.29942   0.79429   0.28860   0.00000  Uiso   1.00
N474   N     0.23524   0.79388   0.32345   0.00000  Uiso   1.00
C475   C     0.35427   0.78642   0.79311   0.00000  Uiso   1.00
C476   C     0.34523   0.77749   0.83480   0.00000  Uiso   1.00
C477   C     0.26591   0.76717   0.84014   0.00000  Uiso   1.00
C478   C     0.19389   0.76630   0.80360   0.00000  Uiso   1.00
C479   C     0.20383   0.77509   0.76151   0.00000  Uiso   1.00
C480   C     0.28488   0.78514   0.75578   0.00000  Uiso   1.00
C481   C     0.33327   0.92618   0.45628   0.00000  Uiso   1.00
C482   C     0.37242   0.94115   0.45628   0.00000  Uiso   1.00
H483   H     0.41023   0.81875   0.44485   0.00000  Uiso   1.00
H484   H     0.40415   0.80429   0.36889   0.00000  Uiso   1.00
H485   H     0.08644   0.80143   0.38049   0.00000  Uiso   1.00
H486   H     0.09329   0.81606   0.45667   0.00000  Uiso   1.00
H487   H     0.28077   0.84616   0.42184   0.00000  Uiso   1.00
H488   H     0.32129   0.87369   0.42255   0.00000  Uiso   1.00
H489   H     0.36410   0.80165   0.29104   0.00000  Uiso   1.00
H490   H     0.41563   0.79437   0.78991   0.00000  Uiso   1.00
H491   H     0.40097   0.77852   0.86268   0.00000  Uiso   1.00
H492   H     0.13036   0.75876   0.80752   0.00000  Uiso   1.00
H493   H     0.14832   0.77400   0.73355   0.00000  Uiso   1.00
H494   H     0.32008   0.92036   0.42230   0.00000  Uiso   1.00
H495   H     0.39002   0.94669   0.42230   0.00000  Uiso   1.00
C496   C     0.75840   0.25768   0.11548   0.00000  Uiso   1.00
S497   S     0.72847   0.23253   0.05831   0.00000  Uiso   1.00
C498   C     0.83949   0.31505   0.43068   0.00000  Uiso   1.00
C499   C     0.83549   0.30694   0.38711   0.00000  Uiso   1.00
C500   C     0.74361   0.30215   0.36822   0.00000  Uiso   1.00
C501   C     0.65716   0.30523   0.39432   0.00000  Uiso   1.00
C502   C     0.66115   0.31346   0.43764   0.00000  Uiso   1.00
C503   C     0.75232   0.31849   0.45587   0.00000  Uiso   1.00
C504   C     0.78980   0.35183   0.45631   0.00000  Uiso   1.00
C505   C     0.81246   0.36761   0.45642   0.00000  Uiso   1.00
C506   C     0.79942   0.29429   0.28860   0.00000  Uiso   1.00
N507   N     0.73524   0.29388   0.32345   0.00000  Uiso   1.00
C508   C     0.85427   0.28642   0.79311   0.00000  Uiso   1.00
C509   C     0.84523   0.27749   0.83480   0.00000  Uiso   1.00
C510   C     0.76591   0.26717   0.84014   0.00000  Uiso   1.00
C511   C     0.69389   0.26630   0.80360   0.00000  Uiso   1.00
C512   C     0.70383   0.27509   0.76151   0.00000  Uiso   1.00
C513   C     0.78488   0.28514   0.75578   0.00000  Uiso   1.00
C514   C     0.83327   0.42618   0.45628   0.00000  Uiso   1.00
C515   C     0.87242   0.44115   0.45628   0.00000  Uiso   1.00
H516   H     0.91023   0.31875   0.44485   0.00000  Uiso   1.00
H517   H     0.90415   0.30429   0.36889   0.00000  Uiso   1.00
H518   H     0.58644   0.30143   0.38049   0.00000  Uiso   1.00
H519   H     0.59329   0.31606   0.45667   0.00000  Uiso   1.00
H520   H     0.78077   0.34616   0.42184   0.00000  Uiso   1.00
H521   H     0.82129   0.37369   0.42255   0.00000  Uiso   1.00
H522   H     0.86410   0.30165   0.29104   0.00000  Uiso   1.00
H523   H     0.91563   0.29437   0.78991   0.00000  Uiso   1.00
H524   H     0.90097   0.27852   0.86268   0.00000  Uiso   1.00
H525   H     0.63036   0.25876   0.80752   0.00000  Uiso   1.00
H526   H     0.64832   0.27400   0.73355   0.00000  Uiso   1.00
H527   H     0.82008   0.42036   0.42230   0.00000  Uiso   1.00
H528   H     0.89002   0.44669   0.42230   0.00000  Uiso   1.00
C529   C     0.75000   0.75000   0.02429   0.00000  Uiso   1.00
C530   C     0.25000   0.25000   0.02429   0.00000  Uiso   1.00
C531   C     0.25000   0.75000   0.97571   0.00000  Uiso   1.00
C532   C     0.75000   0.25000   0.97571   0.00000  Uiso   1.00
C533   C     0.25000   0.25000   0.97571   0.00000  Uiso   1.00
C534   C     0.75000   0.75000   0.97571   0.00000  Uiso   1.00
C535   C     0.75000   0.25000   0.02429   0.00000  Uiso   1.00
C536   C     0.25000   0.75000   0.02429   0.00000  Uiso   1.00
S537   S     0.61445   0.01871   0.50000   0.00000  Uiso   1.00
C538   C     0.54952   0.03686   0.50000   0.00000  Uiso   1.00
C539   C     0.67626   0.87553   0.50000   0.00000  Uiso   1.00
C540   C     0.72077   0.84360   0.50000   0.00000  Uiso   1.00
C541   C     0.71660   0.90239   0.50000   0.00000  Uiso   1.00
N542   N     0.65039   0.89154   0.50000   0.00000  Uiso   1.00
C543   C     0.60630   0.94859   0.50000   0.00000  Uiso   1.00
C544   C     0.68494   0.91857   0.50000   0.00000  Uiso   1.00
N545   N     0.24323   0.32715   0.50000   0.00000  Uiso   1.00
H546   H     0.29490   0.39964   0.50000   0.00000  Uiso   1.00
S547   S     0.11445   0.51871   0.50000   0.00000  Uiso   1.00
C548   C     0.04952   0.53686   0.50000   0.00000  Uiso   1.00
C549   C     0.17626   0.37553   0.50000   0.00000  Uiso   1.00
C550   C     0.22077   0.34360   0.50000   0.00000  Uiso   1.00
C551   C     0.21660   0.40239   0.50000   0.00000  Uiso   1.00
N552   N     0.15039   0.39154   0.50000   0.00000  Uiso   1.00
C553   C     0.10630   0.44859   0.50000   0.00000  Uiso   1.00
C554   C     0.18494   0.41857   0.50000   0.00000  Uiso   1.00
N555   N     0.74323   0.82715   0.50000   0.00000  Uiso   1.00
H556   H     0.79490   0.89964   0.50000   0.00000  Uiso   1.00
S557   S     0.38555   0.98129   0.50000   0.00000  Uiso   1.00
C558   C     0.45048   0.96314   0.50000   0.00000  Uiso   1.00
C559   C     0.32374   0.12447   0.50000   0.00000  Uiso   1.00
C560   C     0.27923   0.15640   0.50000   0.00000  Uiso   1.00
C561   C     0.28340   0.09761   0.50000   0.00000  Uiso   1.00
N562   N     0.34961   0.10846   0.50000   0.00000  Uiso   1.00
C563   C     0.39370   0.05141   0.50000   0.00000  Uiso   1.00
C564   C     0.31506   0.08143   0.50000   0.00000  Uiso   1.00
N565   N     0.75677   0.67285   0.50000   0.00000  Uiso   1.00
H566   H     0.70510   0.60036   0.50000   0.00000  Uiso   1.00
S567   S     0.88555   0.48129   0.50000   0.00000  Uiso   1.00
C568   C     0.95048   0.46314   0.50000   0.00000  Uiso   1.00
C569   C     0.82374   0.62447   0.50000   0.00000  Uiso   1.00
C570   C     0.77923   0.65640   0.50000   0.00000  Uiso   1.00
C571   C     0.78340   0.59761   0.50000   0.00000  Uiso   1.00
N572   N     0.84961   0.60846   0.50000   0.00000  Uiso   1.00
C573   C     0.89370   0.55141   0.50000   0.00000  Uiso   1.00
C574   C     0.81506   0.58143   0.50000   0.00000  Uiso   1.00
N575   N     0.25677   0.17285   0.50000   0.00000  Uiso   1.00
H576   H     0.20510   0.10036   0.50000   0.00000  Uiso   1.00
S577   S     0.38555   0.01871   0.50000   0.00000  Uiso   1.00
C578   C     0.45048   0.03686   0.50000   0.00000  Uiso   1.00
C579   C     0.32374   0.87553   0.50000   0.00000  Uiso   1.00
C580   C     0.27923   0.84360   0.50000   0.00000  Uiso   1.00
C581   C     0.28340   0.90239   0.50000   0.00000  Uiso   1.00
N582   N     0.34961   0.89154   0.50000   0.00000  Uiso   1.00
C583   C     0.39370   0.94859   0.50000   0.00000  Uiso   1.00
C584   C     0.31506   0.91857   0.50000   0.00000  Uiso   1.00
N585   N     0.75677   0.32715   0.50000   0.00000  Uiso   1.00
H586   H     0.70510   0.39964   0.50000   0.00000  Uiso   1.00
S587   S     0.88555   0.51871   0.50000   0.00000  Uiso   1.00
C588   C     0.95048   0.53686   0.50000   0.00000  Uiso   1.00
C589   C     0.82374   0.37553   0.50000   0.00000  Uiso   1.00
C590   C     0.77923   0.34360   0.50000   0.00000  Uiso   1.00
C591   C     0.78340   0.40239   0.50000   0.00000  Uiso   1.00
N592   N     0.84961   0.39154   0.50000   0.00000  Uiso   1.00
C593   C     0.89370   0.44859   0.50000   0.00000  Uiso   1.00
C594   C     0.81506   0.41857   0.50000   0.00000  Uiso   1.00
N595   N     0.25677   0.82715   0.50000   0.00000  Uiso   1.00
H596   H     0.20510   0.89964   0.50000   0.00000  Uiso   1.00
S597   S     0.61445   0.98129   0.50000   0.00000  Uiso   1.00
C598   C     0.54952   0.96314   0.50000   0.00000  Uiso   1.00
C599   C     0.67626   0.12447   0.50000   0.00000  Uiso   1.00
C600   C     0.72077   0.15640   0.50000   0.00000  Uiso   1.00
C601   C     0.71660   0.09761   0.50000   0.00000  Uiso   1.00
N602   N     0.65039   0.10846   0.50000   0.00000  Uiso   1.00
C603   C     0.60630   0.05141   0.50000   0.00000  Uiso   1.00
C604   C     0.68494   0.08143   0.50000   0.00000  Uiso   1.00
N605   N     0.24323   0.67285   0.50000   0.00000  Uiso   1.00
H606   H     0.29490   0.60036   0.50000   0.00000  Uiso   1.00
S607   S     0.11445   0.48129   0.50000   0.00000  Uiso   1.00
C608   C     0.04952   0.46314   0.50000   0.00000  Uiso   1.00
C609   C     0.17626   0.62447   0.50000   0.00000  Uiso   1.00
C610   C     0.22077   0.65640   0.50000   0.00000  Uiso   1.00
C611   C     0.21660   0.59761   0.50000   0.00000  Uiso   1.00
N612   N     0.15039   0.60846   0.50000   0.00000  Uiso   1.00
C613   C     0.10630   0.55141   0.50000   0.00000  Uiso   1.00
C614   C     0.18494   0.58143   0.50000   0.00000  Uiso   1.00
N615   N     0.74323   0.17285   0.50000   0.00000  Uiso   1.00
H616   H     0.79490   0.10036   0.50000   0.00000  Uiso   1.00
C617   C     0.50000   0.00780   0.50000   0.00000  Uiso   1.00
C618   C     0.00000   0.50780   0.50000   0.00000  Uiso   1.00
C619   C     0.50000   0.99220   0.50000   0.00000  Uiso   1.00
C620   C     0.00000   0.49220   0.50000   0.00000  Uiso   1.00
loop_
_geom_bond_atom_site_label_1
_geom_bond_atom_site_label_2
_geom_bond_distance
_geom_bond_site_symmetry_2
_ccdc_geom_bond_type
C1     C100    1.379   .     D
C1     S101    1.743   .     S
C1     C345    1.443   .     S
S2     C100    1.743   .     S
S2     C529    1.808   .     S
C3     C4      1.355   .     S
C3     C8      1.172   .     D
C3     H21     0.895   .     S
C4     C5      1.168   .     D
C4     H22     0.898   .     S
C5     C6      1.172   .     S
C5     N12     1.391   .     S
C6     C7      1.355   .     D
C6     H23     0.895   .     S
C7     C8      1.162   .     S
C7     H24     0.902   .     S
C8     N555    1.394   .     S
C9     C10     1.425   .     S
C9     H25     1.042   .     S
C9     C540    1.367   .     D
C10    H26     1.046   .     S
C10    C539    1.351   .     D
C11    N12     1.139   .     D
C11    H27     0.947   .     S
C11    C348    1.431   .     S
C13    C14     1.357   .     S
C13    C18     1.229   .     D
C13    H28     0.962   .     S
C14    C15     1.249   .     D
C14    H29     0.943   .     S
C15    C16     1.226   .     S
C15    C331    1.443   .     S
C16    C17     1.359   .     D
C16    H30     0.953   .     S
C17    C18     1.245   .     S
C17    H31     0.944   .     S
C18    C341    1.431   .     S
C19    C20     1.395   .     S
C19    H32     1.042   .     S
C19    C544    1.348   .     D
C20    H33     1.037   .     S
C20    C543    1.345   .     D
C34    C67     1.379   .     D
C34    S68     1.743   .     S
C34    C378    1.443   .     S
S35    C67     1.743   .     S
S35    C530    1.808   .     S
C36    C37     1.355   .     D
C36    C41     1.172   .     S
C36    H54     0.895   .     S
C37    C38     1.168   .     S
C37    H55     0.898   .     S
C38    C39     1.172   .     D
C38    N45     1.391   .     S
C39    C40     1.355   .     S
C39    H56     0.895   .     S
C40    C41     1.162   .     D
C40    H57     0.902   .     S
C41    N545    1.394   .     S
C42    C43     1.425   .     S
C42    H58     1.042   .     S
C42    C550    1.367   .     D
C43    H59     1.046   .     S
C43    C549    1.350   .     D
C44    N45     1.139   .     D
C44    H60     0.947   .     S
C44    C381    1.431   .     S
C46    C47     1.357   .     S
C46    C51     1.229   .     D
C46    H61     0.962   .     S
C47    C48     1.249   .     D
C47    H62     0.943   .     S
C48    C49     1.226   .     S
C48    C364    1.443   .     S
C49    C50     1.359   .     D
C49    H63     0.953   .     S
C50    C51     1.245   .     S
C50    H64     0.944   .     S
C51    C374    1.431   .     S
C52    C53     1.395   .     S
C52    H65     1.042   .     S
C52    C554    1.348   .     D
C53    H66     1.037   .     S
C53    C553    1.345   .     D
C67    C279    1.443   .     S
S68    C530    1.808   .     S
C69    C70     1.355   .     S
C69    C74     1.172   .     D
C69    H87     0.895   .     S
C70    C71     1.168   .     D
C70    H88     0.898   .     S
C71    C72     1.172   .     S
C71    N78     1.391   .     S
C72    C73     1.355   .     D
C72    H89     0.895   .     S
C73    C74     1.162   .     S
C73    H90     0.902   .     S
C74    N575    1.394   .     S
C75    C76     1.425   .     S
C75    H91     1.042   .     S
C75    C560    1.367   .     D
C76    H92     1.046   .     S
C76    C559    1.350   .     D
C77    N78     1.139   .     D
C77    H93     0.947   .     S
C77    C282    1.431   .     S
C79    C80     1.357   .     S
C79    C84     1.229   .     D
C79    H94     0.962   .     S
C80    C81     1.249   .     D
C80    H95     0.943   .     S
C81    C82     1.226   .     S
C81    C265    1.443   .     S
C82    C83     1.359   .     D
C82    H96     0.953   .     S
C83    C84     1.245   .     S
C83    H97     0.944   .     S
C84    C275    1.431   .     S
C85    C86     1.395   .     S
C85    H98     1.042   .     S
C85    C564    1.348   .     D
C86    H99     1.037   .     S
C86    C563    1.345   .     D
C100   C312    1.443   .     S
S101   C529    1.808   .     S
C102   C103    1.355   .     S
C102   C107    1.172   .     D
C102   H120    0.895   .     S
C103   C104    1.168   .     D
C103   H121    0.898   .     S
C104   C105    1.172   .     S
C104   N111    1.391   .     S
C105   C106    1.355   .     D
C105   H122    0.895   .     S
C106   C107    1.162   .     S
C106   H123    0.902   .     S
C107   N565    1.394   .     S
C108   C109    1.425   .     S
C108   H124    1.042   .     S
C108   C570    1.367   .     D
C109   H125    1.046   .     S
C109   C569    1.350   .     D
C110   N111    1.139   .     D
C110   H126    0.947   .     S
C110   C315    1.431   .     S
C112   C113    1.357   .     S
C112   C117    1.229   .     D
C112   H127    0.962   .     S
C113   C114    1.249   .     D
C113   H128    0.943   .     S
C114   C115    1.226   .     S
C114   C298    1.443   .     S
C115   C116    1.359   .     D
C115   H129    0.953   .     S
C116   C117    1.245   .     S
C116   H130    0.944   .     S
C117   C308    1.431   .     S
C118   C119    1.395   .     S
C118   H131    1.042   .     S
C118   C574    1.348   .     D
C119   H132    1.037   .     S
C119   C573    1.345   .     D
C133   C232    1.379   .     D
C133   S233    1.743   .     S
C133   C477    1.443   .     S
S134   C232    1.743   .     S
S134   C531    1.808   .     S
C135   C136    1.355   .     S
C135   C140    1.172   .     D
C135   H153    0.895   .     S
C136   C137    1.168   .     D
C136   H154    0.898   .     S
C137   C138    1.172   .     S
C137   N144    1.391   .     S
C138   C139    1.355   .     D
C138   H155    0.895   .     S
C139   C140    1.162   .     S
C139   H156    0.902   .     S
C140   N595    1.394   .     S
C141   C142    1.425   .     S
C141   H157    1.042   .     S
C141   C580    1.367   .     D
C142   H158    1.046   .     S
C142   C579    1.351   .     D
C143   N144    1.139   .     D
C143   H159    0.947   .     S
C143   C480    1.431   .     S
C145   C146    1.357   .     S
C145   C150    1.229   .     D
C145   H160    0.962   .     S
C146   C147    1.249   .     D
C146   H161    0.943   .     S
C147   C148    1.226   .     S
C147   C463    1.443   .     S
C148   C149    1.359   .     D
C148   H162    0.953   .     S
C149   C150    1.245   .     S
C149   H163    0.944   .     S
C150   C473    1.431   .     S
C151   C152    1.395   .     S
C151   H164    1.042   .     S
C151   C584    1.348   .     D
C152   H165    1.037   .     S
C152   C583    1.345   .     D
C166   C199    1.379   .     D
C166   S200    1.743   .     S
C166   C510    1.443   .     S
S167   C199    1.743   .     S
S167   C532    1.808   .     S
C168   C169    1.355   .     S
C168   C173    1.172   .     D
C168   H186    0.895   .     S
C169   C170    1.168   .     D
C169   H187    0.898   .     S
C170   C171    1.172   .     S
C170   N177    1.391   .     S
C171   C172    1.355   .     D
C171   H188    0.895   .     S
C172   C173    1.162   .     S
C172   H189    0.902   .     S
C173   N585    1.394   .     S
C174   C175    1.425   .     S
C174   H190    1.042   .     S
C174   C590    1.367   .     D
C175   H191    1.046   .     S
C175   C589    1.350   .     D
C176   N177    1.139   .     D
C176   H192    0.947   .     S
C176   C513    1.431   .     S
C178   C179    1.357   .     S
C178   C183    1.229   .     D
C178   H193    0.962   .     S
C179   C180    1.249   .     D
C179   H194    0.943   .     S
C180   C181    1.226   .     S
C180   C496    1.443   .     S
C181   C182    1.359   .     D
C181   H195    0.953   .     S
C182   C183    1.245   .     S
C182   H196    0.944   .     S
C183   C506    1.431   .     S
C184   C185    1.395   .     S
C184   H197    1.042   .     S
C184   C594    1.348   .     D
C185   H198    1.037   .     S
C185   C593    1.345   .     D
C199   C411    1.443   .     S
S200   C532    1.808   .     S
C201   C202    1.355   .     S
C201   C206    1.172   .     D
C201   H219    0.895   .     S
C202   C203    1.168   .     D
C202   H220    0.898   .     S
C203   C204    1.172   .     S
C203   N210    1.391   .     S
C204   C205    1.355   .     D
C204   H221    0.895   .     S
C205   C206    1.162   .     S
C205   H222    0.902   .     S
C206   N615    1.394   .     S
C207   C208    1.425   .     S
C207   H223    1.042   .     S
C207   C600    1.367   .     D
C208   H224    1.046   .     S
C208   C599    1.350   .     D
C209   N210    1.139   .     D
C209   H225    0.947   .     S
C209   C414    1.431   .     S
C211   C212    1.357   .     S
C211   C216    1.229   .     D
C211   H226    0.962   .     S
C212   C213    1.249   .     D
C212   H227    0.943   .     S
C213   C214    1.226   .     S
C213   C397    1.443   .     S
C214   C215    1.359   .     D
C214   H228    0.953   .     S
C215   C216    1.245   .     S
C215   H229    0.944   .     S
C216   C407    1.431   .     S
C217   C218    1.395   .     S
C217   H230    1.042   .     S
C217   C604    1.348   .     D
C218   H231    1.037   .     S
C218   C603    1.345   .     D
C232   C444    1.443   .     S
S233   C531    1.808   .     S
C234   C235    1.355   .     D
C234   C239    1.172   .     S
C234   H252    0.895   .     S
C235   C236    1.168   .     S
C235   H253    0.898   .     S
C236   C237    1.172   .     D
C236   N243    1.391   .     S
C237   C238    1.355   .     S
C237   H254    0.895   .     S
C238   C239    1.162   .     D
C238   H255    0.902   .     S
C239   N605    1.394   .     S
C240   C241    1.425   .     S
C240   H256    1.042   .     S
C240   C610    1.367   .     D
C241   H257    1.046   .     S
C241   C609    1.350   .     D
C242   N243    1.139   .     D
C242   H258    0.947   .     S
C242   C447    1.431   .     S
C244   C245    1.357   .     S
C244   C249    1.229   .     D
C244   H259    0.962   .     S
C245   C246    1.249   .     D
C245   H260    0.943   .     S
C246   C247    1.226   .     S
C246   C430    1.443   .     S
C247   C248    1.359   .     D
C247   H261    0.953   .     S
C248   C249    1.245   .     S
C248   H262    0.944   .     S
C249   C440    1.431   .     S
C250   C251    1.395   .     S
C250   H263    1.042   .     S
C250   C614    1.348   .     D
C251   H264    1.037   .     S
C251   C613    1.345   .     D
C265   C364    1.379   .     D
C265   S365    1.743   .     S
S266   C364    1.743   .     S
S266   C533    1.808   .     S
C267   C268    1.355   .     S
C267   C272    1.172   .     D
C267   H285    0.895   .     S
C268   C269    1.168   .     D
C268   H286    0.898   .     S
C269   C270    1.172   .     S
C269   N276    1.391   .     S
C270   C271    1.355   .     D
C270   H287    0.895   .     S
C271   C272    1.162   .     S
C271   H288    0.902   .     S
C272   N575    1.394   .     S
C273   C274    1.425   .     D
C273   H289    1.042   .     S
C273   C560    1.367   .     S
C274   H290    1.046   .     S
C274   C559    1.350   .     S
C275   N276    1.139   .     D
C275   H291    0.947   .     S
C277   C278    1.357   .     S
C277   C282    1.229   .     D
C277   H292    0.962   .     S
C278   C279    1.249   .     D
C278   H293    0.943   .     S
C279   C280    1.226   .     S
C280   C281    1.359   .     D
C280   H294    0.953   .     S
C281   C282    1.245   .     S
C281   H295    0.944   .     S
C283   C284    1.395   .     D
C283   H296    1.042   .     S
C283   C564    1.348   .     S
C284   H297    1.037   .     S
C284   C563    1.345   .     S
C298   C331    1.379   .     D
C298   S332    1.743   .     S
S299   C331    1.743   .     S
S299   C534    1.808   .     S
C300   C301    1.355   .     S
C300   C305    1.172   .     D
C300   H318    0.895   .     S
C301   C302    1.168   .     D
C301   H319    0.898   .     S
C302   C303    1.172   .     S
C302   N309    1.391   .     S
C303   C304    1.355   .     D
C303   H320    0.895   .     S
C304   C305    1.162   .     S
C304   H321    0.902   .     S
C305   N565    1.394   .     S
C306   C307    1.425   .     D
C306   H322    1.042   .     S
C306   C570    1.367   .     S
C307   H323    1.046   .     S
C307   C569    1.350   .     S
C308   N309    1.139   .     D
C308   H324    0.947   .     S
C310   C311    1.357   .     S
C310   C315    1.229   .     D
C310   H325    0.962   .     S
C311   C312    1.249   .     D
C311   H326    0.943   .     S
C312   C313    1.226   .     S
C313   C314    1.359   .     D
C313   H327    0.953   .     S
C314   C315    1.245   .     S
C314   H328    0.944   .     S
C316   C317    1.395   .     D
C316   H329    1.042   .     S
C316   C574    1.348   .     S
C317   H330    1.037   .     S
C317   C573    1.345   .     S
S332   C534    1.808   .     S
C333   C334    1.355   .     S
C333   C338    1.172   .     D
C333   H351    0.895   .     S
C334   C335    1.168   .     D
C334   H352    0.898   .     S
C335   C336    1.172   .     S
C335   N342    1.391   .     S
C336   C337    1.355   .     D
C336   H353    0.895   .     S
C337   C338    1.162   .     S
C337   H354    0.902   .     S
C338   N555    1.394   .     S
C339   C340    1.425   .     D
C339   H355    1.042   .     S
C339   C540    1.367   .     S
C340   H356    1.046   .     S
C340   C539    1.351   .     S
C341   N342    1.139   .     D
C341   H357    0.947   .     S
C343   C344    1.357   .     S
C343   C348    1.229   .     D
C343   H358    0.962   .     S
C344   C345    1.249   .     D
C344   H359    0.943   .     S
C345   C346    1.226   .     S
C346   C347    1.359   .     D
C346   H360    0.953   .     S
C347   C348    1.245   .     S
C347   H361    0.944   .     S
C349   C350    1.395   .     D
C349   H362    1.042   .     S
C349   C544    1.348   .     S
C350   H363    1.037   .     S
C350   C543    1.345   .     S
S365   C533    1.808   .     S
C366   C367    1.355   .     D
C366   C371    1.172   .     S
C366   H384    0.895   .     S
C367   C368    1.168   .     S
C367   H385    0.898   .     S
C368   C369    1.172   .     D
C368   N375    1.391   .     S
C369   C370    1.355   .     S
C369   H386    0.895   .     S
C370   C371    1.162   .     D
C370   H387    0.902   .     S
C371   N545    1.394   .     S
C372   C373    1.425   .     D
C372   H388    1.042   .     S
C372   C550    1.367   .     S
C373   H389    1.046   .     S
C373   C549    1.350   .     S
C374   N375    1.139   .     D
C374   H390    0.947   .     S
C376   C377    1.357   .     S
C376   C381    1.229   .     D
C376   H391    0.962   .     S
C377   C378    1.249   .     D
C377   H392    0.943   .     S
C378   C379    1.226   .     S
C379   C380    1.359   .     D
C379   H393    0.953   .     S
C380   C381    1.245   .     S
C380   H394    0.944   .     S
C382   C383    1.395   .     D
C382   H395    1.042   .     S
C382   C554    1.348   .     S
C383   H396    1.037   .     S
C383   C553    1.345   .     S
C397   C496    1.379   .     D
C397   S497    1.743   .     S
S398   C496    1.743   .     S
S398   C535    1.808   .     S
C399   C400    1.355   .     S
C399   C404    1.172   .     D
C399   H417    0.895   .     S
C400   C401    1.168   .     D
C400   H418    0.898   .     S
C401   C402    1.172   .     S
C401   N408    1.391   .     S
C402   C403    1.355   .     D
C402   H419    0.895   .     S
C403   C404    1.162   .     S
C403   H420    0.902   .     S
C404   N615    1.394   .     S
C405   C406    1.425   .     D
C405   H421    1.042   .     S
C405   C600    1.367   .     S
C406   H422    1.046   .     S
C406   C599    1.350   .     S
C407   N408    1.139   .     D
C407   H423    0.947   .     S
C409   C410    1.357   .     S
C409   C414    1.229   .     D
C409   H424    0.962   .     S
C410   C411    1.249   .     D
C410   H425    0.943   .     S
C411   C412    1.226   .     S
C412   C413    1.359   .     D
C412   H426    0.953   .     S
C413   C414    1.245   .     S
C413   H427    0.944   .     S
C415   C416    1.395   .     D
C415   H428    1.042   .     S
C415   C604    1.348   .     S
C416   H429    1.037   .     S
C416   C603    1.345   .     S
C430   C463    1.379   .     D
C430   S464    1.743   .     S
S431   C463    1.743   .     S
S431   C536    1.808   .     S
C432   C433    1.355   .     D
C432   C437    1.172   .     S
C432   H450    0.895   .     S
C433   C434    1.168   .     S
C433   H451    0.898   .     S
C434   C435    1.172   .     D
C434   N441    1.391   .     S
C435   C436    1.355   .     S
C435   H452    0.895   .     S
C436   C437    1.162   .     D
C436   H453    0.902   .     S
C437   N605    1.394   .     S
C438   C439    1.425   .     D
C438   H454    1.042   .     S
C438   C610    1.367   .     S
C439   H455    1.046   .     S
C439   C609    1.350   .     S
C440   N441    1.139   .     D
C440   H456    0.947   .     S
C442   C443    1.357   .     S
C442   C447    1.229   .     D
C442   H457    0.962   .     S
C443   C444    1.249   .     D
C443   H458    0.943   .     S
C444   C445    1.226   .     S
C445   C446    1.359   .     D
C445   H459    0.953   .     S
C446   C447    1.245   .     S
C446   H460    0.944   .     S
C448   C449    1.395   .     D
C448   H461    1.042   .     S
C448   C614    1.348   .     S
C449   H462    1.037   .     S
C449   C613    1.345   .     S
S464   C536    1.808   .     S
C465   C466    1.355   .     S
C465   C470    1.172   .     D
C465   H483    0.895   .     S
C466   C467    1.168   .     D
C466   H484    0.898   .     S
C467   C468    1.172   .     S
C467   N474    1.391   .     S
C468   C469    1.355   .     D
C468   H485    0.895   .     S
C469   C470    1.162   .     S
C469   H486    0.902   .     S
C470   N595    1.394   .     S
C471   C472    1.425   .     D
C471   H487    1.042   .     S
C471   C580    1.367   .     S
C472   H488    1.046   .     S
C472   C579    1.351   .     S
C473   N474    1.139   .     D
C473   H489    0.947   .     S
C475   C476    1.357   .     S
C475   C480    1.229   .     D
C475   H490    0.962   .     S
C476   C477    1.249   .     D
C476   H491    0.943   .     S
C477   C478    1.226   .     S
C478   C479    1.359   .     D
C478   H492    0.953   .     S
C479   C480    1.245   .     S
C479   H493    0.944   .     S
C481   C482    1.395   .     D
C481   H494    1.042   .     S
C481   C584    1.348   .     S
C482   H495    1.037   .     S
C482   C583    1.345   .     S
S497   C535    1.808   .     S
C498   C499    1.355   .     S
C498   C503    1.172   .     D
C498   H516    0.895   .     S
C499   C500    1.168   .     D
C499   H517    0.898   .     S
C500   C501    1.172   .     S
C500   N507    1.391   .     S
C501   C502    1.355   .     D
C501   H518    0.895   .     S
C502   C503    1.162   .     S
C502   H519    0.902   .     S
C503   N585    1.394   .     S
C504   C505    1.425   .     D
C504   H520    1.042   .     S
C504   C590    1.367   .     S
C505   H521    1.046   .     S
C505   C589    1.350   .     S
C506   N507    1.139   .     D
C506   H522    0.947   .     S
C508   C509    1.357   .     S
C508   C513    1.229   .     D
C508   H523    0.962   .     S
C509   C510    1.249   .     D
C509   H524    0.943   .     S
C510   C511    1.226   .     S
C511   C512    1.359   .     D
C511   H525    0.953   .     S
C512   C513    1.245   .     S
C512   H526    0.944   .     S
C514   C515    1.395   .     D
C514   H527    1.042   .     S
C514   C594    1.348   .     S
C515   H528    1.037   .     S
C515   C593    1.345   .     S
C529   C534    1.277   1_554 D
C530   C533    1.277   1_554 D
C531   C536    1.277   1_556 D
C532   C535    1.277   1_556 D
C533   C530    1.277   1_556 D
C534   C529    1.277   1_556 D
C535   C532    1.277   1_554 D
C536   C531    1.277   1_554 D
S537   C538    1.754   .     S
S537   C617    1.547   .     S
C538   C578    1.042   .     D
C538   C603    1.426   .     S
C539   N542    1.451   .     S
C540   N555    1.483   .     S
C541   N542    1.191   .     D
C541   C544    1.478   .     S
C541   H556    0.859   .     S
C543   C598    1.426   .     S
N545   C550    1.483   .     S
H546   C551    0.859   .     S
S547   C548    1.754   .     S
S547   C618    1.547   .     S
C548   C588    1.042   1_455 D
C548   C613    1.426   .     S
C549   N552    1.451   .     S
C551   N552    1.191   .     D
C551   C554    1.478   .     S
C553   C608    1.426   .     S
S557   C558    1.754   .     S
S557   C619    1.547   .     S
C558   C583    1.426   .     S
C558   C598    1.042   .     D
C559   N562    1.451   .     S
C560   N575    1.483   .     S
C561   N562    1.191   .     D
C561   C564    1.478   .     S
C561   H576    0.859   .     S
C563   C578    1.426   .     S
N565   C570    1.483   .     S
H566   C571    0.859   .     S
S567   C568    1.754   .     S
S567   C620    1.547   1_655 S
C568   C593    1.426   .     S
C568   C608    1.042   1_655 D
C569   N572    1.451   .     S
C571   N572    1.191   .     D
C571   C574    1.478   .     S
C573   C588    1.426   .     S
S577   C578    1.754   .     S
S577   C617    1.547   .     S
C579   N582    1.451   .     S
C580   N595    1.483   .     S
C581   N582    1.191   .     D
C581   C584    1.478   .     S
C581   H596    0.859   .     S
N585   C590    1.483   .     S
H586   C591    0.859   .     S
S587   C588    1.754   .     S
S587   C618    1.547   1_655 S
C588   C548    1.042   1_655 D
C589   N592    1.451   .     S
C591   N592    1.191   .     D
C591   C594    1.478   .     S
S597   C598    1.754   .     S
S597   C619    1.547   .     S
C599   N602    1.451   .     S
C600   N615    1.483   .     S
C601   N602    1.191   .     D
C601   C604    1.478   .     S
C601   H616    0.859   .     S
N605   C610    1.483   .     S
H606   C611    0.859   .     S
S607   C608    1.754   .     S
S607   C620    1.547   .     S
C608   C568    1.042   1_455 D
C609   N612    1.451   .     S
C611   N612    1.191   .     D
C611   C614    1.478   .     S
C617   C619    1.389   1_545 D
C618   S587    1.547   1_455 S
C618   C620    1.389   .     D
C619   C617    1.389   1_565 D
C620   S567    1.547   1_455 S
