data_288
_audit_creation_date              2023-09-08
_audit_creation_method            'Materials Studio'
_symmetry_space_group_name_H-M    'P1'
_symmetry_Int_Tables_number       1
_symmetry_cell_setting            triclinic
loop_
_symmetry_equiv_pos_as_xyz
  x,y,z
_cell_length_a                    86.5862
_cell_length_b                    98.7415
_cell_length_c                    33.7131
_cell_angle_alpha                 90.0000
_cell_angle_beta                  90.0000
_cell_angle_gamma                 90.0000
loop_
_atom_site_label
_atom_site_type_symbol
_atom_site_fract_x
_atom_site_fract_y
_atom_site_fract_z
_atom_site_U_iso_or_equiv
_atom_site_adp_type
_atom_site_occupancy
C1     C     0.27542   0.85476   0.26433   0.00000  Uiso   1.00
C2     C     0.33063   0.84212   0.26372   0.00000  Uiso   1.00
C3     C     0.29539   0.80147   0.26701   0.00000  Uiso   1.00
C4     C     0.28398   0.79156   0.26634   0.00000  Uiso   1.00
S5     S     0.26757   0.76627   0.25037   0.00000  Uiso   1.00
C6     C     0.46311   0.86901   0.48020   0.00000  Uiso   1.00
S7     S     0.48144   0.87006   0.45454   0.00000  Uiso   1.00
C8     C     0.44910   0.85730   0.42665   0.00000  Uiso   1.00
C9     C     0.43701   0.85645   0.39920   0.00000  Uiso   1.00
C10    C     0.42485   0.86581   0.40031   0.00000  Uiso   1.00
C11    C     0.42498   0.87604   0.42911   0.00000  Uiso   1.00
C12    C     0.43718   0.87693   0.45653   0.00000  Uiso   1.00
C13    C     0.44928   0.86747   0.45536   0.00000  Uiso   1.00
N14    N     0.40074   0.87283   0.37044   0.00000  Uiso   1.00
C15    C     0.41276   0.86491   0.37012   0.00000  Uiso   1.00
C16    C     0.37517   0.87932   0.34654   0.00000  Uiso   1.00
C17    C     0.36364   0.87937   0.31716   0.00000  Uiso   1.00
C18    C     0.36604   0.87255   0.28137   0.00000  Uiso   1.00
C19    C     0.38003   0.86566   0.27488   0.00000  Uiso   1.00
C20    C     0.39150   0.86549   0.30429   0.00000  Uiso   1.00
C21    C     0.38912   0.87237   0.34031   0.00000  Uiso   1.00
C22    C     0.17271   0.86832   0.26621   0.00000  Uiso   1.00
C23    C     0.18532   0.85934   0.26704   0.00000  Uiso   1.00
C24    C     0.22298   0.81780   0.25889   0.00000  Uiso   1.00
C25    C     0.23439   0.80762   0.26004   0.00000  Uiso   1.00
C26    C     0.13075   0.96769   0.48012   0.00000  Uiso   1.00
S27    S     0.13116   0.98367   0.45446   0.00000  Uiso   1.00
C28    C     0.11770   0.94753   0.45089   0.00000  Uiso   1.00
C29    C     0.11757   0.93652   0.42486   0.00000  Uiso   1.00
C30    C     0.13085   0.93325   0.40342   0.00000  Uiso   1.00
C31    C     0.14432   0.94108   0.40878   0.00000  Uiso   1.00
C32    C     0.14445   0.95208   0.43481   0.00000  Uiso   1.00
C33    C     0.13116   0.95533   0.45625   0.00000  Uiso   1.00
N34    N     0.14202   0.91904   0.35270   0.00000  Uiso   1.00
C35    C     0.13063   0.92156   0.37665   0.00000  Uiso   1.00
C36    C     0.13084   0.89757   0.32717   0.00000  Uiso   1.00
C37    C     0.13186   0.88641   0.30164   0.00000  Uiso   1.00
C38    C     0.14444   0.88501   0.27561   0.00000  Uiso   1.00
C39    C     0.15595   0.89502   0.27500   0.00000  Uiso   1.00
C40    C     0.15499   0.90620   0.30025   0.00000  Uiso   1.00
C41    C     0.14247   0.90762   0.32658   0.00000  Uiso   1.00
N42    N     0.35473   0.12644   0.74953   0.00000  Uiso   1.00
C43    C     0.31625   0.84618   0.24766   0.00000  Uiso   1.00
C44    C     0.34162   0.86439   0.25013   0.00000  Uiso   1.00
C45    C     0.30483   0.82436   0.25574   0.00000  Uiso   1.00
N46    N     0.30326   0.83706   0.24584   0.00000  Uiso   1.00
C47    C     0.26886   0.79431   0.25282   0.00000  Uiso   1.00
C48    C     0.29211   0.81462   0.25455   0.00000  Uiso   1.00
C49    C     0.25787   0.78261   0.25084   0.00000  Uiso   1.00
H50    H     0.35467   0.84778   0.27798   0.00000  Uiso   1.00
H51    H     0.33200   0.83140   0.27576   0.00000  Uiso   1.00
H52    H     0.30751   0.79886   0.27779   0.00000  Uiso   1.00
H53    H     0.28671   0.78086   0.27691   0.00000  Uiso   1.00
H54    H     0.45893   0.84962   0.42569   0.00000  Uiso   1.00
H55    H     0.43703   0.84813   0.37578   0.00000  Uiso   1.00
H56    H     0.41515   0.88370   0.43043   0.00000  Uiso   1.00
H57    H     0.43724   0.88533   0.47972   0.00000  Uiso   1.00
H58    H     0.41369   0.85709   0.34535   0.00000  Uiso   1.00
H59    H     0.37323   0.88494   0.37565   0.00000  Uiso   1.00
H60    H     0.35232   0.88498   0.32253   0.00000  Uiso   1.00
H61    H     0.38210   0.86017   0.24560   0.00000  Uiso   1.00
H62    H     0.40275   0.85977   0.29900   0.00000  Uiso   1.00
H63    H     0.31681   0.82097   0.26567   0.00000  Uiso   1.00
H64    H     0.17396   0.87896   0.27887   0.00000  Uiso   1.00
H65    H     0.19687   0.86279   0.27974   0.00000  Uiso   1.00
H66    H     0.22589   0.82854   0.26875   0.00000  Uiso   1.00
H67    H     0.24646   0.81007   0.27147   0.00000  Uiso   1.00
H68    H     0.10682   0.95030   0.46812   0.00000  Uiso   1.00
H69    H     0.10664   0.93021   0.42117   0.00000  Uiso   1.00
H70    H     0.15529   0.93846   0.39174   0.00000  Uiso   1.00
H71    H     0.15538   0.95838   0.43852   0.00000  Uiso   1.00
H72    H     0.12028   0.91442   0.37652   0.00000  Uiso   1.00
H73    H     0.12064   0.89855   0.34837   0.00000  Uiso   1.00
H74    H     0.12243   0.87835   0.30186   0.00000  Uiso   1.00
H75    H     0.16615   0.89405   0.25382   0.00000  Uiso   1.00
H76    H     0.16439   0.91428   0.29966   0.00000  Uiso   1.00
C77    C     0.27542   0.35476   0.76433   0.00000  Uiso   1.00
C78    C     0.33063   0.34212   0.76372   0.00000  Uiso   1.00
C79    C     0.29539   0.30147   0.76701   0.00000  Uiso   1.00
C80    C     0.28398   0.29156   0.76634   0.00000  Uiso   1.00
S81    S     0.26757   0.26627   0.75037   0.00000  Uiso   1.00
C82    C     0.46311   0.36901   0.98020   0.00000  Uiso   1.00
S83    S     0.48144   0.37006   0.95454   0.00000  Uiso   1.00
C84    C     0.44910   0.35730   0.92665   0.00000  Uiso   1.00
C85    C     0.43701   0.35645   0.89920   0.00000  Uiso   1.00
C86    C     0.42485   0.36581   0.90031   0.00000  Uiso   1.00
C87    C     0.42498   0.37604   0.92911   0.00000  Uiso   1.00
C88    C     0.43718   0.37693   0.95653   0.00000  Uiso   1.00
C89    C     0.44928   0.36747   0.95536   0.00000  Uiso   1.00
N90    N     0.40074   0.37283   0.87044   0.00000  Uiso   1.00
C91    C     0.41276   0.36491   0.87012   0.00000  Uiso   1.00
C92    C     0.37517   0.37932   0.84654   0.00000  Uiso   1.00
C93    C     0.36364   0.37937   0.81716   0.00000  Uiso   1.00
C94    C     0.36604   0.37255   0.78137   0.00000  Uiso   1.00
C95    C     0.38003   0.36566   0.77488   0.00000  Uiso   1.00
C96    C     0.39150   0.36549   0.80429   0.00000  Uiso   1.00
C97    C     0.38912   0.37237   0.84031   0.00000  Uiso   1.00
C98    C     0.17271   0.36832   0.76621   0.00000  Uiso   1.00
C99    C     0.18532   0.35934   0.76704   0.00000  Uiso   1.00
C100   C     0.22298   0.31780   0.75889   0.00000  Uiso   1.00
C101   C     0.23439   0.30762   0.76004   0.00000  Uiso   1.00
C102   C     0.13075   0.46769   0.98012   0.00000  Uiso   1.00
S103   S     0.13116   0.48367   0.95446   0.00000  Uiso   1.00
C104   C     0.11770   0.44753   0.95089   0.00000  Uiso   1.00
C105   C     0.11757   0.43652   0.92486   0.00000  Uiso   1.00
C106   C     0.13085   0.43325   0.90342   0.00000  Uiso   1.00
C107   C     0.14432   0.44108   0.90878   0.00000  Uiso   1.00
C108   C     0.14445   0.45208   0.93481   0.00000  Uiso   1.00
C109   C     0.13116   0.45533   0.95625   0.00000  Uiso   1.00
N110   N     0.14202   0.41904   0.85270   0.00000  Uiso   1.00
C111   C     0.13063   0.42156   0.87665   0.00000  Uiso   1.00
C112   C     0.13084   0.39757   0.82717   0.00000  Uiso   1.00
C113   C     0.13186   0.38641   0.80164   0.00000  Uiso   1.00
C114   C     0.14444   0.38501   0.77561   0.00000  Uiso   1.00
C115   C     0.15595   0.39502   0.77500   0.00000  Uiso   1.00
C116   C     0.15499   0.40620   0.80025   0.00000  Uiso   1.00
C117   C     0.14247   0.40762   0.82658   0.00000  Uiso   1.00
N118   N     0.35473   0.62644   0.24953   0.00000  Uiso   1.00
C119   C     0.31625   0.34618   0.74766   0.00000  Uiso   1.00
C120   C     0.34162   0.36439   0.75013   0.00000  Uiso   1.00
C121   C     0.30483   0.32436   0.75574   0.00000  Uiso   1.00
N122   N     0.30326   0.33706   0.74584   0.00000  Uiso   1.00
C123   C     0.26886   0.29431   0.75282   0.00000  Uiso   1.00
C124   C     0.29211   0.31462   0.75455   0.00000  Uiso   1.00
C125   C     0.25787   0.28261   0.75084   0.00000  Uiso   1.00
H126   H     0.35467   0.34778   0.77798   0.00000  Uiso   1.00
H127   H     0.33200   0.33140   0.77576   0.00000  Uiso   1.00
H128   H     0.30751   0.29886   0.77779   0.00000  Uiso   1.00
H129   H     0.28671   0.28086   0.77691   0.00000  Uiso   1.00
H130   H     0.45893   0.34962   0.92569   0.00000  Uiso   1.00
H131   H     0.43703   0.34813   0.87578   0.00000  Uiso   1.00
H132   H     0.41515   0.38370   0.93043   0.00000  Uiso   1.00
H133   H     0.43724   0.38533   0.97972   0.00000  Uiso   1.00
H134   H     0.41369   0.35709   0.84535   0.00000  Uiso   1.00
H135   H     0.37323   0.38494   0.87565   0.00000  Uiso   1.00
H136   H     0.35232   0.38498   0.82253   0.00000  Uiso   1.00
H137   H     0.38210   0.36017   0.74560   0.00000  Uiso   1.00
H138   H     0.40275   0.35977   0.79900   0.00000  Uiso   1.00
H139   H     0.31681   0.32097   0.76567   0.00000  Uiso   1.00
H140   H     0.17396   0.37896   0.77887   0.00000  Uiso   1.00
H141   H     0.19687   0.36279   0.77974   0.00000  Uiso   1.00
H142   H     0.22589   0.32854   0.76875   0.00000  Uiso   1.00
H143   H     0.24646   0.31007   0.77147   0.00000  Uiso   1.00
H144   H     0.10682   0.45030   0.96812   0.00000  Uiso   1.00
H145   H     0.10664   0.43021   0.92117   0.00000  Uiso   1.00
H146   H     0.15529   0.43846   0.89174   0.00000  Uiso   1.00
H147   H     0.15538   0.45838   0.93852   0.00000  Uiso   1.00
H148   H     0.12028   0.41442   0.87652   0.00000  Uiso   1.00
H149   H     0.12064   0.39855   0.84837   0.00000  Uiso   1.00
H150   H     0.12243   0.37835   0.80186   0.00000  Uiso   1.00
H151   H     0.16615   0.39405   0.75382   0.00000  Uiso   1.00
H152   H     0.16439   0.41428   0.79966   0.00000  Uiso   1.00
C153   C     0.77542   0.85476   0.76433   0.00000  Uiso   1.00
C154   C     0.83063   0.84212   0.76372   0.00000  Uiso   1.00
C155   C     0.79539   0.80147   0.76701   0.00000  Uiso   1.00
C156   C     0.78398   0.79156   0.76634   0.00000  Uiso   1.00
S157   S     0.76757   0.76627   0.75037   0.00000  Uiso   1.00
C158   C     0.96311   0.86901   0.98020   0.00000  Uiso   1.00
S159   S     0.98144   0.87006   0.95454   0.00000  Uiso   1.00
C160   C     0.94910   0.85730   0.92665   0.00000  Uiso   1.00
C161   C     0.93701   0.85645   0.89920   0.00000  Uiso   1.00
C162   C     0.92485   0.86581   0.90031   0.00000  Uiso   1.00
C163   C     0.92498   0.87604   0.92911   0.00000  Uiso   1.00
C164   C     0.93718   0.87693   0.95653   0.00000  Uiso   1.00
C165   C     0.94928   0.86747   0.95536   0.00000  Uiso   1.00
N166   N     0.90074   0.87283   0.87044   0.00000  Uiso   1.00
C167   C     0.91276   0.86491   0.87012   0.00000  Uiso   1.00
C168   C     0.87517   0.87932   0.84654   0.00000  Uiso   1.00
C169   C     0.86364   0.87937   0.81716   0.00000  Uiso   1.00
C170   C     0.86604   0.87255   0.78137   0.00000  Uiso   1.00
C171   C     0.88003   0.86566   0.77488   0.00000  Uiso   1.00
C172   C     0.89150   0.86549   0.80429   0.00000  Uiso   1.00
C173   C     0.88912   0.87237   0.84031   0.00000  Uiso   1.00
C174   C     0.67271   0.86832   0.76621   0.00000  Uiso   1.00
C175   C     0.68532   0.85934   0.76704   0.00000  Uiso   1.00
C176   C     0.72298   0.81780   0.75889   0.00000  Uiso   1.00
C177   C     0.73439   0.80762   0.76004   0.00000  Uiso   1.00
C178   C     0.63075   0.96769   0.98012   0.00000  Uiso   1.00
S179   S     0.63116   0.98367   0.95446   0.00000  Uiso   1.00
C180   C     0.61770   0.94753   0.95089   0.00000  Uiso   1.00
C181   C     0.61757   0.93652   0.92486   0.00000  Uiso   1.00
C182   C     0.63085   0.93325   0.90342   0.00000  Uiso   1.00
C183   C     0.64432   0.94108   0.90878   0.00000  Uiso   1.00
C184   C     0.64445   0.95208   0.93481   0.00000  Uiso   1.00
C185   C     0.63116   0.95533   0.95625   0.00000  Uiso   1.00
N186   N     0.64202   0.91904   0.85270   0.00000  Uiso   1.00
C187   C     0.63063   0.92156   0.87665   0.00000  Uiso   1.00
C188   C     0.63084   0.89757   0.82717   0.00000  Uiso   1.00
C189   C     0.63186   0.88641   0.80164   0.00000  Uiso   1.00
C190   C     0.64444   0.88501   0.77561   0.00000  Uiso   1.00
C191   C     0.65595   0.89502   0.77500   0.00000  Uiso   1.00
C192   C     0.65499   0.90620   0.80025   0.00000  Uiso   1.00
C193   C     0.64247   0.90762   0.82658   0.00000  Uiso   1.00
N194   N     0.85473   0.12644   0.24953   0.00000  Uiso   1.00
C195   C     0.81625   0.84618   0.74766   0.00000  Uiso   1.00
C196   C     0.84162   0.86439   0.75013   0.00000  Uiso   1.00
C197   C     0.80483   0.82436   0.75574   0.00000  Uiso   1.00
N198   N     0.80326   0.83706   0.74584   0.00000  Uiso   1.00
C199   C     0.76886   0.79431   0.75282   0.00000  Uiso   1.00
C200   C     0.79211   0.81462   0.75455   0.00000  Uiso   1.00
C201   C     0.75787   0.78261   0.75084   0.00000  Uiso   1.00
H202   H     0.85467   0.84778   0.77798   0.00000  Uiso   1.00
H203   H     0.83200   0.83140   0.77576   0.00000  Uiso   1.00
H204   H     0.80751   0.79886   0.77779   0.00000  Uiso   1.00
H205   H     0.78671   0.78086   0.77691   0.00000  Uiso   1.00
H206   H     0.95893   0.84962   0.92569   0.00000  Uiso   1.00
H207   H     0.93703   0.84813   0.87578   0.00000  Uiso   1.00
H208   H     0.91515   0.88370   0.93043   0.00000  Uiso   1.00
H209   H     0.93724   0.88533   0.97972   0.00000  Uiso   1.00
H210   H     0.91369   0.85709   0.84535   0.00000  Uiso   1.00
H211   H     0.87323   0.88494   0.87565   0.00000  Uiso   1.00
H212   H     0.85232   0.88498   0.82253   0.00000  Uiso   1.00
H213   H     0.88210   0.86017   0.74560   0.00000  Uiso   1.00
H214   H     0.90275   0.85977   0.79900   0.00000  Uiso   1.00
H215   H     0.81681   0.82097   0.76567   0.00000  Uiso   1.00
H216   H     0.67396   0.87896   0.77887   0.00000  Uiso   1.00
H217   H     0.69687   0.86279   0.77974   0.00000  Uiso   1.00
H218   H     0.72589   0.82854   0.76875   0.00000  Uiso   1.00
H219   H     0.74646   0.81007   0.77147   0.00000  Uiso   1.00
H220   H     0.60682   0.95030   0.96812   0.00000  Uiso   1.00
H221   H     0.60664   0.93021   0.92117   0.00000  Uiso   1.00
H222   H     0.65529   0.93846   0.89174   0.00000  Uiso   1.00
H223   H     0.65538   0.95838   0.93852   0.00000  Uiso   1.00
H224   H     0.62028   0.91442   0.87652   0.00000  Uiso   1.00
H225   H     0.62064   0.89855   0.84837   0.00000  Uiso   1.00
H226   H     0.62243   0.87835   0.80186   0.00000  Uiso   1.00
H227   H     0.66615   0.89405   0.75382   0.00000  Uiso   1.00
H228   H     0.66439   0.91428   0.79966   0.00000  Uiso   1.00
C229   C     0.77542   0.35476   0.26433   0.00000  Uiso   1.00
C230   C     0.83063   0.34212   0.26372   0.00000  Uiso   1.00
C231   C     0.79539   0.30147   0.26701   0.00000  Uiso   1.00
C232   C     0.78398   0.29156   0.26634   0.00000  Uiso   1.00
S233   S     0.76757   0.26627   0.25037   0.00000  Uiso   1.00
C234   C     0.96311   0.36901   0.48020   0.00000  Uiso   1.00
S235   S     0.98144   0.37006   0.45454   0.00000  Uiso   1.00
C236   C     0.94910   0.35730   0.42665   0.00000  Uiso   1.00
C237   C     0.93701   0.35645   0.39920   0.00000  Uiso   1.00
C238   C     0.92485   0.36581   0.40031   0.00000  Uiso   1.00
C239   C     0.92498   0.37604   0.42911   0.00000  Uiso   1.00
C240   C     0.93718   0.37693   0.45653   0.00000  Uiso   1.00
C241   C     0.94928   0.36747   0.45536   0.00000  Uiso   1.00
N242   N     0.90074   0.37283   0.37044   0.00000  Uiso   1.00
C243   C     0.91276   0.36491   0.37012   0.00000  Uiso   1.00
C244   C     0.87517   0.37932   0.34654   0.00000  Uiso   1.00
C245   C     0.86364   0.37937   0.31716   0.00000  Uiso   1.00
C246   C     0.86604   0.37255   0.28137   0.00000  Uiso   1.00
C247   C     0.88003   0.36566   0.27488   0.00000  Uiso   1.00
C248   C     0.89150   0.36549   0.30429   0.00000  Uiso   1.00
C249   C     0.88912   0.37237   0.34031   0.00000  Uiso   1.00
C250   C     0.67271   0.36832   0.26621   0.00000  Uiso   1.00
C251   C     0.68532   0.35934   0.26704   0.00000  Uiso   1.00
C252   C     0.72298   0.31780   0.25889   0.00000  Uiso   1.00
C253   C     0.73439   0.30762   0.26004   0.00000  Uiso   1.00
C254   C     0.63075   0.46769   0.48012   0.00000  Uiso   1.00
S255   S     0.63116   0.48367   0.45446   0.00000  Uiso   1.00
C256   C     0.61770   0.44753   0.45089   0.00000  Uiso   1.00
C257   C     0.61757   0.43652   0.42486   0.00000  Uiso   1.00
C258   C     0.63085   0.43325   0.40342   0.00000  Uiso   1.00
C259   C     0.64432   0.44108   0.40878   0.00000  Uiso   1.00
C260   C     0.64445   0.45208   0.43481   0.00000  Uiso   1.00
C261   C     0.63116   0.45533   0.45625   0.00000  Uiso   1.00
N262   N     0.64202   0.41904   0.35270   0.00000  Uiso   1.00
C263   C     0.63063   0.42156   0.37665   0.00000  Uiso   1.00
C264   C     0.63084   0.39757   0.32717   0.00000  Uiso   1.00
C265   C     0.63186   0.38641   0.30164   0.00000  Uiso   1.00
C266   C     0.64444   0.38501   0.27561   0.00000  Uiso   1.00
C267   C     0.65595   0.39502   0.27500   0.00000  Uiso   1.00
C268   C     0.65499   0.40620   0.30025   0.00000  Uiso   1.00
C269   C     0.64247   0.40762   0.32658   0.00000  Uiso   1.00
N270   N     0.85473   0.62644   0.74953   0.00000  Uiso   1.00
C271   C     0.81625   0.34618   0.24766   0.00000  Uiso   1.00
C272   C     0.84162   0.36439   0.25013   0.00000  Uiso   1.00
C273   C     0.80483   0.32436   0.25574   0.00000  Uiso   1.00
N274   N     0.80326   0.33706   0.24584   0.00000  Uiso   1.00
C275   C     0.76886   0.29431   0.25282   0.00000  Uiso   1.00
C276   C     0.79211   0.31462   0.25455   0.00000  Uiso   1.00
C277   C     0.75787   0.28261   0.25084   0.00000  Uiso   1.00
H278   H     0.85467   0.34778   0.27798   0.00000  Uiso   1.00
H279   H     0.83200   0.33140   0.27576   0.00000  Uiso   1.00
H280   H     0.80751   0.29886   0.27779   0.00000  Uiso   1.00
H281   H     0.78671   0.28086   0.27691   0.00000  Uiso   1.00
H282   H     0.95893   0.34962   0.42569   0.00000  Uiso   1.00
H283   H     0.93703   0.34813   0.37578   0.00000  Uiso   1.00
H284   H     0.91515   0.38370   0.43043   0.00000  Uiso   1.00
H285   H     0.93724   0.38533   0.47972   0.00000  Uiso   1.00
H286   H     0.91369   0.35709   0.34535   0.00000  Uiso   1.00
H287   H     0.87323   0.38494   0.37565   0.00000  Uiso   1.00
H288   H     0.85232   0.38498   0.32253   0.00000  Uiso   1.00
H289   H     0.88210   0.36017   0.24560   0.00000  Uiso   1.00
H290   H     0.90275   0.35977   0.29900   0.00000  Uiso   1.00
H291   H     0.81681   0.32097   0.26567   0.00000  Uiso   1.00
H292   H     0.67396   0.37896   0.27887   0.00000  Uiso   1.00
H293   H     0.69687   0.36279   0.27974   0.00000  Uiso   1.00
H294   H     0.72589   0.32854   0.26875   0.00000  Uiso   1.00
H295   H     0.74646   0.31007   0.27147   0.00000  Uiso   1.00
H296   H     0.60682   0.45030   0.46812   0.00000  Uiso   1.00
H297   H     0.60664   0.43021   0.42117   0.00000  Uiso   1.00
H298   H     0.65529   0.43846   0.39174   0.00000  Uiso   1.00
H299   H     0.65538   0.45838   0.43852   0.00000  Uiso   1.00
H300   H     0.62028   0.41442   0.37652   0.00000  Uiso   1.00
H301   H     0.62064   0.39855   0.34837   0.00000  Uiso   1.00
H302   H     0.62243   0.37835   0.30186   0.00000  Uiso   1.00
H303   H     0.66615   0.39405   0.25382   0.00000  Uiso   1.00
H304   H     0.66439   0.41428   0.29966   0.00000  Uiso   1.00
C305   C     0.72458   0.14524   0.26433   0.00000  Uiso   1.00
C306   C     0.66937   0.15788   0.26372   0.00000  Uiso   1.00
C307   C     0.70461   0.19853   0.26701   0.00000  Uiso   1.00
C308   C     0.71602   0.20844   0.26634   0.00000  Uiso   1.00
S309   S     0.73243   0.23373   0.25037   0.00000  Uiso   1.00
C310   C     0.53689   0.13099   0.48020   0.00000  Uiso   1.00
S311   S     0.51856   0.12994   0.45454   0.00000  Uiso   1.00
C312   C     0.55090   0.14270   0.42665   0.00000  Uiso   1.00
C313   C     0.56299   0.14355   0.39920   0.00000  Uiso   1.00
C314   C     0.57515   0.13419   0.40031   0.00000  Uiso   1.00
C315   C     0.57502   0.12396   0.42911   0.00000  Uiso   1.00
C316   C     0.56282   0.12307   0.45653   0.00000  Uiso   1.00
C317   C     0.55072   0.13253   0.45536   0.00000  Uiso   1.00
N318   N     0.59926   0.12717   0.37044   0.00000  Uiso   1.00
C319   C     0.58724   0.13509   0.37012   0.00000  Uiso   1.00
C320   C     0.62483   0.12068   0.34654   0.00000  Uiso   1.00
C321   C     0.63636   0.12063   0.31716   0.00000  Uiso   1.00
C322   C     0.63396   0.12745   0.28137   0.00000  Uiso   1.00
C323   C     0.61997   0.13434   0.27488   0.00000  Uiso   1.00
C324   C     0.60850   0.13451   0.30429   0.00000  Uiso   1.00
C325   C     0.61088   0.12763   0.34031   0.00000  Uiso   1.00
C326   C     0.82729   0.13168   0.26621   0.00000  Uiso   1.00
C327   C     0.81468   0.14066   0.26704   0.00000  Uiso   1.00
C328   C     0.77702   0.18220   0.25889   0.00000  Uiso   1.00
C329   C     0.76561   0.19238   0.26004   0.00000  Uiso   1.00
C330   C     0.86925   0.03231   0.48012   0.00000  Uiso   1.00
S331   S     0.86884   0.01633   0.45446   0.00000  Uiso   1.00
C332   C     0.88230   0.05247   0.45089   0.00000  Uiso   1.00
C333   C     0.88243   0.06348   0.42486   0.00000  Uiso   1.00
C334   C     0.86915   0.06675   0.40342   0.00000  Uiso   1.00
C335   C     0.85568   0.05892   0.40878   0.00000  Uiso   1.00
C336   C     0.85555   0.04792   0.43481   0.00000  Uiso   1.00
C337   C     0.86884   0.04467   0.45625   0.00000  Uiso   1.00
N338   N     0.85798   0.08096   0.35270   0.00000  Uiso   1.00
C339   C     0.86937   0.07844   0.37665   0.00000  Uiso   1.00
C340   C     0.86916   0.10243   0.32717   0.00000  Uiso   1.00
C341   C     0.86814   0.11359   0.30164   0.00000  Uiso   1.00
C342   C     0.85556   0.11499   0.27561   0.00000  Uiso   1.00
C343   C     0.84405   0.10498   0.27500   0.00000  Uiso   1.00
C344   C     0.84501   0.09380   0.30025   0.00000  Uiso   1.00
C345   C     0.85753   0.09238   0.32658   0.00000  Uiso   1.00
N346   N     0.64527   0.87356   0.74953   0.00000  Uiso   1.00
C347   C     0.68375   0.15382   0.24766   0.00000  Uiso   1.00
C348   C     0.65838   0.13561   0.25013   0.00000  Uiso   1.00
C349   C     0.69517   0.17564   0.25574   0.00000  Uiso   1.00
N350   N     0.69674   0.16294   0.24584   0.00000  Uiso   1.00
C351   C     0.73114   0.20569   0.25282   0.00000  Uiso   1.00
C352   C     0.70789   0.18538   0.25455   0.00000  Uiso   1.00
C353   C     0.74213   0.21739   0.25084   0.00000  Uiso   1.00
H354   H     0.64533   0.15222   0.27798   0.00000  Uiso   1.00
H355   H     0.66800   0.16860   0.27576   0.00000  Uiso   1.00
H356   H     0.69249   0.20114   0.27779   0.00000  Uiso   1.00
H357   H     0.71329   0.21914   0.27691   0.00000  Uiso   1.00
H358   H     0.54107   0.15038   0.42569   0.00000  Uiso   1.00
H359   H     0.56297   0.15187   0.37578   0.00000  Uiso   1.00
H360   H     0.58485   0.11630   0.43043   0.00000  Uiso   1.00
H361   H     0.56276   0.11467   0.47972   0.00000  Uiso   1.00
H362   H     0.58631   0.14291   0.34535   0.00000  Uiso   1.00
H363   H     0.62677   0.11506   0.37565   0.00000  Uiso   1.00
H364   H     0.64768   0.11502   0.32253   0.00000  Uiso   1.00
H365   H     0.61790   0.13983   0.24560   0.00000  Uiso   1.00
H366   H     0.59725   0.14023   0.29900   0.00000  Uiso   1.00
H367   H     0.68319   0.17903   0.26567   0.00000  Uiso   1.00
H368   H     0.82604   0.12104   0.27887   0.00000  Uiso   1.00
H369   H     0.80313   0.13721   0.27974   0.00000  Uiso   1.00
H370   H     0.77411   0.17146   0.26875   0.00000  Uiso   1.00
H371   H     0.75354   0.18993   0.27147   0.00000  Uiso   1.00
H372   H     0.89318   0.04970   0.46812   0.00000  Uiso   1.00
H373   H     0.89336   0.06979   0.42117   0.00000  Uiso   1.00
H374   H     0.84471   0.06154   0.39174   0.00000  Uiso   1.00
H375   H     0.84462   0.04162   0.43852   0.00000  Uiso   1.00
H376   H     0.87972   0.08558   0.37652   0.00000  Uiso   1.00
H377   H     0.87936   0.10145   0.34837   0.00000  Uiso   1.00
H378   H     0.87757   0.12165   0.30186   0.00000  Uiso   1.00
H379   H     0.83385   0.10595   0.25382   0.00000  Uiso   1.00
H380   H     0.83561   0.08572   0.29966   0.00000  Uiso   1.00
C381   C     0.72458   0.64524   0.76433   0.00000  Uiso   1.00
C382   C     0.66937   0.65788   0.76372   0.00000  Uiso   1.00
C383   C     0.70461   0.69853   0.76701   0.00000  Uiso   1.00
C384   C     0.71602   0.70844   0.76634   0.00000  Uiso   1.00
S385   S     0.73243   0.73373   0.75037   0.00000  Uiso   1.00
C386   C     0.53689   0.63099   0.98020   0.00000  Uiso   1.00
S387   S     0.51856   0.62994   0.95454   0.00000  Uiso   1.00
C388   C     0.55090   0.64270   0.92665   0.00000  Uiso   1.00
C389   C     0.56299   0.64355   0.89920   0.00000  Uiso   1.00
C390   C     0.57515   0.63419   0.90031   0.00000  Uiso   1.00
C391   C     0.57502   0.62396   0.92911   0.00000  Uiso   1.00
C392   C     0.56282   0.62307   0.95653   0.00000  Uiso   1.00
C393   C     0.55072   0.63253   0.95536   0.00000  Uiso   1.00
N394   N     0.59926   0.62717   0.87044   0.00000  Uiso   1.00
C395   C     0.58724   0.63509   0.87012   0.00000  Uiso   1.00
C396   C     0.62483   0.62068   0.84654   0.00000  Uiso   1.00
C397   C     0.63636   0.62063   0.81716   0.00000  Uiso   1.00
C398   C     0.63396   0.62745   0.78137   0.00000  Uiso   1.00
C399   C     0.61997   0.63434   0.77488   0.00000  Uiso   1.00
C400   C     0.60850   0.63451   0.80429   0.00000  Uiso   1.00
C401   C     0.61088   0.62763   0.84031   0.00000  Uiso   1.00
C402   C     0.82729   0.63168   0.76621   0.00000  Uiso   1.00
C403   C     0.81468   0.64066   0.76704   0.00000  Uiso   1.00
C404   C     0.77702   0.68220   0.75889   0.00000  Uiso   1.00
C405   C     0.76561   0.69238   0.76004   0.00000  Uiso   1.00
C406   C     0.86925   0.53231   0.98012   0.00000  Uiso   1.00
S407   S     0.86884   0.51633   0.95446   0.00000  Uiso   1.00
C408   C     0.88230   0.55247   0.95089   0.00000  Uiso   1.00
C409   C     0.88243   0.56348   0.92486   0.00000  Uiso   1.00
C410   C     0.86915   0.56675   0.90342   0.00000  Uiso   1.00
C411   C     0.85568   0.55892   0.90878   0.00000  Uiso   1.00
C412   C     0.85555   0.54792   0.93481   0.00000  Uiso   1.00
C413   C     0.86884   0.54467   0.95625   0.00000  Uiso   1.00
N414   N     0.85798   0.58096   0.85270   0.00000  Uiso   1.00
C415   C     0.86937   0.57844   0.87665   0.00000  Uiso   1.00
C416   C     0.86916   0.60243   0.82717   0.00000  Uiso   1.00
C417   C     0.86814   0.61359   0.80164   0.00000  Uiso   1.00
C418   C     0.85556   0.61499   0.77561   0.00000  Uiso   1.00
C419   C     0.84405   0.60498   0.77500   0.00000  Uiso   1.00
C420   C     0.84501   0.59380   0.80025   0.00000  Uiso   1.00
C421   C     0.85753   0.59238   0.82658   0.00000  Uiso   1.00
N422   N     0.64527   0.37356   0.24953   0.00000  Uiso   1.00
C423   C     0.68375   0.65382   0.74766   0.00000  Uiso   1.00
C424   C     0.65838   0.63561   0.75013   0.00000  Uiso   1.00
C425   C     0.69517   0.67564   0.75574   0.00000  Uiso   1.00
N426   N     0.69674   0.66294   0.74584   0.00000  Uiso   1.00
C427   C     0.73114   0.70569   0.75282   0.00000  Uiso   1.00
C428   C     0.70789   0.68538   0.75455   0.00000  Uiso   1.00
C429   C     0.74213   0.71739   0.75084   0.00000  Uiso   1.00
H430   H     0.64533   0.65222   0.77798   0.00000  Uiso   1.00
H431   H     0.66800   0.66860   0.77576   0.00000  Uiso   1.00
H432   H     0.69249   0.70114   0.77779   0.00000  Uiso   1.00
H433   H     0.71329   0.71914   0.77691   0.00000  Uiso   1.00
H434   H     0.54107   0.65038   0.92569   0.00000  Uiso   1.00
H435   H     0.56297   0.65187   0.87578   0.00000  Uiso   1.00
H436   H     0.58485   0.61630   0.93043   0.00000  Uiso   1.00
H437   H     0.56276   0.61467   0.97972   0.00000  Uiso   1.00
H438   H     0.58631   0.64291   0.84535   0.00000  Uiso   1.00
H439   H     0.62677   0.61506   0.87565   0.00000  Uiso   1.00
H440   H     0.64768   0.61502   0.82253   0.00000  Uiso   1.00
H441   H     0.61790   0.63983   0.74560   0.00000  Uiso   1.00
H442   H     0.59725   0.64023   0.79900   0.00000  Uiso   1.00
H443   H     0.68319   0.67903   0.76567   0.00000  Uiso   1.00
H444   H     0.82604   0.62104   0.77887   0.00000  Uiso   1.00
H445   H     0.80313   0.63721   0.77974   0.00000  Uiso   1.00
H446   H     0.77411   0.67146   0.76875   0.00000  Uiso   1.00
H447   H     0.75354   0.68993   0.77147   0.00000  Uiso   1.00
H448   H     0.89318   0.54970   0.96812   0.00000  Uiso   1.00
H449   H     0.89336   0.56979   0.92117   0.00000  Uiso   1.00
H450   H     0.84471   0.56154   0.89174   0.00000  Uiso   1.00
H451   H     0.84462   0.54162   0.93852   0.00000  Uiso   1.00
H452   H     0.87972   0.58558   0.87652   0.00000  Uiso   1.00
H453   H     0.87936   0.60145   0.84837   0.00000  Uiso   1.00
H454   H     0.87757   0.62165   0.80186   0.00000  Uiso   1.00
H455   H     0.83385   0.60595   0.75382   0.00000  Uiso   1.00
H456   H     0.83561   0.58572   0.79966   0.00000  Uiso   1.00
C457   C     0.22458   0.14524   0.76433   0.00000  Uiso   1.00
C458   C     0.16937   0.15788   0.76372   0.00000  Uiso   1.00
C459   C     0.20461   0.19853   0.76701   0.00000  Uiso   1.00
C460   C     0.21602   0.20844   0.76634   0.00000  Uiso   1.00
S461   S     0.23243   0.23373   0.75037   0.00000  Uiso   1.00
C462   C     0.03689   0.13099   0.98020   0.00000  Uiso   1.00
S463   S     0.01856   0.12994   0.95454   0.00000  Uiso   1.00
C464   C     0.05090   0.14270   0.92665   0.00000  Uiso   1.00
C465   C     0.06299   0.14355   0.89920   0.00000  Uiso   1.00
C466   C     0.07515   0.13419   0.90031   0.00000  Uiso   1.00
C467   C     0.07502   0.12396   0.92911   0.00000  Uiso   1.00
C468   C     0.06282   0.12307   0.95653   0.00000  Uiso   1.00
C469   C     0.05072   0.13253   0.95536   0.00000  Uiso   1.00
N470   N     0.09926   0.12717   0.87044   0.00000  Uiso   1.00
C471   C     0.08724   0.13509   0.87012   0.00000  Uiso   1.00
C472   C     0.12483   0.12068   0.84654   0.00000  Uiso   1.00
C473   C     0.13636   0.12063   0.81716   0.00000  Uiso   1.00
C474   C     0.13396   0.12745   0.78137   0.00000  Uiso   1.00
C475   C     0.11997   0.13434   0.77488   0.00000  Uiso   1.00
C476   C     0.10850   0.13451   0.80429   0.00000  Uiso   1.00
C477   C     0.11088   0.12763   0.84031   0.00000  Uiso   1.00
C478   C     0.32729   0.13168   0.76621   0.00000  Uiso   1.00
C479   C     0.31468   0.14066   0.76704   0.00000  Uiso   1.00
C480   C     0.27702   0.18220   0.75889   0.00000  Uiso   1.00
C481   C     0.26561   0.19238   0.76004   0.00000  Uiso   1.00
C482   C     0.36925   0.03231   0.98012   0.00000  Uiso   1.00
S483   S     0.36884   0.01633   0.95446   0.00000  Uiso   1.00
C484   C     0.38230   0.05247   0.95089   0.00000  Uiso   1.00
C485   C     0.38243   0.06348   0.92486   0.00000  Uiso   1.00
C486   C     0.36915   0.06675   0.90342   0.00000  Uiso   1.00
C487   C     0.35568   0.05892   0.90878   0.00000  Uiso   1.00
C488   C     0.35555   0.04792   0.93481   0.00000  Uiso   1.00
C489   C     0.36884   0.04467   0.95625   0.00000  Uiso   1.00
N490   N     0.35798   0.08096   0.85270   0.00000  Uiso   1.00
C491   C     0.36937   0.07844   0.87665   0.00000  Uiso   1.00
C492   C     0.36916   0.10243   0.82717   0.00000  Uiso   1.00
C493   C     0.36814   0.11359   0.80164   0.00000  Uiso   1.00
C494   C     0.35556   0.11499   0.77561   0.00000  Uiso   1.00
C495   C     0.34405   0.10498   0.77500   0.00000  Uiso   1.00
C496   C     0.34501   0.09380   0.80025   0.00000  Uiso   1.00
C497   C     0.35753   0.09238   0.82658   0.00000  Uiso   1.00
N498   N     0.14527   0.87356   0.24953   0.00000  Uiso   1.00
C499   C     0.18375   0.15382   0.74766   0.00000  Uiso   1.00
C500   C     0.15838   0.13561   0.75013   0.00000  Uiso   1.00
C501   C     0.19517   0.17564   0.75574   0.00000  Uiso   1.00
N502   N     0.19674   0.16294   0.74584   0.00000  Uiso   1.00
C503   C     0.23114   0.20569   0.75282   0.00000  Uiso   1.00
C504   C     0.20789   0.18538   0.75455   0.00000  Uiso   1.00
C505   C     0.24213   0.21739   0.75084   0.00000  Uiso   1.00
H506   H     0.14533   0.15222   0.77798   0.00000  Uiso   1.00
H507   H     0.16800   0.16860   0.77576   0.00000  Uiso   1.00
H508   H     0.19249   0.20114   0.77779   0.00000  Uiso   1.00
H509   H     0.21329   0.21914   0.77691   0.00000  Uiso   1.00
H510   H     0.04107   0.15038   0.92569   0.00000  Uiso   1.00
H511   H     0.06297   0.15187   0.87578   0.00000  Uiso   1.00
H512   H     0.08485   0.11630   0.93043   0.00000  Uiso   1.00
H513   H     0.06276   0.11467   0.97972   0.00000  Uiso   1.00
H514   H     0.08631   0.14291   0.84535   0.00000  Uiso   1.00
H515   H     0.12677   0.11506   0.87565   0.00000  Uiso   1.00
H516   H     0.14768   0.11502   0.82253   0.00000  Uiso   1.00
H517   H     0.11790   0.13983   0.74560   0.00000  Uiso   1.00
H518   H     0.09725   0.14023   0.79900   0.00000  Uiso   1.00
H519   H     0.18319   0.17903   0.76567   0.00000  Uiso   1.00
H520   H     0.32604   0.12104   0.77887   0.00000  Uiso   1.00
H521   H     0.30313   0.13721   0.77974   0.00000  Uiso   1.00
H522   H     0.27411   0.17146   0.76875   0.00000  Uiso   1.00
H523   H     0.25354   0.18993   0.77147   0.00000  Uiso   1.00
H524   H     0.39318   0.04970   0.96812   0.00000  Uiso   1.00
H525   H     0.39336   0.06979   0.92117   0.00000  Uiso   1.00
H526   H     0.34471   0.06154   0.89174   0.00000  Uiso   1.00
H527   H     0.34462   0.04162   0.93852   0.00000  Uiso   1.00
H528   H     0.37972   0.08558   0.87652   0.00000  Uiso   1.00
H529   H     0.37936   0.10145   0.84837   0.00000  Uiso   1.00
H530   H     0.37757   0.12165   0.80186   0.00000  Uiso   1.00
H531   H     0.33385   0.10595   0.75382   0.00000  Uiso   1.00
H532   H     0.33561   0.08572   0.79966   0.00000  Uiso   1.00
C533   C     0.22458   0.64524   0.26433   0.00000  Uiso   1.00
C534   C     0.16937   0.65788   0.26372   0.00000  Uiso   1.00
C535   C     0.20461   0.69853   0.26701   0.00000  Uiso   1.00
C536   C     0.21602   0.70844   0.26634   0.00000  Uiso   1.00
S537   S     0.23243   0.73373   0.25037   0.00000  Uiso   1.00
C538   C     0.03689   0.63099   0.48020   0.00000  Uiso   1.00
S539   S     0.01856   0.62994   0.45454   0.00000  Uiso   1.00
C540   C     0.05090   0.64270   0.42665   0.00000  Uiso   1.00
C541   C     0.06299   0.64355   0.39920   0.00000  Uiso   1.00
C542   C     0.07515   0.63419   0.40031   0.00000  Uiso   1.00
C543   C     0.07502   0.62396   0.42911   0.00000  Uiso   1.00
C544   C     0.06282   0.62307   0.45653   0.00000  Uiso   1.00
C545   C     0.05072   0.63253   0.45536   0.00000  Uiso   1.00
N546   N     0.09926   0.62717   0.37044   0.00000  Uiso   1.00
C547   C     0.08724   0.63509   0.37012   0.00000  Uiso   1.00
C548   C     0.12483   0.62068   0.34654   0.00000  Uiso   1.00
C549   C     0.13636   0.62063   0.31716   0.00000  Uiso   1.00
C550   C     0.13396   0.62745   0.28137   0.00000  Uiso   1.00
C551   C     0.11997   0.63434   0.27488   0.00000  Uiso   1.00
C552   C     0.10850   0.63451   0.30429   0.00000  Uiso   1.00
C553   C     0.11088   0.62763   0.34031   0.00000  Uiso   1.00
C554   C     0.32729   0.63168   0.26621   0.00000  Uiso   1.00
C555   C     0.31468   0.64066   0.26704   0.00000  Uiso   1.00
C556   C     0.27702   0.68220   0.25889   0.00000  Uiso   1.00
C557   C     0.26561   0.69238   0.26004   0.00000  Uiso   1.00
C558   C     0.36925   0.53231   0.48012   0.00000  Uiso   1.00
S559   S     0.36884   0.51633   0.45446   0.00000  Uiso   1.00
C560   C     0.38230   0.55247   0.45089   0.00000  Uiso   1.00
C561   C     0.38243   0.56348   0.42486   0.00000  Uiso   1.00
C562   C     0.36915   0.56675   0.40342   0.00000  Uiso   1.00
C563   C     0.35568   0.55892   0.40878   0.00000  Uiso   1.00
C564   C     0.35555   0.54792   0.43481   0.00000  Uiso   1.00
C565   C     0.36884   0.54467   0.45625   0.00000  Uiso   1.00
N566   N     0.35798   0.58096   0.35270   0.00000  Uiso   1.00
C567   C     0.36937   0.57844   0.37665   0.00000  Uiso   1.00
C568   C     0.36916   0.60243   0.32717   0.00000  Uiso   1.00
C569   C     0.36814   0.61359   0.30164   0.00000  Uiso   1.00
C570   C     0.35556   0.61499   0.27561   0.00000  Uiso   1.00
C571   C     0.34405   0.60498   0.27500   0.00000  Uiso   1.00
C572   C     0.34501   0.59380   0.30025   0.00000  Uiso   1.00
C573   C     0.35753   0.59238   0.32658   0.00000  Uiso   1.00
N574   N     0.14527   0.37356   0.74953   0.00000  Uiso   1.00
C575   C     0.18375   0.65382   0.24766   0.00000  Uiso   1.00
C576   C     0.15838   0.63561   0.25013   0.00000  Uiso   1.00
C577   C     0.19517   0.67564   0.25574   0.00000  Uiso   1.00
N578   N     0.19674   0.66294   0.24584   0.00000  Uiso   1.00
C579   C     0.23114   0.70569   0.25282   0.00000  Uiso   1.00
C580   C     0.20789   0.68538   0.25455   0.00000  Uiso   1.00
C581   C     0.24213   0.71739   0.25084   0.00000  Uiso   1.00
H582   H     0.14533   0.65222   0.27798   0.00000  Uiso   1.00
H583   H     0.16800   0.66860   0.27576   0.00000  Uiso   1.00
H584   H     0.19249   0.70114   0.27779   0.00000  Uiso   1.00
H585   H     0.21329   0.71914   0.27691   0.00000  Uiso   1.00
H586   H     0.04107   0.65038   0.42569   0.00000  Uiso   1.00
H587   H     0.06297   0.65187   0.37578   0.00000  Uiso   1.00
H588   H     0.08485   0.61630   0.43043   0.00000  Uiso   1.00
H589   H     0.06276   0.61467   0.47972   0.00000  Uiso   1.00
H590   H     0.08631   0.64291   0.34535   0.00000  Uiso   1.00
H591   H     0.12677   0.61506   0.37565   0.00000  Uiso   1.00
H592   H     0.14768   0.61502   0.32253   0.00000  Uiso   1.00
H593   H     0.11790   0.63983   0.24560   0.00000  Uiso   1.00
H594   H     0.09725   0.64023   0.29900   0.00000  Uiso   1.00
H595   H     0.18319   0.67903   0.26567   0.00000  Uiso   1.00
H596   H     0.32604   0.62104   0.27887   0.00000  Uiso   1.00
H597   H     0.30313   0.63721   0.27974   0.00000  Uiso   1.00
H598   H     0.27411   0.67146   0.26875   0.00000  Uiso   1.00
H599   H     0.25354   0.68993   0.27147   0.00000  Uiso   1.00
H600   H     0.39318   0.54970   0.46812   0.00000  Uiso   1.00
H601   H     0.39336   0.56979   0.42117   0.00000  Uiso   1.00
H602   H     0.34471   0.56154   0.39174   0.00000  Uiso   1.00
H603   H     0.34462   0.54162   0.43852   0.00000  Uiso   1.00
H604   H     0.37972   0.58558   0.37652   0.00000  Uiso   1.00
H605   H     0.37936   0.60145   0.34837   0.00000  Uiso   1.00
H606   H     0.37757   0.62165   0.30186   0.00000  Uiso   1.00
H607   H     0.33385   0.60595   0.25382   0.00000  Uiso   1.00
H608   H     0.33561   0.58572   0.29966   0.00000  Uiso   1.00
C609   C     0.72458   0.85476   0.73567   0.00000  Uiso   1.00
C610   C     0.66937   0.84212   0.73628   0.00000  Uiso   1.00
C611   C     0.70461   0.80147   0.73299   0.00000  Uiso   1.00
C612   C     0.71602   0.79156   0.73366   0.00000  Uiso   1.00
S613   S     0.73243   0.76627   0.74963   0.00000  Uiso   1.00
C614   C     0.53689   0.86901   0.51980   0.00000  Uiso   1.00
S615   S     0.51856   0.87006   0.54546   0.00000  Uiso   1.00
C616   C     0.55090   0.85730   0.57335   0.00000  Uiso   1.00
C617   C     0.56299   0.85645   0.60080   0.00000  Uiso   1.00
C618   C     0.57515   0.86581   0.59969   0.00000  Uiso   1.00
C619   C     0.57502   0.87604   0.57089   0.00000  Uiso   1.00
C620   C     0.56282   0.87693   0.54347   0.00000  Uiso   1.00
C621   C     0.55072   0.86747   0.54464   0.00000  Uiso   1.00
N622   N     0.59926   0.87283   0.62956   0.00000  Uiso   1.00
C623   C     0.58724   0.86491   0.62988   0.00000  Uiso   1.00
C624   C     0.62483   0.87932   0.65346   0.00000  Uiso   1.00
C625   C     0.63636   0.87937   0.68284   0.00000  Uiso   1.00
C626   C     0.63396   0.87255   0.71863   0.00000  Uiso   1.00
C627   C     0.61997   0.86566   0.72512   0.00000  Uiso   1.00
C628   C     0.60850   0.86549   0.69571   0.00000  Uiso   1.00
C629   C     0.61088   0.87237   0.65969   0.00000  Uiso   1.00
C630   C     0.82729   0.86832   0.73379   0.00000  Uiso   1.00
C631   C     0.81468   0.85934   0.73296   0.00000  Uiso   1.00
C632   C     0.77702   0.81780   0.74111   0.00000  Uiso   1.00
C633   C     0.76561   0.80762   0.73996   0.00000  Uiso   1.00
C634   C     0.86925   0.96769   0.51988   0.00000  Uiso   1.00
S635   S     0.86884   0.98367   0.54554   0.00000  Uiso   1.00
C636   C     0.88230   0.94753   0.54911   0.00000  Uiso   1.00
C637   C     0.88243   0.93652   0.57514   0.00000  Uiso   1.00
C638   C     0.86915   0.93325   0.59658   0.00000  Uiso   1.00
C639   C     0.85568   0.94108   0.59122   0.00000  Uiso   1.00
C640   C     0.85555   0.95208   0.56519   0.00000  Uiso   1.00
C641   C     0.86884   0.95533   0.54375   0.00000  Uiso   1.00
N642   N     0.85798   0.91904   0.64730   0.00000  Uiso   1.00
C643   C     0.86937   0.92156   0.62335   0.00000  Uiso   1.00
C644   C     0.86916   0.89757   0.67283   0.00000  Uiso   1.00
C645   C     0.86814   0.88641   0.69836   0.00000  Uiso   1.00
C646   C     0.85556   0.88501   0.72439   0.00000  Uiso   1.00
C647   C     0.84405   0.89502   0.72500   0.00000  Uiso   1.00
C648   C     0.84501   0.90620   0.69975   0.00000  Uiso   1.00
C649   C     0.85753   0.90762   0.67342   0.00000  Uiso   1.00
N650   N     0.64527   0.12644   0.25047   0.00000  Uiso   1.00
C651   C     0.68375   0.84618   0.75234   0.00000  Uiso   1.00
C652   C     0.65838   0.86439   0.74987   0.00000  Uiso   1.00
C653   C     0.69517   0.82436   0.74426   0.00000  Uiso   1.00
N654   N     0.69674   0.83706   0.75416   0.00000  Uiso   1.00
C655   C     0.73114   0.79431   0.74718   0.00000  Uiso   1.00
C656   C     0.70789   0.81462   0.74545   0.00000  Uiso   1.00
C657   C     0.74213   0.78261   0.74916   0.00000  Uiso   1.00
H658   H     0.64533   0.84778   0.72202   0.00000  Uiso   1.00
H659   H     0.66800   0.83140   0.72424   0.00000  Uiso   1.00
H660   H     0.69249   0.79886   0.72221   0.00000  Uiso   1.00
H661   H     0.71329   0.78086   0.72309   0.00000  Uiso   1.00
H662   H     0.54107   0.84962   0.57431   0.00000  Uiso   1.00
H663   H     0.56297   0.84813   0.62422   0.00000  Uiso   1.00
H664   H     0.58485   0.88370   0.56957   0.00000  Uiso   1.00
H665   H     0.56276   0.88533   0.52028   0.00000  Uiso   1.00
H666   H     0.58631   0.85709   0.65465   0.00000  Uiso   1.00
H667   H     0.62677   0.88494   0.62435   0.00000  Uiso   1.00
H668   H     0.64768   0.88498   0.67747   0.00000  Uiso   1.00
H669   H     0.61790   0.86017   0.75440   0.00000  Uiso   1.00
H670   H     0.59725   0.85977   0.70100   0.00000  Uiso   1.00
H671   H     0.68319   0.82097   0.73433   0.00000  Uiso   1.00
H672   H     0.82604   0.87896   0.72113   0.00000  Uiso   1.00
H673   H     0.80313   0.86279   0.72026   0.00000  Uiso   1.00
H674   H     0.77411   0.82854   0.73125   0.00000  Uiso   1.00
H675   H     0.75354   0.81007   0.72853   0.00000  Uiso   1.00
H676   H     0.89318   0.95030   0.53188   0.00000  Uiso   1.00
H677   H     0.89336   0.93021   0.57883   0.00000  Uiso   1.00
H678   H     0.84471   0.93846   0.60826   0.00000  Uiso   1.00
H679   H     0.84462   0.95838   0.56148   0.00000  Uiso   1.00
H680   H     0.87972   0.91442   0.62348   0.00000  Uiso   1.00
H681   H     0.87936   0.89855   0.65163   0.00000  Uiso   1.00
H682   H     0.87757   0.87835   0.69814   0.00000  Uiso   1.00
H683   H     0.83385   0.89405   0.74618   0.00000  Uiso   1.00
H684   H     0.83561   0.91428   0.70034   0.00000  Uiso   1.00
C685   C     0.72458   0.35476   0.23567   0.00000  Uiso   1.00
C686   C     0.66937   0.34212   0.23628   0.00000  Uiso   1.00
C687   C     0.70461   0.30147   0.23299   0.00000  Uiso   1.00
C688   C     0.71602   0.29156   0.23366   0.00000  Uiso   1.00
S689   S     0.73243   0.26627   0.24963   0.00000  Uiso   1.00
C690   C     0.53689   0.36901   0.01980   0.00000  Uiso   1.00
S691   S     0.51856   0.37006   0.04546   0.00000  Uiso   1.00
C692   C     0.55090   0.35730   0.07335   0.00000  Uiso   1.00
C693   C     0.56299   0.35645   0.10080   0.00000  Uiso   1.00
C694   C     0.57515   0.36581   0.09969   0.00000  Uiso   1.00
C695   C     0.57502   0.37604   0.07089   0.00000  Uiso   1.00
C696   C     0.56282   0.37693   0.04347   0.00000  Uiso   1.00
C697   C     0.55072   0.36747   0.04464   0.00000  Uiso   1.00
N698   N     0.59926   0.37283   0.12956   0.00000  Uiso   1.00
C699   C     0.58724   0.36491   0.12988   0.00000  Uiso   1.00
C700   C     0.62483   0.37932   0.15346   0.00000  Uiso   1.00
C701   C     0.63636   0.37937   0.18284   0.00000  Uiso   1.00
C702   C     0.63396   0.37255   0.21863   0.00000  Uiso   1.00
C703   C     0.61997   0.36566   0.22512   0.00000  Uiso   1.00
C704   C     0.60850   0.36549   0.19571   0.00000  Uiso   1.00
C705   C     0.61088   0.37237   0.15969   0.00000  Uiso   1.00
C706   C     0.82729   0.36832   0.23379   0.00000  Uiso   1.00
C707   C     0.81468   0.35934   0.23296   0.00000  Uiso   1.00
C708   C     0.77702   0.31780   0.24111   0.00000  Uiso   1.00
C709   C     0.76561   0.30762   0.23996   0.00000  Uiso   1.00
C710   C     0.86925   0.46769   0.01988   0.00000  Uiso   1.00
S711   S     0.86884   0.48367   0.04554   0.00000  Uiso   1.00
C712   C     0.88230   0.44753   0.04911   0.00000  Uiso   1.00
C713   C     0.88243   0.43652   0.07514   0.00000  Uiso   1.00
C714   C     0.86915   0.43325   0.09658   0.00000  Uiso   1.00
C715   C     0.85568   0.44108   0.09122   0.00000  Uiso   1.00
C716   C     0.85555   0.45208   0.06519   0.00000  Uiso   1.00
C717   C     0.86884   0.45533   0.04375   0.00000  Uiso   1.00
N718   N     0.85798   0.41904   0.14730   0.00000  Uiso   1.00
C719   C     0.86937   0.42156   0.12335   0.00000  Uiso   1.00
C720   C     0.86916   0.39757   0.17283   0.00000  Uiso   1.00
C721   C     0.86814   0.38641   0.19836   0.00000  Uiso   1.00
C722   C     0.85556   0.38501   0.22439   0.00000  Uiso   1.00
C723   C     0.84405   0.39502   0.22500   0.00000  Uiso   1.00
C724   C     0.84501   0.40620   0.19975   0.00000  Uiso   1.00
C725   C     0.85753   0.40762   0.17342   0.00000  Uiso   1.00
N726   N     0.64527   0.62644   0.75047   0.00000  Uiso   1.00
C727   C     0.68375   0.34618   0.25234   0.00000  Uiso   1.00
C728   C     0.65838   0.36439   0.24987   0.00000  Uiso   1.00
C729   C     0.69517   0.32436   0.24426   0.00000  Uiso   1.00
N730   N     0.69674   0.33706   0.25416   0.00000  Uiso   1.00
C731   C     0.73114   0.29431   0.24718   0.00000  Uiso   1.00
C732   C     0.70789   0.31462   0.24545   0.00000  Uiso   1.00
C733   C     0.74213   0.28261   0.24916   0.00000  Uiso   1.00
H734   H     0.64533   0.34778   0.22202   0.00000  Uiso   1.00
H735   H     0.66800   0.33140   0.22424   0.00000  Uiso   1.00
H736   H     0.69249   0.29886   0.22221   0.00000  Uiso   1.00
H737   H     0.71329   0.28086   0.22309   0.00000  Uiso   1.00
H738   H     0.54107   0.34962   0.07431   0.00000  Uiso   1.00
H739   H     0.56297   0.34813   0.12422   0.00000  Uiso   1.00
H740   H     0.58485   0.38370   0.06957   0.00000  Uiso   1.00
H741   H     0.56276   0.38533   0.02028   0.00000  Uiso   1.00
H742   H     0.58631   0.35709   0.15465   0.00000  Uiso   1.00
H743   H     0.62677   0.38494   0.12435   0.00000  Uiso   1.00
H744   H     0.64768   0.38498   0.17747   0.00000  Uiso   1.00
H745   H     0.61790   0.36017   0.25440   0.00000  Uiso   1.00
H746   H     0.59725   0.35977   0.20100   0.00000  Uiso   1.00
H747   H     0.68319   0.32097   0.23433   0.00000  Uiso   1.00
H748   H     0.82604   0.37896   0.22113   0.00000  Uiso   1.00
H749   H     0.80313   0.36279   0.22026   0.00000  Uiso   1.00
H750   H     0.77411   0.32854   0.23125   0.00000  Uiso   1.00
H751   H     0.75354   0.31007   0.22853   0.00000  Uiso   1.00
H752   H     0.89318   0.45030   0.03188   0.00000  Uiso   1.00
H753   H     0.89336   0.43021   0.07883   0.00000  Uiso   1.00
H754   H     0.84471   0.43846   0.10826   0.00000  Uiso   1.00
H755   H     0.84462   0.45838   0.06148   0.00000  Uiso   1.00
H756   H     0.87972   0.41442   0.12348   0.00000  Uiso   1.00
H757   H     0.87936   0.39855   0.15163   0.00000  Uiso   1.00
H758   H     0.87757   0.37835   0.19814   0.00000  Uiso   1.00
H759   H     0.83385   0.39405   0.24618   0.00000  Uiso   1.00
H760   H     0.83561   0.41428   0.20034   0.00000  Uiso   1.00
C761   C     0.22458   0.85476   0.23567   0.00000  Uiso   1.00
C762   C     0.16937   0.84212   0.23628   0.00000  Uiso   1.00
C763   C     0.20461   0.80147   0.23299   0.00000  Uiso   1.00
C764   C     0.21602   0.79156   0.23366   0.00000  Uiso   1.00
S765   S     0.23243   0.76627   0.24963   0.00000  Uiso   1.00
C766   C     0.03689   0.86901   0.01980   0.00000  Uiso   1.00
S767   S     0.01856   0.87006   0.04546   0.00000  Uiso   1.00
C768   C     0.05090   0.85730   0.07335   0.00000  Uiso   1.00
C769   C     0.06299   0.85645   0.10080   0.00000  Uiso   1.00
C770   C     0.07515   0.86581   0.09969   0.00000  Uiso   1.00
C771   C     0.07502   0.87604   0.07089   0.00000  Uiso   1.00
C772   C     0.06282   0.87693   0.04347   0.00000  Uiso   1.00
C773   C     0.05072   0.86747   0.04464   0.00000  Uiso   1.00
N774   N     0.09926   0.87283   0.12956   0.00000  Uiso   1.00
C775   C     0.08724   0.86491   0.12988   0.00000  Uiso   1.00
C776   C     0.12483   0.87932   0.15346   0.00000  Uiso   1.00
C777   C     0.13636   0.87937   0.18284   0.00000  Uiso   1.00
C778   C     0.13396   0.87255   0.21863   0.00000  Uiso   1.00
C779   C     0.11997   0.86566   0.22512   0.00000  Uiso   1.00
C780   C     0.10850   0.86549   0.19571   0.00000  Uiso   1.00
C781   C     0.11088   0.87237   0.15969   0.00000  Uiso   1.00
C782   C     0.32729   0.86832   0.23379   0.00000  Uiso   1.00
C783   C     0.31468   0.85934   0.23296   0.00000  Uiso   1.00
C784   C     0.27702   0.81780   0.24111   0.00000  Uiso   1.00
C785   C     0.26561   0.80762   0.23996   0.00000  Uiso   1.00
C786   C     0.36925   0.96769   0.01988   0.00000  Uiso   1.00
S787   S     0.36884   0.98367   0.04554   0.00000  Uiso   1.00
C788   C     0.38230   0.94753   0.04911   0.00000  Uiso   1.00
C789   C     0.38243   0.93652   0.07514   0.00000  Uiso   1.00
C790   C     0.36915   0.93325   0.09658   0.00000  Uiso   1.00
C791   C     0.35568   0.94108   0.09122   0.00000  Uiso   1.00
C792   C     0.35555   0.95208   0.06519   0.00000  Uiso   1.00
C793   C     0.36884   0.95533   0.04375   0.00000  Uiso   1.00
N794   N     0.35798   0.91904   0.14730   0.00000  Uiso   1.00
C795   C     0.36937   0.92156   0.12335   0.00000  Uiso   1.00
C796   C     0.36916   0.89757   0.17283   0.00000  Uiso   1.00
C797   C     0.36814   0.88641   0.19836   0.00000  Uiso   1.00
C798   C     0.35556   0.88501   0.22439   0.00000  Uiso   1.00
C799   C     0.34405   0.89502   0.22500   0.00000  Uiso   1.00
C800   C     0.34501   0.90620   0.19975   0.00000  Uiso   1.00
C801   C     0.35753   0.90762   0.17342   0.00000  Uiso   1.00
N802   N     0.14527   0.12644   0.75047   0.00000  Uiso   1.00
C803   C     0.18375   0.84618   0.25234   0.00000  Uiso   1.00
C804   C     0.15838   0.86439   0.24987   0.00000  Uiso   1.00
C805   C     0.19517   0.82436   0.24426   0.00000  Uiso   1.00
N806   N     0.19674   0.83706   0.25416   0.00000  Uiso   1.00
C807   C     0.23114   0.79431   0.24718   0.00000  Uiso   1.00
C808   C     0.20789   0.81462   0.24545   0.00000  Uiso   1.00
C809   C     0.24213   0.78261   0.24916   0.00000  Uiso   1.00
H810   H     0.14533   0.84778   0.22202   0.00000  Uiso   1.00
H811   H     0.16800   0.83140   0.22424   0.00000  Uiso   1.00
H812   H     0.19249   0.79886   0.22221   0.00000  Uiso   1.00
H813   H     0.21329   0.78086   0.22309   0.00000  Uiso   1.00
H814   H     0.04107   0.84962   0.07431   0.00000  Uiso   1.00
H815   H     0.06297   0.84813   0.12422   0.00000  Uiso   1.00
H816   H     0.08485   0.88370   0.06957   0.00000  Uiso   1.00
H817   H     0.06276   0.88533   0.02028   0.00000  Uiso   1.00
H818   H     0.08631   0.85709   0.15465   0.00000  Uiso   1.00
H819   H     0.12677   0.88494   0.12435   0.00000  Uiso   1.00
H820   H     0.14768   0.88498   0.17747   0.00000  Uiso   1.00
H821   H     0.11790   0.86017   0.25440   0.00000  Uiso   1.00
H822   H     0.09725   0.85977   0.20100   0.00000  Uiso   1.00
H823   H     0.18319   0.82097   0.23433   0.00000  Uiso   1.00
H824   H     0.32604   0.87896   0.22113   0.00000  Uiso   1.00
H825   H     0.30313   0.86279   0.22026   0.00000  Uiso   1.00
H826   H     0.27411   0.82854   0.23125   0.00000  Uiso   1.00
H827   H     0.25354   0.81007   0.22853   0.00000  Uiso   1.00
H828   H     0.39318   0.95030   0.03188   0.00000  Uiso   1.00
H829   H     0.39336   0.93021   0.07883   0.00000  Uiso   1.00
H830   H     0.34471   0.93846   0.10826   0.00000  Uiso   1.00
H831   H     0.34462   0.95838   0.06148   0.00000  Uiso   1.00
H832   H     0.37972   0.91442   0.12348   0.00000  Uiso   1.00
H833   H     0.37936   0.89855   0.15163   0.00000  Uiso   1.00
H834   H     0.37757   0.87835   0.19814   0.00000  Uiso   1.00
H835   H     0.33385   0.89405   0.24618   0.00000  Uiso   1.00
H836   H     0.33561   0.91428   0.20034   0.00000  Uiso   1.00
C837   C     0.22458   0.35476   0.73567   0.00000  Uiso   1.00
C838   C     0.16937   0.34212   0.73628   0.00000  Uiso   1.00
C839   C     0.20461   0.30147   0.73299   0.00000  Uiso   1.00
C840   C     0.21602   0.29156   0.73366   0.00000  Uiso   1.00
S841   S     0.23243   0.26627   0.74963   0.00000  Uiso   1.00
C842   C     0.03689   0.36901   0.51980   0.00000  Uiso   1.00
S843   S     0.01856   0.37006   0.54546   0.00000  Uiso   1.00
C844   C     0.05090   0.35730   0.57335   0.00000  Uiso   1.00
C845   C     0.06299   0.35645   0.60080   0.00000  Uiso   1.00
C846   C     0.07515   0.36581   0.59969   0.00000  Uiso   1.00
C847   C     0.07502   0.37604   0.57089   0.00000  Uiso   1.00
C848   C     0.06282   0.37693   0.54347   0.00000  Uiso   1.00
C849   C     0.05072   0.36747   0.54464   0.00000  Uiso   1.00
N850   N     0.09926   0.37283   0.62956   0.00000  Uiso   1.00
C851   C     0.08724   0.36491   0.62988   0.00000  Uiso   1.00
C852   C     0.12483   0.37932   0.65346   0.00000  Uiso   1.00
C853   C     0.13636   0.37937   0.68284   0.00000  Uiso   1.00
C854   C     0.13396   0.37255   0.71863   0.00000  Uiso   1.00
C855   C     0.11997   0.36566   0.72512   0.00000  Uiso   1.00
C856   C     0.10850   0.36549   0.69571   0.00000  Uiso   1.00
C857   C     0.11088   0.37237   0.65969   0.00000  Uiso   1.00
C858   C     0.32729   0.36832   0.73379   0.00000  Uiso   1.00
C859   C     0.31468   0.35934   0.73296   0.00000  Uiso   1.00
C860   C     0.27702   0.31780   0.74111   0.00000  Uiso   1.00
C861   C     0.26561   0.30762   0.73996   0.00000  Uiso   1.00
C862   C     0.36925   0.46769   0.51988   0.00000  Uiso   1.00
S863   S     0.36884   0.48367   0.54554   0.00000  Uiso   1.00
C864   C     0.38230   0.44753   0.54911   0.00000  Uiso   1.00
C865   C     0.38243   0.43652   0.57514   0.00000  Uiso   1.00
C866   C     0.36915   0.43325   0.59658   0.00000  Uiso   1.00
C867   C     0.35568   0.44108   0.59122   0.00000  Uiso   1.00
C868   C     0.35555   0.45208   0.56519   0.00000  Uiso   1.00
C869   C     0.36884   0.45533   0.54375   0.00000  Uiso   1.00
N870   N     0.35798   0.41904   0.64730   0.00000  Uiso   1.00
C871   C     0.36937   0.42156   0.62335   0.00000  Uiso   1.00
C872   C     0.36916   0.39757   0.67283   0.00000  Uiso   1.00
C873   C     0.36814   0.38641   0.69836   0.00000  Uiso   1.00
C874   C     0.35556   0.38501   0.72439   0.00000  Uiso   1.00
C875   C     0.34405   0.39502   0.72500   0.00000  Uiso   1.00
C876   C     0.34501   0.40620   0.69975   0.00000  Uiso   1.00
C877   C     0.35753   0.40762   0.67342   0.00000  Uiso   1.00
N878   N     0.14527   0.62644   0.25047   0.00000  Uiso   1.00
C879   C     0.18375   0.34618   0.75234   0.00000  Uiso   1.00
C880   C     0.15838   0.36439   0.74987   0.00000  Uiso   1.00
C881   C     0.19517   0.32436   0.74426   0.00000  Uiso   1.00
N882   N     0.19674   0.33706   0.75416   0.00000  Uiso   1.00
C883   C     0.23114   0.29431   0.74718   0.00000  Uiso   1.00
C884   C     0.20789   0.31462   0.74545   0.00000  Uiso   1.00
C885   C     0.24213   0.28261   0.74916   0.00000  Uiso   1.00
H886   H     0.14533   0.34778   0.72202   0.00000  Uiso   1.00
H887   H     0.16800   0.33140   0.72424   0.00000  Uiso   1.00
H888   H     0.19249   0.29886   0.72221   0.00000  Uiso   1.00
H889   H     0.21329   0.28086   0.72309   0.00000  Uiso   1.00
H890   H     0.04107   0.34962   0.57431   0.00000  Uiso   1.00
H891   H     0.06297   0.34813   0.62422   0.00000  Uiso   1.00
H892   H     0.08485   0.38370   0.56957   0.00000  Uiso   1.00
H893   H     0.06276   0.38533   0.52028   0.00000  Uiso   1.00
H894   H     0.08631   0.35709   0.65465   0.00000  Uiso   1.00
H895   H     0.12677   0.38494   0.62435   0.00000  Uiso   1.00
H896   H     0.14768   0.38498   0.67747   0.00000  Uiso   1.00
H897   H     0.11790   0.36017   0.75440   0.00000  Uiso   1.00
H898   H     0.09725   0.35977   0.70100   0.00000  Uiso   1.00
H899   H     0.18319   0.32097   0.73433   0.00000  Uiso   1.00
H900   H     0.32604   0.37896   0.72113   0.00000  Uiso   1.00
H901   H     0.30313   0.36279   0.72026   0.00000  Uiso   1.00
H902   H     0.27411   0.32854   0.73125   0.00000  Uiso   1.00
H903   H     0.25354   0.31007   0.72853   0.00000  Uiso   1.00
H904   H     0.39318   0.45030   0.53188   0.00000  Uiso   1.00
H905   H     0.39336   0.43021   0.57883   0.00000  Uiso   1.00
H906   H     0.34471   0.43846   0.60826   0.00000  Uiso   1.00
H907   H     0.34462   0.45838   0.56148   0.00000  Uiso   1.00
H908   H     0.37972   0.41442   0.62348   0.00000  Uiso   1.00
H909   H     0.37936   0.39855   0.65163   0.00000  Uiso   1.00
H910   H     0.37757   0.37835   0.69814   0.00000  Uiso   1.00
H911   H     0.33385   0.39405   0.74618   0.00000  Uiso   1.00
H912   H     0.33561   0.41428   0.70034   0.00000  Uiso   1.00
C913   C     0.27542   0.14524   0.73567   0.00000  Uiso   1.00
C914   C     0.33063   0.15788   0.73628   0.00000  Uiso   1.00
C915   C     0.29539   0.19853   0.73299   0.00000  Uiso   1.00
C916   C     0.28398   0.20844   0.73366   0.00000  Uiso   1.00
S917   S     0.26757   0.23373   0.74963   0.00000  Uiso   1.00
C918   C     0.46311   0.13099   0.51980   0.00000  Uiso   1.00
S919   S     0.48144   0.12994   0.54546   0.00000  Uiso   1.00
C920   C     0.44910   0.14270   0.57335   0.00000  Uiso   1.00
C921   C     0.43701   0.14355   0.60080   0.00000  Uiso   1.00
C922   C     0.42485   0.13419   0.59969   0.00000  Uiso   1.00
C923   C     0.42498   0.12396   0.57089   0.00000  Uiso   1.00
C924   C     0.43718   0.12307   0.54347   0.00000  Uiso   1.00
C925   C     0.44928   0.13253   0.54464   0.00000  Uiso   1.00
N926   N     0.40074   0.12717   0.62956   0.00000  Uiso   1.00
C927   C     0.41276   0.13509   0.62988   0.00000  Uiso   1.00
C928   C     0.37517   0.12068   0.65346   0.00000  Uiso   1.00
C929   C     0.36364   0.12063   0.68284   0.00000  Uiso   1.00
C930   C     0.36604   0.12745   0.71863   0.00000  Uiso   1.00
C931   C     0.38003   0.13434   0.72512   0.00000  Uiso   1.00
C932   C     0.39150   0.13451   0.69571   0.00000  Uiso   1.00
C933   C     0.38912   0.12763   0.65969   0.00000  Uiso   1.00
C934   C     0.17271   0.13168   0.73379   0.00000  Uiso   1.00
C935   C     0.18532   0.14066   0.73296   0.00000  Uiso   1.00
C936   C     0.22298   0.18220   0.74111   0.00000  Uiso   1.00
C937   C     0.23439   0.19238   0.73996   0.00000  Uiso   1.00
C938   C     0.13075   0.03231   0.51988   0.00000  Uiso   1.00
S939   S     0.13116   0.01633   0.54554   0.00000  Uiso   1.00
C940   C     0.11770   0.05247   0.54911   0.00000  Uiso   1.00
C941   C     0.11757   0.06348   0.57514   0.00000  Uiso   1.00
C942   C     0.13085   0.06675   0.59658   0.00000  Uiso   1.00
C943   C     0.14432   0.05892   0.59122   0.00000  Uiso   1.00
C944   C     0.14445   0.04792   0.56519   0.00000  Uiso   1.00
C945   C     0.13116   0.04467   0.54375   0.00000  Uiso   1.00
N946   N     0.14202   0.08096   0.64730   0.00000  Uiso   1.00
C947   C     0.13063   0.07844   0.62335   0.00000  Uiso   1.00
C948   C     0.13084   0.10243   0.67283   0.00000  Uiso   1.00
C949   C     0.13186   0.11359   0.69836   0.00000  Uiso   1.00
C950   C     0.14444   0.11499   0.72439   0.00000  Uiso   1.00
C951   C     0.15595   0.10498   0.72500   0.00000  Uiso   1.00
C952   C     0.15499   0.09380   0.69975   0.00000  Uiso   1.00
C953   C     0.14247   0.09238   0.67342   0.00000  Uiso   1.00
N954   N     0.35473   0.87356   0.25047   0.00000  Uiso   1.00
C955   C     0.31625   0.15382   0.75234   0.00000  Uiso   1.00
C956   C     0.34162   0.13561   0.74987   0.00000  Uiso   1.00
C957   C     0.30483   0.17564   0.74426   0.00000  Uiso   1.00
N958   N     0.30326   0.16294   0.75416   0.00000  Uiso   1.00
C959   C     0.26886   0.20569   0.74718   0.00000  Uiso   1.00
C960   C     0.29211   0.18538   0.74545   0.00000  Uiso   1.00
C961   C     0.25787   0.21739   0.74916   0.00000  Uiso   1.00
H962   H     0.35467   0.15222   0.72202   0.00000  Uiso   1.00
H963   H     0.33200   0.16860   0.72424   0.00000  Uiso   1.00
H964   H     0.30751   0.20114   0.72221   0.00000  Uiso   1.00
H965   H     0.28671   0.21914   0.72309   0.00000  Uiso   1.00
H966   H     0.45893   0.15038   0.57431   0.00000  Uiso   1.00
H967   H     0.43703   0.15187   0.62422   0.00000  Uiso   1.00
H968   H     0.41515   0.11630   0.56957   0.00000  Uiso   1.00
H969   H     0.43724   0.11467   0.52028   0.00000  Uiso   1.00
H970   H     0.41369   0.14291   0.65465   0.00000  Uiso   1.00
H971   H     0.37323   0.11506   0.62435   0.00000  Uiso   1.00
H972   H     0.35232   0.11502   0.67747   0.00000  Uiso   1.00
H973   H     0.38210   0.13983   0.75440   0.00000  Uiso   1.00
H974   H     0.40275   0.14023   0.70100   0.00000  Uiso   1.00
H975   H     0.31681   0.17903   0.73433   0.00000  Uiso   1.00
H976   H     0.17396   0.12104   0.72113   0.00000  Uiso   1.00
H977   H     0.19687   0.13721   0.72026   0.00000  Uiso   1.00
H978   H     0.22589   0.17146   0.73125   0.00000  Uiso   1.00
H979   H     0.24646   0.18993   0.72853   0.00000  Uiso   1.00
H980   H     0.10682   0.04970   0.53188   0.00000  Uiso   1.00
H981   H     0.10664   0.06979   0.57883   0.00000  Uiso   1.00
H982   H     0.15529   0.06154   0.60826   0.00000  Uiso   1.00
H983   H     0.15538   0.04162   0.56148   0.00000  Uiso   1.00
H984   H     0.12028   0.08558   0.62348   0.00000  Uiso   1.00
H985   H     0.12064   0.10145   0.65163   0.00000  Uiso   1.00
H986   H     0.12243   0.12165   0.69814   0.00000  Uiso   1.00
H987   H     0.16615   0.10595   0.74618   0.00000  Uiso   1.00
H988   H     0.16439   0.08572   0.70034   0.00000  Uiso   1.00
C989   C     0.27542   0.64524   0.23567   0.00000  Uiso   1.00
C990   C     0.33063   0.65788   0.23628   0.00000  Uiso   1.00
C991   C     0.29539   0.69853   0.23299   0.00000  Uiso   1.00
C992   C     0.28398   0.70844   0.23366   0.00000  Uiso   1.00
S993   S     0.26757   0.73373   0.24963   0.00000  Uiso   1.00
C994   C     0.46311   0.63099   0.01980   0.00000  Uiso   1.00
S995   S     0.48144   0.62994   0.04546   0.00000  Uiso   1.00
C996   C     0.44910   0.64270   0.07335   0.00000  Uiso   1.00
C997   C     0.43701   0.64355   0.10080   0.00000  Uiso   1.00
C998   C     0.42485   0.63419   0.09969   0.00000  Uiso   1.00
C999   C     0.42498   0.62396   0.07089   0.00000  Uiso   1.00
C1000  C     0.43718   0.62307   0.04347   0.00000  Uiso   1.00
C1001  C     0.44928   0.63253   0.04464   0.00000  Uiso   1.00
N1002  N     0.40074   0.62717   0.12956   0.00000  Uiso   1.00
C1003  C     0.41276   0.63509   0.12988   0.00000  Uiso   1.00
C1004  C     0.37517   0.62068   0.15346   0.00000  Uiso   1.00
C1005  C     0.36364   0.62063   0.18284   0.00000  Uiso   1.00
C1006  C     0.36604   0.62745   0.21863   0.00000  Uiso   1.00
C1007  C     0.38003   0.63434   0.22512   0.00000  Uiso   1.00
C1008  C     0.39150   0.63451   0.19571   0.00000  Uiso   1.00
C1009  C     0.38912   0.62763   0.15969   0.00000  Uiso   1.00
C1010  C     0.17271   0.63168   0.23379   0.00000  Uiso   1.00
C1011  C     0.18532   0.64066   0.23296   0.00000  Uiso   1.00
C1012  C     0.22298   0.68220   0.24111   0.00000  Uiso   1.00
C1013  C     0.23439   0.69238   0.23996   0.00000  Uiso   1.00
C1014  C     0.13075   0.53231   0.01988   0.00000  Uiso   1.00
S1015  S     0.13116   0.51633   0.04554   0.00000  Uiso   1.00
C1016  C     0.11770   0.55247   0.04911   0.00000  Uiso   1.00
C1017  C     0.11757   0.56348   0.07514   0.00000  Uiso   1.00
C1018  C     0.13085   0.56675   0.09658   0.00000  Uiso   1.00
C1019  C     0.14432   0.55892   0.09122   0.00000  Uiso   1.00
C1020  C     0.14445   0.54792   0.06519   0.00000  Uiso   1.00
C1021  C     0.13116   0.54467   0.04375   0.00000  Uiso   1.00
N1022  N     0.14202   0.58096   0.14730   0.00000  Uiso   1.00
C1023  C     0.13063   0.57844   0.12335   0.00000  Uiso   1.00
C1024  C     0.13084   0.60243   0.17283   0.00000  Uiso   1.00
C1025  C     0.13186   0.61359   0.19836   0.00000  Uiso   1.00
C1026  C     0.14444   0.61499   0.22439   0.00000  Uiso   1.00
C1027  C     0.15595   0.60498   0.22500   0.00000  Uiso   1.00
C1028  C     0.15499   0.59380   0.19975   0.00000  Uiso   1.00
C1029  C     0.14247   0.59238   0.17342   0.00000  Uiso   1.00
N1030  N     0.35473   0.37356   0.75047   0.00000  Uiso   1.00
C1031  C     0.31625   0.65382   0.25234   0.00000  Uiso   1.00
C1032  C     0.34162   0.63561   0.24987   0.00000  Uiso   1.00
C1033  C     0.30483   0.67564   0.24426   0.00000  Uiso   1.00
N1034  N     0.30326   0.66294   0.25416   0.00000  Uiso   1.00
C1035  C     0.26886   0.70569   0.24718   0.00000  Uiso   1.00
C1036  C     0.29211   0.68538   0.24545   0.00000  Uiso   1.00
C1037  C     0.25787   0.71739   0.24916   0.00000  Uiso   1.00
H1038  H     0.35467   0.65222   0.22202   0.00000  Uiso   1.00
H1039  H     0.33200   0.66860   0.22424   0.00000  Uiso   1.00
H1040  H     0.30751   0.70114   0.22221   0.00000  Uiso   1.00
H1041  H     0.28671   0.71914   0.22309   0.00000  Uiso   1.00
H1042  H     0.45893   0.65038   0.07431   0.00000  Uiso   1.00
H1043  H     0.43703   0.65187   0.12422   0.00000  Uiso   1.00
H1044  H     0.41515   0.61630   0.06957   0.00000  Uiso   1.00
H1045  H     0.43724   0.61467   0.02028   0.00000  Uiso   1.00
H1046  H     0.41369   0.64291   0.15465   0.00000  Uiso   1.00
H1047  H     0.37323   0.61506   0.12435   0.00000  Uiso   1.00
H1048  H     0.35232   0.61502   0.17747   0.00000  Uiso   1.00
H1049  H     0.38210   0.63983   0.25440   0.00000  Uiso   1.00
H1050  H     0.40275   0.64023   0.20100   0.00000  Uiso   1.00
H1051  H     0.31681   0.67903   0.23433   0.00000  Uiso   1.00
H1052  H     0.17396   0.62104   0.22113   0.00000  Uiso   1.00
H1053  H     0.19687   0.63721   0.22026   0.00000  Uiso   1.00
H1054  H     0.22589   0.67146   0.23125   0.00000  Uiso   1.00
H1055  H     0.24646   0.68993   0.22853   0.00000  Uiso   1.00
H1056  H     0.10682   0.54970   0.03188   0.00000  Uiso   1.00
H1057  H     0.10664   0.56979   0.07883   0.00000  Uiso   1.00
H1058  H     0.15529   0.56154   0.10826   0.00000  Uiso   1.00
H1059  H     0.15538   0.54162   0.06148   0.00000  Uiso   1.00
H1060  H     0.12028   0.58558   0.12348   0.00000  Uiso   1.00
H1061  H     0.12064   0.60145   0.15163   0.00000  Uiso   1.00
H1062  H     0.12243   0.62165   0.19814   0.00000  Uiso   1.00
H1063  H     0.16615   0.60595   0.24618   0.00000  Uiso   1.00
H1064  H     0.16439   0.58572   0.20034   0.00000  Uiso   1.00
C1065  C     0.77542   0.14524   0.23567   0.00000  Uiso   1.00
C1066  C     0.83063   0.15788   0.23628   0.00000  Uiso   1.00
C1067  C     0.79539   0.19853   0.23299   0.00000  Uiso   1.00
C1068  C     0.78398   0.20844   0.23366   0.00000  Uiso   1.00
S1069  S     0.76757   0.23373   0.24963   0.00000  Uiso   1.00
C1070  C     0.96311   0.13099   0.01980   0.00000  Uiso   1.00
S1071  S     0.98144   0.12994   0.04546   0.00000  Uiso   1.00
C1072  C     0.94910   0.14270   0.07335   0.00000  Uiso   1.00
C1073  C     0.93701   0.14355   0.10080   0.00000  Uiso   1.00
C1074  C     0.92485   0.13419   0.09969   0.00000  Uiso   1.00
C1075  C     0.92498   0.12396   0.07089   0.00000  Uiso   1.00
C1076  C     0.93718   0.12307   0.04347   0.00000  Uiso   1.00
C1077  C     0.94928   0.13253   0.04464   0.00000  Uiso   1.00
N1078  N     0.90074   0.12717   0.12956   0.00000  Uiso   1.00
C1079  C     0.91276   0.13509   0.12988   0.00000  Uiso   1.00
C1080  C     0.87517   0.12068   0.15346   0.00000  Uiso   1.00
C1081  C     0.86364   0.12063   0.18284   0.00000  Uiso   1.00
C1082  C     0.86604   0.12745   0.21863   0.00000  Uiso   1.00
C1083  C     0.88003   0.13434   0.22512   0.00000  Uiso   1.00
C1084  C     0.89150   0.13451   0.19571   0.00000  Uiso   1.00
C1085  C     0.88912   0.12763   0.15969   0.00000  Uiso   1.00
C1086  C     0.67271   0.13168   0.23379   0.00000  Uiso   1.00
C1087  C     0.68532   0.14066   0.23296   0.00000  Uiso   1.00
C1088  C     0.72298   0.18220   0.24111   0.00000  Uiso   1.00
C1089  C     0.73439   0.19238   0.23996   0.00000  Uiso   1.00
C1090  C     0.63075   0.03231   0.01988   0.00000  Uiso   1.00
S1091  S     0.63116   0.01633   0.04554   0.00000  Uiso   1.00
C1092  C     0.61770   0.05247   0.04911   0.00000  Uiso   1.00
C1093  C     0.61757   0.06348   0.07514   0.00000  Uiso   1.00
C1094  C     0.63085   0.06675   0.09658   0.00000  Uiso   1.00
C1095  C     0.64432   0.05892   0.09122   0.00000  Uiso   1.00
C1096  C     0.64445   0.04792   0.06519   0.00000  Uiso   1.00
C1097  C     0.63116   0.04467   0.04375   0.00000  Uiso   1.00
N1098  N     0.64202   0.08096   0.14730   0.00000  Uiso   1.00
C1099  C     0.63063   0.07844   0.12335   0.00000  Uiso   1.00
C1100  C     0.63084   0.10243   0.17283   0.00000  Uiso   1.00
C1101  C     0.63186   0.11359   0.19836   0.00000  Uiso   1.00
C1102  C     0.64444   0.11499   0.22439   0.00000  Uiso   1.00
C1103  C     0.65595   0.10498   0.22500   0.00000  Uiso   1.00
C1104  C     0.65499   0.09380   0.19975   0.00000  Uiso   1.00
C1105  C     0.64247   0.09238   0.17342   0.00000  Uiso   1.00
N1106  N     0.85473   0.87356   0.75047   0.00000  Uiso   1.00
C1107  C     0.81625   0.15382   0.25234   0.00000  Uiso   1.00
C1108  C     0.84162   0.13561   0.24987   0.00000  Uiso   1.00
C1109  C     0.80483   0.17564   0.24426   0.00000  Uiso   1.00
N1110  N     0.80326   0.16294   0.25416   0.00000  Uiso   1.00
C1111  C     0.76886   0.20569   0.24718   0.00000  Uiso   1.00
C1112  C     0.79211   0.18538   0.24545   0.00000  Uiso   1.00
C1113  C     0.75787   0.21739   0.24916   0.00000  Uiso   1.00
H1114  H     0.85467   0.15222   0.22202   0.00000  Uiso   1.00
H1115  H     0.83200   0.16860   0.22424   0.00000  Uiso   1.00
H1116  H     0.80751   0.20114   0.22221   0.00000  Uiso   1.00
H1117  H     0.78671   0.21914   0.22309   0.00000  Uiso   1.00
H1118  H     0.95893   0.15038   0.07431   0.00000  Uiso   1.00
H1119  H     0.93703   0.15187   0.12422   0.00000  Uiso   1.00
H1120  H     0.91515   0.11630   0.06957   0.00000  Uiso   1.00
H1121  H     0.93724   0.11467   0.02028   0.00000  Uiso   1.00
H1122  H     0.91369   0.14291   0.15465   0.00000  Uiso   1.00
H1123  H     0.87323   0.11506   0.12435   0.00000  Uiso   1.00
H1124  H     0.85232   0.11502   0.17747   0.00000  Uiso   1.00
H1125  H     0.88210   0.13983   0.25440   0.00000  Uiso   1.00
H1126  H     0.90275   0.14023   0.20100   0.00000  Uiso   1.00
H1127  H     0.81681   0.17903   0.23433   0.00000  Uiso   1.00
H1128  H     0.67396   0.12104   0.22113   0.00000  Uiso   1.00
H1129  H     0.69687   0.13721   0.22026   0.00000  Uiso   1.00
H1130  H     0.72589   0.17146   0.23125   0.00000  Uiso   1.00
H1131  H     0.74646   0.18993   0.22853   0.00000  Uiso   1.00
H1132  H     0.60682   0.04970   0.03188   0.00000  Uiso   1.00
H1133  H     0.60664   0.06979   0.07883   0.00000  Uiso   1.00
H1134  H     0.65529   0.06154   0.10826   0.00000  Uiso   1.00
H1135  H     0.65538   0.04162   0.06148   0.00000  Uiso   1.00
H1136  H     0.62028   0.08558   0.12348   0.00000  Uiso   1.00
H1137  H     0.62064   0.10145   0.15163   0.00000  Uiso   1.00
H1138  H     0.62243   0.12165   0.19814   0.00000  Uiso   1.00
H1139  H     0.66615   0.10595   0.24618   0.00000  Uiso   1.00
H1140  H     0.66439   0.08572   0.20034   0.00000  Uiso   1.00
C1141  C     0.77542   0.64524   0.73567   0.00000  Uiso   1.00
C1142  C     0.83063   0.65788   0.73628   0.00000  Uiso   1.00
C1143  C     0.79539   0.69853   0.73299   0.00000  Uiso   1.00
C1144  C     0.78398   0.70844   0.73366   0.00000  Uiso   1.00
S1145  S     0.76757   0.73373   0.74963   0.00000  Uiso   1.00
C1146  C     0.96311   0.63099   0.51980   0.00000  Uiso   1.00
S1147  S     0.98144   0.62994   0.54546   0.00000  Uiso   1.00
C1148  C     0.94910   0.64270   0.57335   0.00000  Uiso   1.00
C1149  C     0.93701   0.64355   0.60080   0.00000  Uiso   1.00
C1150  C     0.92485   0.63419   0.59969   0.00000  Uiso   1.00
C1151  C     0.92498   0.62396   0.57089   0.00000  Uiso   1.00
C1152  C     0.93718   0.62307   0.54347   0.00000  Uiso   1.00
C1153  C     0.94928   0.63253   0.54464   0.00000  Uiso   1.00
N1154  N     0.90074   0.62717   0.62956   0.00000  Uiso   1.00
C1155  C     0.91276   0.63509   0.62988   0.00000  Uiso   1.00
C1156  C     0.87517   0.62068   0.65346   0.00000  Uiso   1.00
C1157  C     0.86364   0.62063   0.68284   0.00000  Uiso   1.00
C1158  C     0.86604   0.62745   0.71863   0.00000  Uiso   1.00
C1159  C     0.88003   0.63434   0.72512   0.00000  Uiso   1.00
C1160  C     0.89150   0.63451   0.69571   0.00000  Uiso   1.00
C1161  C     0.88912   0.62763   0.65969   0.00000  Uiso   1.00
C1162  C     0.67271   0.63168   0.73379   0.00000  Uiso   1.00
C1163  C     0.68532   0.64066   0.73296   0.00000  Uiso   1.00
C1164  C     0.72298   0.68220   0.74111   0.00000  Uiso   1.00
C1165  C     0.73439   0.69238   0.73996   0.00000  Uiso   1.00
C1166  C     0.63075   0.53231   0.51988   0.00000  Uiso   1.00
S1167  S     0.63116   0.51633   0.54554   0.00000  Uiso   1.00
C1168  C     0.61770   0.55247   0.54911   0.00000  Uiso   1.00
C1169  C     0.61757   0.56348   0.57514   0.00000  Uiso   1.00
C1170  C     0.63085   0.56675   0.59658   0.00000  Uiso   1.00
C1171  C     0.64432   0.55892   0.59122   0.00000  Uiso   1.00
C1172  C     0.64445   0.54792   0.56519   0.00000  Uiso   1.00
C1173  C     0.63116   0.54467   0.54375   0.00000  Uiso   1.00
N1174  N     0.64202   0.58096   0.64730   0.00000  Uiso   1.00
C1175  C     0.63063   0.57844   0.62335   0.00000  Uiso   1.00
C1176  C     0.63084   0.60243   0.67283   0.00000  Uiso   1.00
C1177  C     0.63186   0.61359   0.69836   0.00000  Uiso   1.00
C1178  C     0.64444   0.61499   0.72439   0.00000  Uiso   1.00
C1179  C     0.65595   0.60498   0.72500   0.00000  Uiso   1.00
C1180  C     0.65499   0.59380   0.69975   0.00000  Uiso   1.00
C1181  C     0.64247   0.59238   0.67342   0.00000  Uiso   1.00
N1182  N     0.85473   0.37356   0.25047   0.00000  Uiso   1.00
C1183  C     0.81625   0.65382   0.75234   0.00000  Uiso   1.00
C1184  C     0.84162   0.63561   0.74987   0.00000  Uiso   1.00
C1185  C     0.80483   0.67564   0.74426   0.00000  Uiso   1.00
N1186  N     0.80326   0.66294   0.75416   0.00000  Uiso   1.00
C1187  C     0.76886   0.70569   0.74718   0.00000  Uiso   1.00
C1188  C     0.79211   0.68538   0.74545   0.00000  Uiso   1.00
C1189  C     0.75787   0.71739   0.74916   0.00000  Uiso   1.00
H1190  H     0.85467   0.65222   0.72202   0.00000  Uiso   1.00
H1191  H     0.83200   0.66860   0.72424   0.00000  Uiso   1.00
H1192  H     0.80751   0.70114   0.72221   0.00000  Uiso   1.00
H1193  H     0.78671   0.71914   0.72309   0.00000  Uiso   1.00
H1194  H     0.95893   0.65038   0.57431   0.00000  Uiso   1.00
H1195  H     0.93703   0.65187   0.62422   0.00000  Uiso   1.00
H1196  H     0.91515   0.61630   0.56957   0.00000  Uiso   1.00
H1197  H     0.93724   0.61467   0.52028   0.00000  Uiso   1.00
H1198  H     0.91369   0.64291   0.65465   0.00000  Uiso   1.00
H1199  H     0.87323   0.61506   0.62435   0.00000  Uiso   1.00
H1200  H     0.85232   0.61502   0.67747   0.00000  Uiso   1.00
H1201  H     0.88210   0.63983   0.75440   0.00000  Uiso   1.00
H1202  H     0.90275   0.64023   0.70100   0.00000  Uiso   1.00
H1203  H     0.81681   0.67903   0.73433   0.00000  Uiso   1.00
H1204  H     0.67396   0.62104   0.72113   0.00000  Uiso   1.00
H1205  H     0.69687   0.63721   0.72026   0.00000  Uiso   1.00
H1206  H     0.72589   0.67146   0.73125   0.00000  Uiso   1.00
H1207  H     0.74646   0.68993   0.72853   0.00000  Uiso   1.00
H1208  H     0.60682   0.54970   0.53188   0.00000  Uiso   1.00
H1209  H     0.60664   0.56979   0.57883   0.00000  Uiso   1.00
H1210  H     0.65529   0.56154   0.60826   0.00000  Uiso   1.00
H1211  H     0.65538   0.54162   0.56148   0.00000  Uiso   1.00
H1212  H     0.62028   0.58558   0.62348   0.00000  Uiso   1.00
H1213  H     0.62064   0.60145   0.65163   0.00000  Uiso   1.00
H1214  H     0.62243   0.62165   0.69814   0.00000  Uiso   1.00
H1215  H     0.66615   0.60595   0.74618   0.00000  Uiso   1.00
H1216  H     0.66439   0.58572   0.70034   0.00000  Uiso   1.00
C1217  C     0.72458   0.14524   0.73567   0.00000  Uiso   1.00
C1218  C     0.66937   0.15788   0.73628   0.00000  Uiso   1.00
C1219  C     0.70461   0.19853   0.73299   0.00000  Uiso   1.00
C1220  C     0.71602   0.20844   0.73366   0.00000  Uiso   1.00
S1221  S     0.73243   0.23373   0.74963   0.00000  Uiso   1.00
C1222  C     0.53689   0.13099   0.51980   0.00000  Uiso   1.00
S1223  S     0.51856   0.12994   0.54546   0.00000  Uiso   1.00
C1224  C     0.55090   0.14270   0.57335   0.00000  Uiso   1.00
C1225  C     0.56299   0.14355   0.60080   0.00000  Uiso   1.00
C1226  C     0.57515   0.13419   0.59969   0.00000  Uiso   1.00
C1227  C     0.57502   0.12396   0.57089   0.00000  Uiso   1.00
C1228  C     0.56282   0.12307   0.54347   0.00000  Uiso   1.00
C1229  C     0.55072   0.13253   0.54464   0.00000  Uiso   1.00
N1230  N     0.59926   0.12717   0.62956   0.00000  Uiso   1.00
C1231  C     0.58724   0.13509   0.62988   0.00000  Uiso   1.00
C1232  C     0.62483   0.12068   0.65346   0.00000  Uiso   1.00
C1233  C     0.63636   0.12063   0.68284   0.00000  Uiso   1.00
C1234  C     0.63396   0.12745   0.71863   0.00000  Uiso   1.00
C1235  C     0.61997   0.13434   0.72512   0.00000  Uiso   1.00
C1236  C     0.60850   0.13451   0.69571   0.00000  Uiso   1.00
C1237  C     0.61088   0.12763   0.65969   0.00000  Uiso   1.00
C1238  C     0.82729   0.13168   0.73379   0.00000  Uiso   1.00
C1239  C     0.81468   0.14066   0.73296   0.00000  Uiso   1.00
C1240  C     0.77702   0.18220   0.74111   0.00000  Uiso   1.00
C1241  C     0.76561   0.19238   0.73996   0.00000  Uiso   1.00
C1242  C     0.86925   0.03231   0.51988   0.00000  Uiso   1.00
S1243  S     0.86884   0.01633   0.54554   0.00000  Uiso   1.00
C1244  C     0.88230   0.05247   0.54911   0.00000  Uiso   1.00
C1245  C     0.88243   0.06348   0.57514   0.00000  Uiso   1.00
C1246  C     0.86915   0.06675   0.59658   0.00000  Uiso   1.00
C1247  C     0.85568   0.05892   0.59122   0.00000  Uiso   1.00
C1248  C     0.85555   0.04792   0.56519   0.00000  Uiso   1.00
C1249  C     0.86884   0.04467   0.54375   0.00000  Uiso   1.00
N1250  N     0.85798   0.08096   0.64730   0.00000  Uiso   1.00
C1251  C     0.86937   0.07844   0.62335   0.00000  Uiso   1.00
C1252  C     0.86916   0.10243   0.67283   0.00000  Uiso   1.00
C1253  C     0.86814   0.11359   0.69836   0.00000  Uiso   1.00
C1254  C     0.85556   0.11499   0.72439   0.00000  Uiso   1.00
C1255  C     0.84405   0.10498   0.72500   0.00000  Uiso   1.00
C1256  C     0.84501   0.09380   0.69975   0.00000  Uiso   1.00
C1257  C     0.85753   0.09238   0.67342   0.00000  Uiso   1.00
N1258  N     0.64527   0.87356   0.25047   0.00000  Uiso   1.00
C1259  C     0.68375   0.15382   0.75234   0.00000  Uiso   1.00
C1260  C     0.65838   0.13561   0.74987   0.00000  Uiso   1.00
C1261  C     0.69517   0.17564   0.74426   0.00000  Uiso   1.00
N1262  N     0.69674   0.16294   0.75416   0.00000  Uiso   1.00
C1263  C     0.73114   0.20569   0.74718   0.00000  Uiso   1.00
C1264  C     0.70789   0.18538   0.74545   0.00000  Uiso   1.00
C1265  C     0.74213   0.21739   0.74916   0.00000  Uiso   1.00
H1266  H     0.64533   0.15222   0.72202   0.00000  Uiso   1.00
H1267  H     0.66800   0.16860   0.72424   0.00000  Uiso   1.00
H1268  H     0.69249   0.20114   0.72221   0.00000  Uiso   1.00
H1269  H     0.71329   0.21914   0.72309   0.00000  Uiso   1.00
H1270  H     0.54107   0.15038   0.57431   0.00000  Uiso   1.00
H1271  H     0.56297   0.15187   0.62422   0.00000  Uiso   1.00
H1272  H     0.58485   0.11630   0.56957   0.00000  Uiso   1.00
H1273  H     0.56276   0.11467   0.52028   0.00000  Uiso   1.00
H1274  H     0.58631   0.14291   0.65465   0.00000  Uiso   1.00
H1275  H     0.62677   0.11506   0.62435   0.00000  Uiso   1.00
H1276  H     0.64768   0.11502   0.67747   0.00000  Uiso   1.00
H1277  H     0.61790   0.13983   0.75440   0.00000  Uiso   1.00
H1278  H     0.59725   0.14023   0.70100   0.00000  Uiso   1.00
H1279  H     0.68319   0.17903   0.73433   0.00000  Uiso   1.00
H1280  H     0.82604   0.12104   0.72113   0.00000  Uiso   1.00
H1281  H     0.80313   0.13721   0.72026   0.00000  Uiso   1.00
H1282  H     0.77411   0.17146   0.73125   0.00000  Uiso   1.00
H1283  H     0.75354   0.18993   0.72853   0.00000  Uiso   1.00
H1284  H     0.89318   0.04970   0.53188   0.00000  Uiso   1.00
H1285  H     0.89336   0.06979   0.57883   0.00000  Uiso   1.00
H1286  H     0.84471   0.06154   0.60826   0.00000  Uiso   1.00
H1287  H     0.84462   0.04162   0.56148   0.00000  Uiso   1.00
H1288  H     0.87972   0.08558   0.62348   0.00000  Uiso   1.00
H1289  H     0.87936   0.10145   0.65163   0.00000  Uiso   1.00
H1290  H     0.87757   0.12165   0.69814   0.00000  Uiso   1.00
H1291  H     0.83385   0.10595   0.74618   0.00000  Uiso   1.00
H1292  H     0.83561   0.08572   0.70034   0.00000  Uiso   1.00
C1293  C     0.72458   0.64524   0.23567   0.00000  Uiso   1.00
C1294  C     0.66937   0.65788   0.23628   0.00000  Uiso   1.00
C1295  C     0.70461   0.69853   0.23299   0.00000  Uiso   1.00
C1296  C     0.71602   0.70844   0.23366   0.00000  Uiso   1.00
S1297  S     0.73243   0.73373   0.24963   0.00000  Uiso   1.00
C1298  C     0.53689   0.63099   0.01980   0.00000  Uiso   1.00
S1299  S     0.51856   0.62994   0.04546   0.00000  Uiso   1.00
C1300  C     0.55090   0.64270   0.07335   0.00000  Uiso   1.00
C1301  C     0.56299   0.64355   0.10080   0.00000  Uiso   1.00
C1302  C     0.57515   0.63419   0.09969   0.00000  Uiso   1.00
C1303  C     0.57502   0.62396   0.07089   0.00000  Uiso   1.00
C1304  C     0.56282   0.62307   0.04347   0.00000  Uiso   1.00
C1305  C     0.55072   0.63253   0.04464   0.00000  Uiso   1.00
N1306  N     0.59926   0.62717   0.12956   0.00000  Uiso   1.00
C1307  C     0.58724   0.63509   0.12988   0.00000  Uiso   1.00
C1308  C     0.62483   0.62068   0.15346   0.00000  Uiso   1.00
C1309  C     0.63636   0.62063   0.18284   0.00000  Uiso   1.00
C1310  C     0.63396   0.62745   0.21863   0.00000  Uiso   1.00
C1311  C     0.61997   0.63434   0.22512   0.00000  Uiso   1.00
C1312  C     0.60850   0.63451   0.19571   0.00000  Uiso   1.00
C1313  C     0.61088   0.62763   0.15969   0.00000  Uiso   1.00
C1314  C     0.82729   0.63168   0.23379   0.00000  Uiso   1.00
C1315  C     0.81468   0.64066   0.23296   0.00000  Uiso   1.00
C1316  C     0.77702   0.68220   0.24111   0.00000  Uiso   1.00
C1317  C     0.76561   0.69238   0.23996   0.00000  Uiso   1.00
C1318  C     0.86925   0.53231   0.01988   0.00000  Uiso   1.00
S1319  S     0.86884   0.51633   0.04554   0.00000  Uiso   1.00
C1320  C     0.88230   0.55247   0.04911   0.00000  Uiso   1.00
C1321  C     0.88243   0.56348   0.07514   0.00000  Uiso   1.00
C1322  C     0.86915   0.56675   0.09658   0.00000  Uiso   1.00
C1323  C     0.85568   0.55892   0.09122   0.00000  Uiso   1.00
C1324  C     0.85555   0.54792   0.06519   0.00000  Uiso   1.00
C1325  C     0.86884   0.54467   0.04375   0.00000  Uiso   1.00
N1326  N     0.85798   0.58096   0.14730   0.00000  Uiso   1.00
C1327  C     0.86937   0.57844   0.12335   0.00000  Uiso   1.00
C1328  C     0.86916   0.60243   0.17283   0.00000  Uiso   1.00
C1329  C     0.86814   0.61359   0.19836   0.00000  Uiso   1.00
C1330  C     0.85556   0.61499   0.22439   0.00000  Uiso   1.00
C1331  C     0.84405   0.60498   0.22500   0.00000  Uiso   1.00
C1332  C     0.84501   0.59380   0.19975   0.00000  Uiso   1.00
C1333  C     0.85753   0.59238   0.17342   0.00000  Uiso   1.00
N1334  N     0.64527   0.37356   0.75047   0.00000  Uiso   1.00
C1335  C     0.68375   0.65382   0.25234   0.00000  Uiso   1.00
C1336  C     0.65838   0.63561   0.24987   0.00000  Uiso   1.00
C1337  C     0.69517   0.67564   0.24426   0.00000  Uiso   1.00
N1338  N     0.69674   0.66294   0.25416   0.00000  Uiso   1.00
C1339  C     0.73114   0.70569   0.24718   0.00000  Uiso   1.00
C1340  C     0.70789   0.68538   0.24545   0.00000  Uiso   1.00
C1341  C     0.74213   0.71739   0.24916   0.00000  Uiso   1.00
H1342  H     0.64533   0.65222   0.22202   0.00000  Uiso   1.00
H1343  H     0.66800   0.66860   0.22424   0.00000  Uiso   1.00
H1344  H     0.69249   0.70114   0.22221   0.00000  Uiso   1.00
H1345  H     0.71329   0.71914   0.22309   0.00000  Uiso   1.00
H1346  H     0.54107   0.65038   0.07431   0.00000  Uiso   1.00
H1347  H     0.56297   0.65187   0.12422   0.00000  Uiso   1.00
H1348  H     0.58485   0.61630   0.06957   0.00000  Uiso   1.00
H1349  H     0.56276   0.61467   0.02028   0.00000  Uiso   1.00
H1350  H     0.58631   0.64291   0.15465   0.00000  Uiso   1.00
H1351  H     0.62677   0.61506   0.12435   0.00000  Uiso   1.00
H1352  H     0.64768   0.61502   0.17747   0.00000  Uiso   1.00
H1353  H     0.61790   0.63983   0.25440   0.00000  Uiso   1.00
H1354  H     0.59725   0.64023   0.20100   0.00000  Uiso   1.00
H1355  H     0.68319   0.67903   0.23433   0.00000  Uiso   1.00
H1356  H     0.82604   0.62104   0.22113   0.00000  Uiso   1.00
H1357  H     0.80313   0.63721   0.22026   0.00000  Uiso   1.00
H1358  H     0.77411   0.67146   0.23125   0.00000  Uiso   1.00
H1359  H     0.75354   0.68993   0.22853   0.00000  Uiso   1.00
H1360  H     0.89318   0.54970   0.03188   0.00000  Uiso   1.00
H1361  H     0.89336   0.56979   0.07883   0.00000  Uiso   1.00
H1362  H     0.84471   0.56154   0.10826   0.00000  Uiso   1.00
H1363  H     0.84462   0.54162   0.06148   0.00000  Uiso   1.00
H1364  H     0.87972   0.58558   0.12348   0.00000  Uiso   1.00
H1365  H     0.87936   0.60145   0.15163   0.00000  Uiso   1.00
H1366  H     0.87757   0.62165   0.19814   0.00000  Uiso   1.00
H1367  H     0.83385   0.60595   0.24618   0.00000  Uiso   1.00
H1368  H     0.83561   0.58572   0.20034   0.00000  Uiso   1.00
C1369  C     0.22458   0.14524   0.23567   0.00000  Uiso   1.00
C1370  C     0.16937   0.15788   0.23628   0.00000  Uiso   1.00
C1371  C     0.20461   0.19853   0.23299   0.00000  Uiso   1.00
C1372  C     0.21602   0.20844   0.23366   0.00000  Uiso   1.00
S1373  S     0.23243   0.23373   0.24963   0.00000  Uiso   1.00
C1374  C     0.03689   0.13099   0.01980   0.00000  Uiso   1.00
S1375  S     0.01856   0.12994   0.04546   0.00000  Uiso   1.00
C1376  C     0.05090   0.14270   0.07335   0.00000  Uiso   1.00
C1377  C     0.06299   0.14355   0.10080   0.00000  Uiso   1.00
C1378  C     0.07515   0.13419   0.09969   0.00000  Uiso   1.00
C1379  C     0.07502   0.12396   0.07089   0.00000  Uiso   1.00
C1380  C     0.06282   0.12307   0.04347   0.00000  Uiso   1.00
C1381  C     0.05072   0.13253   0.04464   0.00000  Uiso   1.00
N1382  N     0.09926   0.12717   0.12956   0.00000  Uiso   1.00
C1383  C     0.08724   0.13509   0.12988   0.00000  Uiso   1.00
C1384  C     0.12483   0.12068   0.15346   0.00000  Uiso   1.00
C1385  C     0.13636   0.12063   0.18284   0.00000  Uiso   1.00
C1386  C     0.13396   0.12745   0.21863   0.00000  Uiso   1.00
C1387  C     0.11997   0.13434   0.22512   0.00000  Uiso   1.00
C1388  C     0.10850   0.13451   0.19571   0.00000  Uiso   1.00
C1389  C     0.11088   0.12763   0.15969   0.00000  Uiso   1.00
C1390  C     0.32729   0.13168   0.23379   0.00000  Uiso   1.00
C1391  C     0.31468   0.14066   0.23296   0.00000  Uiso   1.00
C1392  C     0.27702   0.18220   0.24111   0.00000  Uiso   1.00
C1393  C     0.26561   0.19238   0.23996   0.00000  Uiso   1.00
C1394  C     0.36925   0.03231   0.01988   0.00000  Uiso   1.00
S1395  S     0.36884   0.01633   0.04554   0.00000  Uiso   1.00
C1396  C     0.38230   0.05247   0.04911   0.00000  Uiso   1.00
C1397  C     0.38243   0.06348   0.07514   0.00000  Uiso   1.00
C1398  C     0.36915   0.06675   0.09658   0.00000  Uiso   1.00
C1399  C     0.35568   0.05892   0.09122   0.00000  Uiso   1.00
C1400  C     0.35555   0.04792   0.06519   0.00000  Uiso   1.00
C1401  C     0.36884   0.04467   0.04375   0.00000  Uiso   1.00
N1402  N     0.35798   0.08096   0.14730   0.00000  Uiso   1.00
C1403  C     0.36937   0.07844   0.12335   0.00000  Uiso   1.00
C1404  C     0.36916   0.10243   0.17283   0.00000  Uiso   1.00
C1405  C     0.36814   0.11359   0.19836   0.00000  Uiso   1.00
C1406  C     0.35556   0.11499   0.22439   0.00000  Uiso   1.00
C1407  C     0.34405   0.10498   0.22500   0.00000  Uiso   1.00
C1408  C     0.34501   0.09380   0.19975   0.00000  Uiso   1.00
C1409  C     0.35753   0.09238   0.17342   0.00000  Uiso   1.00
N1410  N     0.14527   0.87356   0.75047   0.00000  Uiso   1.00
C1411  C     0.18375   0.15382   0.25234   0.00000  Uiso   1.00
C1412  C     0.15838   0.13561   0.24987   0.00000  Uiso   1.00
C1413  C     0.19517   0.17564   0.24426   0.00000  Uiso   1.00
N1414  N     0.19674   0.16294   0.25416   0.00000  Uiso   1.00
C1415  C     0.23114   0.20569   0.24718   0.00000  Uiso   1.00
C1416  C     0.20789   0.18538   0.24545   0.00000  Uiso   1.00
C1417  C     0.24213   0.21739   0.24916   0.00000  Uiso   1.00
H1418  H     0.14533   0.15222   0.22202   0.00000  Uiso   1.00
H1419  H     0.16800   0.16860   0.22424   0.00000  Uiso   1.00
H1420  H     0.19249   0.20114   0.22221   0.00000  Uiso   1.00
H1421  H     0.21329   0.21914   0.22309   0.00000  Uiso   1.00
H1422  H     0.04107   0.15038   0.07431   0.00000  Uiso   1.00
H1423  H     0.06297   0.15187   0.12422   0.00000  Uiso   1.00
H1424  H     0.08485   0.11630   0.06957   0.00000  Uiso   1.00
H1425  H     0.06276   0.11467   0.02028   0.00000  Uiso   1.00
H1426  H     0.08631   0.14291   0.15465   0.00000  Uiso   1.00
H1427  H     0.12677   0.11506   0.12435   0.00000  Uiso   1.00
H1428  H     0.14768   0.11502   0.17747   0.00000  Uiso   1.00
H1429  H     0.11790   0.13983   0.25440   0.00000  Uiso   1.00
H1430  H     0.09725   0.14023   0.20100   0.00000  Uiso   1.00
H1431  H     0.18319   0.17903   0.23433   0.00000  Uiso   1.00
H1432  H     0.32604   0.12104   0.22113   0.00000  Uiso   1.00
H1433  H     0.30313   0.13721   0.22026   0.00000  Uiso   1.00
H1434  H     0.27411   0.17146   0.23125   0.00000  Uiso   1.00
H1435  H     0.25354   0.18993   0.22853   0.00000  Uiso   1.00
H1436  H     0.39318   0.04970   0.03188   0.00000  Uiso   1.00
H1437  H     0.39336   0.06979   0.07883   0.00000  Uiso   1.00
H1438  H     0.34471   0.06154   0.10826   0.00000  Uiso   1.00
H1439  H     0.34462   0.04162   0.06148   0.00000  Uiso   1.00
H1440  H     0.37972   0.08558   0.12348   0.00000  Uiso   1.00
H1441  H     0.37936   0.10145   0.15163   0.00000  Uiso   1.00
H1442  H     0.37757   0.12165   0.19814   0.00000  Uiso   1.00
H1443  H     0.33385   0.10595   0.24618   0.00000  Uiso   1.00
H1444  H     0.33561   0.08572   0.20034   0.00000  Uiso   1.00
C1445  C     0.22458   0.64524   0.73567   0.00000  Uiso   1.00
C1446  C     0.16937   0.65788   0.73628   0.00000  Uiso   1.00
C1447  C     0.20461   0.69853   0.73299   0.00000  Uiso   1.00
C1448  C     0.21602   0.70844   0.73366   0.00000  Uiso   1.00
S1449  S     0.23243   0.73373   0.74963   0.00000  Uiso   1.00
C1450  C     0.03689   0.63099   0.51980   0.00000  Uiso   1.00
S1451  S     0.01856   0.62994   0.54546   0.00000  Uiso   1.00
C1452  C     0.05090   0.64270   0.57335   0.00000  Uiso   1.00
C1453  C     0.06299   0.64355   0.60080   0.00000  Uiso   1.00
C1454  C     0.07515   0.63419   0.59969   0.00000  Uiso   1.00
C1455  C     0.07502   0.62396   0.57089   0.00000  Uiso   1.00
C1456  C     0.06282   0.62307   0.54347   0.00000  Uiso   1.00
C1457  C     0.05072   0.63253   0.54464   0.00000  Uiso   1.00
N1458  N     0.09926   0.62717   0.62956   0.00000  Uiso   1.00
C1459  C     0.08724   0.63509   0.62988   0.00000  Uiso   1.00
C1460  C     0.12483   0.62068   0.65346   0.00000  Uiso   1.00
C1461  C     0.13636   0.62063   0.68284   0.00000  Uiso   1.00
C1462  C     0.13396   0.62745   0.71863   0.00000  Uiso   1.00
C1463  C     0.11997   0.63434   0.72512   0.00000  Uiso   1.00
C1464  C     0.10850   0.63451   0.69571   0.00000  Uiso   1.00
C1465  C     0.11088   0.62763   0.65969   0.00000  Uiso   1.00
C1466  C     0.32729   0.63168   0.73379   0.00000  Uiso   1.00
C1467  C     0.31468   0.64066   0.73296   0.00000  Uiso   1.00
C1468  C     0.27702   0.68220   0.74111   0.00000  Uiso   1.00
C1469  C     0.26561   0.69238   0.73996   0.00000  Uiso   1.00
C1470  C     0.36925   0.53231   0.51988   0.00000  Uiso   1.00
S1471  S     0.36884   0.51633   0.54554   0.00000  Uiso   1.00
C1472  C     0.38230   0.55247   0.54911   0.00000  Uiso   1.00
C1473  C     0.38243   0.56348   0.57514   0.00000  Uiso   1.00
C1474  C     0.36915   0.56675   0.59658   0.00000  Uiso   1.00
C1475  C     0.35568   0.55892   0.59122   0.00000  Uiso   1.00
C1476  C     0.35555   0.54792   0.56519   0.00000  Uiso   1.00
C1477  C     0.36884   0.54467   0.54375   0.00000  Uiso   1.00
N1478  N     0.35798   0.58096   0.64730   0.00000  Uiso   1.00
C1479  C     0.36937   0.57844   0.62335   0.00000  Uiso   1.00
C1480  C     0.36916   0.60243   0.67283   0.00000  Uiso   1.00
C1481  C     0.36814   0.61359   0.69836   0.00000  Uiso   1.00
C1482  C     0.35556   0.61499   0.72439   0.00000  Uiso   1.00
C1483  C     0.34405   0.60498   0.72500   0.00000  Uiso   1.00
C1484  C     0.34501   0.59380   0.69975   0.00000  Uiso   1.00
C1485  C     0.35753   0.59238   0.67342   0.00000  Uiso   1.00
N1486  N     0.14527   0.37356   0.25047   0.00000  Uiso   1.00
C1487  C     0.18375   0.65382   0.75234   0.00000  Uiso   1.00
C1488  C     0.15838   0.63561   0.74987   0.00000  Uiso   1.00
C1489  C     0.19517   0.67564   0.74426   0.00000  Uiso   1.00
N1490  N     0.19674   0.66294   0.75416   0.00000  Uiso   1.00
C1491  C     0.23114   0.70569   0.74718   0.00000  Uiso   1.00
C1492  C     0.20789   0.68538   0.74545   0.00000  Uiso   1.00
C1493  C     0.24213   0.71739   0.74916   0.00000  Uiso   1.00
H1494  H     0.14533   0.65222   0.72202   0.00000  Uiso   1.00
H1495  H     0.16800   0.66860   0.72424   0.00000  Uiso   1.00
H1496  H     0.19249   0.70114   0.72221   0.00000  Uiso   1.00
H1497  H     0.21329   0.71914   0.72309   0.00000  Uiso   1.00
H1498  H     0.04107   0.65038   0.57431   0.00000  Uiso   1.00
H1499  H     0.06297   0.65187   0.62422   0.00000  Uiso   1.00
H1500  H     0.08485   0.61630   0.56957   0.00000  Uiso   1.00
H1501  H     0.06276   0.61467   0.52028   0.00000  Uiso   1.00
H1502  H     0.08631   0.64291   0.65465   0.00000  Uiso   1.00
H1503  H     0.12677   0.61506   0.62435   0.00000  Uiso   1.00
H1504  H     0.14768   0.61502   0.67747   0.00000  Uiso   1.00
H1505  H     0.11790   0.63983   0.75440   0.00000  Uiso   1.00
H1506  H     0.09725   0.64023   0.70100   0.00000  Uiso   1.00
H1507  H     0.18319   0.67903   0.73433   0.00000  Uiso   1.00
H1508  H     0.32604   0.62104   0.72113   0.00000  Uiso   1.00
H1509  H     0.30313   0.63721   0.72026   0.00000  Uiso   1.00
H1510  H     0.27411   0.67146   0.73125   0.00000  Uiso   1.00
H1511  H     0.25354   0.68993   0.72853   0.00000  Uiso   1.00
H1512  H     0.39318   0.54970   0.53188   0.00000  Uiso   1.00
H1513  H     0.39336   0.56979   0.57883   0.00000  Uiso   1.00
H1514  H     0.34471   0.56154   0.60826   0.00000  Uiso   1.00
H1515  H     0.34462   0.54162   0.56148   0.00000  Uiso   1.00
H1516  H     0.37972   0.58558   0.62348   0.00000  Uiso   1.00
H1517  H     0.37936   0.60145   0.65163   0.00000  Uiso   1.00
H1518  H     0.37757   0.62165   0.69814   0.00000  Uiso   1.00
H1519  H     0.33385   0.60595   0.74618   0.00000  Uiso   1.00
H1520  H     0.33561   0.58572   0.70034   0.00000  Uiso   1.00
C1521  C     0.27542   0.85476   0.73567   0.00000  Uiso   1.00
C1522  C     0.33063   0.84212   0.73628   0.00000  Uiso   1.00
C1523  C     0.29539   0.80147   0.73299   0.00000  Uiso   1.00
C1524  C     0.28398   0.79156   0.73366   0.00000  Uiso   1.00
S1525  S     0.26757   0.76627   0.74963   0.00000  Uiso   1.00
C1526  C     0.46311   0.86901   0.51980   0.00000  Uiso   1.00
S1527  S     0.48144   0.87006   0.54546   0.00000  Uiso   1.00
C1528  C     0.44910   0.85730   0.57335   0.00000  Uiso   1.00
C1529  C     0.43701   0.85645   0.60080   0.00000  Uiso   1.00
C1530  C     0.42485   0.86581   0.59969   0.00000  Uiso   1.00
C1531  C     0.42498   0.87604   0.57089   0.00000  Uiso   1.00
C1532  C     0.43718   0.87693   0.54347   0.00000  Uiso   1.00
C1533  C     0.44928   0.86747   0.54464   0.00000  Uiso   1.00
N1534  N     0.40074   0.87283   0.62956   0.00000  Uiso   1.00
C1535  C     0.41276   0.86491   0.62988   0.00000  Uiso   1.00
C1536  C     0.37517   0.87932   0.65346   0.00000  Uiso   1.00
C1537  C     0.36364   0.87937   0.68284   0.00000  Uiso   1.00
C1538  C     0.36604   0.87255   0.71863   0.00000  Uiso   1.00
C1539  C     0.38003   0.86566   0.72512   0.00000  Uiso   1.00
C1540  C     0.39150   0.86549   0.69571   0.00000  Uiso   1.00
C1541  C     0.38912   0.87237   0.65969   0.00000  Uiso   1.00
C1542  C     0.17271   0.86832   0.73379   0.00000  Uiso   1.00
C1543  C     0.18532   0.85934   0.73296   0.00000  Uiso   1.00
C1544  C     0.22298   0.81780   0.74111   0.00000  Uiso   1.00
C1545  C     0.23439   0.80762   0.73996   0.00000  Uiso   1.00
C1546  C     0.13075   0.96769   0.51988   0.00000  Uiso   1.00
S1547  S     0.13116   0.98367   0.54554   0.00000  Uiso   1.00
C1548  C     0.11770   0.94753   0.54911   0.00000  Uiso   1.00
C1549  C     0.11757   0.93652   0.57514   0.00000  Uiso   1.00
C1550  C     0.13085   0.93325   0.59658   0.00000  Uiso   1.00
C1551  C     0.14432   0.94108   0.59122   0.00000  Uiso   1.00
C1552  C     0.14445   0.95208   0.56519   0.00000  Uiso   1.00
C1553  C     0.13116   0.95533   0.54375   0.00000  Uiso   1.00
N1554  N     0.14202   0.91904   0.64730   0.00000  Uiso   1.00
C1555  C     0.13063   0.92156   0.62335   0.00000  Uiso   1.00
C1556  C     0.13084   0.89757   0.67283   0.00000  Uiso   1.00
C1557  C     0.13186   0.88641   0.69836   0.00000  Uiso   1.00
C1558  C     0.14444   0.88501   0.72439   0.00000  Uiso   1.00
C1559  C     0.15595   0.89502   0.72500   0.00000  Uiso   1.00
C1560  C     0.15499   0.90620   0.69975   0.00000  Uiso   1.00
C1561  C     0.14247   0.90762   0.67342   0.00000  Uiso   1.00
N1562  N     0.35473   0.12644   0.25047   0.00000  Uiso   1.00
C1563  C     0.31625   0.84618   0.75234   0.00000  Uiso   1.00
C1564  C     0.34162   0.86439   0.74987   0.00000  Uiso   1.00
C1565  C     0.30483   0.82436   0.74426   0.00000  Uiso   1.00
N1566  N     0.30326   0.83706   0.75416   0.00000  Uiso   1.00
C1567  C     0.26886   0.79431   0.74718   0.00000  Uiso   1.00
C1568  C     0.29211   0.81462   0.74545   0.00000  Uiso   1.00
C1569  C     0.25787   0.78261   0.74916   0.00000  Uiso   1.00
H1570  H     0.35467   0.84778   0.72202   0.00000  Uiso   1.00
H1571  H     0.33200   0.83140   0.72424   0.00000  Uiso   1.00
H1572  H     0.30751   0.79886   0.72221   0.00000  Uiso   1.00
H1573  H     0.28671   0.78086   0.72309   0.00000  Uiso   1.00
H1574  H     0.45893   0.84962   0.57431   0.00000  Uiso   1.00
H1575  H     0.43703   0.84813   0.62422   0.00000  Uiso   1.00
H1576  H     0.41515   0.88370   0.56957   0.00000  Uiso   1.00
H1577  H     0.43724   0.88533   0.52028   0.00000  Uiso   1.00
H1578  H     0.41369   0.85709   0.65465   0.00000  Uiso   1.00
H1579  H     0.37323   0.88494   0.62435   0.00000  Uiso   1.00
H1580  H     0.35232   0.88498   0.67747   0.00000  Uiso   1.00
H1581  H     0.38210   0.86017   0.75440   0.00000  Uiso   1.00
H1582  H     0.40275   0.85977   0.70100   0.00000  Uiso   1.00
H1583  H     0.31681   0.82097   0.73433   0.00000  Uiso   1.00
H1584  H     0.17396   0.87896   0.72113   0.00000  Uiso   1.00
H1585  H     0.19687   0.86279   0.72026   0.00000  Uiso   1.00
H1586  H     0.22589   0.82854   0.73125   0.00000  Uiso   1.00
H1587  H     0.24646   0.81007   0.72853   0.00000  Uiso   1.00
H1588  H     0.10682   0.95030   0.53188   0.00000  Uiso   1.00
H1589  H     0.10664   0.93021   0.57883   0.00000  Uiso   1.00
H1590  H     0.15529   0.93846   0.60826   0.00000  Uiso   1.00
H1591  H     0.15538   0.95838   0.56148   0.00000  Uiso   1.00
H1592  H     0.12028   0.91442   0.62348   0.00000  Uiso   1.00
H1593  H     0.12064   0.89855   0.65163   0.00000  Uiso   1.00
H1594  H     0.12243   0.87835   0.69814   0.00000  Uiso   1.00
H1595  H     0.16615   0.89405   0.74618   0.00000  Uiso   1.00
H1596  H     0.16439   0.91428   0.70034   0.00000  Uiso   1.00
C1597  C     0.27542   0.35476   0.23567   0.00000  Uiso   1.00
C1598  C     0.33063   0.34212   0.23628   0.00000  Uiso   1.00
C1599  C     0.29539   0.30147   0.23299   0.00000  Uiso   1.00
C1600  C     0.28398   0.29156   0.23366   0.00000  Uiso   1.00
S1601  S     0.26757   0.26627   0.24963   0.00000  Uiso   1.00
C1602  C     0.46311   0.36901   0.01980   0.00000  Uiso   1.00
S1603  S     0.48144   0.37006   0.04546   0.00000  Uiso   1.00
C1604  C     0.44910   0.35730   0.07335   0.00000  Uiso   1.00
C1605  C     0.43701   0.35645   0.10080   0.00000  Uiso   1.00
C1606  C     0.42485   0.36581   0.09969   0.00000  Uiso   1.00
C1607  C     0.42498   0.37604   0.07089   0.00000  Uiso   1.00
C1608  C     0.43718   0.37693   0.04347   0.00000  Uiso   1.00
C1609  C     0.44928   0.36747   0.04464   0.00000  Uiso   1.00
N1610  N     0.40074   0.37283   0.12956   0.00000  Uiso   1.00
C1611  C     0.41276   0.36491   0.12988   0.00000  Uiso   1.00
C1612  C     0.37517   0.37932   0.15346   0.00000  Uiso   1.00
C1613  C     0.36364   0.37937   0.18284   0.00000  Uiso   1.00
C1614  C     0.36604   0.37255   0.21863   0.00000  Uiso   1.00
C1615  C     0.38003   0.36566   0.22512   0.00000  Uiso   1.00
C1616  C     0.39150   0.36549   0.19571   0.00000  Uiso   1.00
C1617  C     0.38912   0.37237   0.15969   0.00000  Uiso   1.00
C1618  C     0.17271   0.36832   0.23379   0.00000  Uiso   1.00
C1619  C     0.18532   0.35934   0.23296   0.00000  Uiso   1.00
C1620  C     0.22298   0.31780   0.24111   0.00000  Uiso   1.00
C1621  C     0.23439   0.30762   0.23996   0.00000  Uiso   1.00
C1622  C     0.13075   0.46769   0.01988   0.00000  Uiso   1.00
S1623  S     0.13116   0.48367   0.04554   0.00000  Uiso   1.00
C1624  C     0.11770   0.44753   0.04911   0.00000  Uiso   1.00
C1625  C     0.11757   0.43652   0.07514   0.00000  Uiso   1.00
C1626  C     0.13085   0.43325   0.09658   0.00000  Uiso   1.00
C1627  C     0.14432   0.44108   0.09122   0.00000  Uiso   1.00
C1628  C     0.14445   0.45208   0.06519   0.00000  Uiso   1.00
C1629  C     0.13116   0.45533   0.04375   0.00000  Uiso   1.00
N1630  N     0.14202   0.41904   0.14730   0.00000  Uiso   1.00
C1631  C     0.13063   0.42156   0.12335   0.00000  Uiso   1.00
C1632  C     0.13084   0.39757   0.17283   0.00000  Uiso   1.00
C1633  C     0.13186   0.38641   0.19836   0.00000  Uiso   1.00
C1634  C     0.14444   0.38501   0.22439   0.00000  Uiso   1.00
C1635  C     0.15595   0.39502   0.22500   0.00000  Uiso   1.00
C1636  C     0.15499   0.40620   0.19975   0.00000  Uiso   1.00
C1637  C     0.14247   0.40762   0.17342   0.00000  Uiso   1.00
N1638  N     0.35473   0.62644   0.75047   0.00000  Uiso   1.00
C1639  C     0.31625   0.34618   0.25234   0.00000  Uiso   1.00
C1640  C     0.34162   0.36439   0.24987   0.00000  Uiso   1.00
C1641  C     0.30483   0.32436   0.24426   0.00000  Uiso   1.00
N1642  N     0.30326   0.33706   0.25416   0.00000  Uiso   1.00
C1643  C     0.26886   0.29431   0.24718   0.00000  Uiso   1.00
C1644  C     0.29211   0.31462   0.24545   0.00000  Uiso   1.00
C1645  C     0.25787   0.28261   0.24916   0.00000  Uiso   1.00
H1646  H     0.35467   0.34778   0.22202   0.00000  Uiso   1.00
H1647  H     0.33200   0.33140   0.22424   0.00000  Uiso   1.00
H1648  H     0.30751   0.29886   0.22221   0.00000  Uiso   1.00
H1649  H     0.28671   0.28086   0.22309   0.00000  Uiso   1.00
H1650  H     0.45893   0.34962   0.07431   0.00000  Uiso   1.00
H1651  H     0.43703   0.34813   0.12422   0.00000  Uiso   1.00
H1652  H     0.41515   0.38370   0.06957   0.00000  Uiso   1.00
H1653  H     0.43724   0.38533   0.02028   0.00000  Uiso   1.00
H1654  H     0.41369   0.35709   0.15465   0.00000  Uiso   1.00
H1655  H     0.37323   0.38494   0.12435   0.00000  Uiso   1.00
H1656  H     0.35232   0.38498   0.17747   0.00000  Uiso   1.00
H1657  H     0.38210   0.36017   0.25440   0.00000  Uiso   1.00
H1658  H     0.40275   0.35977   0.20100   0.00000  Uiso   1.00
H1659  H     0.31681   0.32097   0.23433   0.00000  Uiso   1.00
H1660  H     0.17396   0.37896   0.22113   0.00000  Uiso   1.00
H1661  H     0.19687   0.36279   0.22026   0.00000  Uiso   1.00
H1662  H     0.22589   0.32854   0.23125   0.00000  Uiso   1.00
H1663  H     0.24646   0.31007   0.22853   0.00000  Uiso   1.00
H1664  H     0.10682   0.45030   0.03188   0.00000  Uiso   1.00
H1665  H     0.10664   0.43021   0.07883   0.00000  Uiso   1.00
H1666  H     0.15529   0.43846   0.10826   0.00000  Uiso   1.00
H1667  H     0.15538   0.45838   0.06148   0.00000  Uiso   1.00
H1668  H     0.12028   0.41442   0.12348   0.00000  Uiso   1.00
H1669  H     0.12064   0.39855   0.15163   0.00000  Uiso   1.00
H1670  H     0.12243   0.37835   0.19814   0.00000  Uiso   1.00
H1671  H     0.16615   0.39405   0.24618   0.00000  Uiso   1.00
H1672  H     0.16439   0.41428   0.20034   0.00000  Uiso   1.00
C1673  C     0.77542   0.85476   0.23567   0.00000  Uiso   1.00
C1674  C     0.83063   0.84212   0.23628   0.00000  Uiso   1.00
C1675  C     0.79539   0.80147   0.23299   0.00000  Uiso   1.00
C1676  C     0.78398   0.79156   0.23366   0.00000  Uiso   1.00
S1677  S     0.76757   0.76627   0.24963   0.00000  Uiso   1.00
C1678  C     0.96311   0.86901   0.01980   0.00000  Uiso   1.00
S1679  S     0.98144   0.87006   0.04546   0.00000  Uiso   1.00
C1680  C     0.94910   0.85730   0.07335   0.00000  Uiso   1.00
C1681  C     0.93701   0.85645   0.10080   0.00000  Uiso   1.00
C1682  C     0.92485   0.86581   0.09969   0.00000  Uiso   1.00
C1683  C     0.92498   0.87604   0.07089   0.00000  Uiso   1.00
C1684  C     0.93718   0.87693   0.04347   0.00000  Uiso   1.00
C1685  C     0.94928   0.86747   0.04464   0.00000  Uiso   1.00
N1686  N     0.90074   0.87283   0.12956   0.00000  Uiso   1.00
C1687  C     0.91276   0.86491   0.12988   0.00000  Uiso   1.00
C1688  C     0.87517   0.87932   0.15346   0.00000  Uiso   1.00
C1689  C     0.86364   0.87937   0.18284   0.00000  Uiso   1.00
C1690  C     0.86604   0.87255   0.21863   0.00000  Uiso   1.00
C1691  C     0.88003   0.86566   0.22512   0.00000  Uiso   1.00
C1692  C     0.89150   0.86549   0.19571   0.00000  Uiso   1.00
C1693  C     0.88912   0.87237   0.15969   0.00000  Uiso   1.00
C1694  C     0.67271   0.86832   0.23379   0.00000  Uiso   1.00
C1695  C     0.68532   0.85934   0.23296   0.00000  Uiso   1.00
C1696  C     0.72298   0.81780   0.24111   0.00000  Uiso   1.00
C1697  C     0.73439   0.80762   0.23996   0.00000  Uiso   1.00
C1698  C     0.63075   0.96769   0.01988   0.00000  Uiso   1.00
S1699  S     0.63116   0.98367   0.04554   0.00000  Uiso   1.00
C1700  C     0.61770   0.94753   0.04911   0.00000  Uiso   1.00
C1701  C     0.61757   0.93652   0.07514   0.00000  Uiso   1.00
C1702  C     0.63085   0.93325   0.09658   0.00000  Uiso   1.00
C1703  C     0.64432   0.94108   0.09122   0.00000  Uiso   1.00
C1704  C     0.64445   0.95208   0.06519   0.00000  Uiso   1.00
C1705  C     0.63116   0.95533   0.04375   0.00000  Uiso   1.00
N1706  N     0.64202   0.91904   0.14730   0.00000  Uiso   1.00
C1707  C     0.63063   0.92156   0.12335   0.00000  Uiso   1.00
C1708  C     0.63084   0.89757   0.17283   0.00000  Uiso   1.00
C1709  C     0.63186   0.88641   0.19836   0.00000  Uiso   1.00
C1710  C     0.64444   0.88501   0.22439   0.00000  Uiso   1.00
C1711  C     0.65595   0.89502   0.22500   0.00000  Uiso   1.00
C1712  C     0.65499   0.90620   0.19975   0.00000  Uiso   1.00
C1713  C     0.64247   0.90762   0.17342   0.00000  Uiso   1.00
N1714  N     0.85473   0.12644   0.75047   0.00000  Uiso   1.00
C1715  C     0.81625   0.84618   0.25234   0.00000  Uiso   1.00
C1716  C     0.84162   0.86439   0.24987   0.00000  Uiso   1.00
C1717  C     0.80483   0.82436   0.24426   0.00000  Uiso   1.00
N1718  N     0.80326   0.83706   0.25416   0.00000  Uiso   1.00
C1719  C     0.76886   0.79431   0.24718   0.00000  Uiso   1.00
C1720  C     0.79211   0.81462   0.24545   0.00000  Uiso   1.00
C1721  C     0.75787   0.78261   0.24916   0.00000  Uiso   1.00
H1722  H     0.85467   0.84778   0.22202   0.00000  Uiso   1.00
H1723  H     0.83200   0.83140   0.22424   0.00000  Uiso   1.00
H1724  H     0.80751   0.79886   0.22221   0.00000  Uiso   1.00
H1725  H     0.78671   0.78086   0.22309   0.00000  Uiso   1.00
H1726  H     0.95893   0.84962   0.07431   0.00000  Uiso   1.00
H1727  H     0.93703   0.84813   0.12422   0.00000  Uiso   1.00
H1728  H     0.91515   0.88370   0.06957   0.00000  Uiso   1.00
H1729  H     0.93724   0.88533   0.02028   0.00000  Uiso   1.00
H1730  H     0.91369   0.85709   0.15465   0.00000  Uiso   1.00
H1731  H     0.87323   0.88494   0.12435   0.00000  Uiso   1.00
H1732  H     0.85232   0.88498   0.17747   0.00000  Uiso   1.00
H1733  H     0.88210   0.86017   0.25440   0.00000  Uiso   1.00
H1734  H     0.90275   0.85977   0.20100   0.00000  Uiso   1.00
H1735  H     0.81681   0.82097   0.23433   0.00000  Uiso   1.00
H1736  H     0.67396   0.87896   0.22113   0.00000  Uiso   1.00
H1737  H     0.69687   0.86279   0.22026   0.00000  Uiso   1.00
H1738  H     0.72589   0.82854   0.23125   0.00000  Uiso   1.00
H1739  H     0.74646   0.81007   0.22853   0.00000  Uiso   1.00
H1740  H     0.60682   0.95030   0.03188   0.00000  Uiso   1.00
H1741  H     0.60664   0.93021   0.07883   0.00000  Uiso   1.00
H1742  H     0.65529   0.93846   0.10826   0.00000  Uiso   1.00
H1743  H     0.65538   0.95838   0.06148   0.00000  Uiso   1.00
H1744  H     0.62028   0.91442   0.12348   0.00000  Uiso   1.00
H1745  H     0.62064   0.89855   0.15163   0.00000  Uiso   1.00
H1746  H     0.62243   0.87835   0.19814   0.00000  Uiso   1.00
H1747  H     0.66615   0.89405   0.24618   0.00000  Uiso   1.00
H1748  H     0.66439   0.91428   0.20034   0.00000  Uiso   1.00
C1749  C     0.77542   0.35476   0.73567   0.00000  Uiso   1.00
C1750  C     0.83063   0.34212   0.73628   0.00000  Uiso   1.00
C1751  C     0.79539   0.30147   0.73299   0.00000  Uiso   1.00
C1752  C     0.78398   0.29156   0.73366   0.00000  Uiso   1.00
S1753  S     0.76757   0.26627   0.74963   0.00000  Uiso   1.00
C1754  C     0.96311   0.36901   0.51980   0.00000  Uiso   1.00
S1755  S     0.98144   0.37006   0.54546   0.00000  Uiso   1.00
C1756  C     0.94910   0.35730   0.57335   0.00000  Uiso   1.00
C1757  C     0.93701   0.35645   0.60080   0.00000  Uiso   1.00
C1758  C     0.92485   0.36581   0.59969   0.00000  Uiso   1.00
C1759  C     0.92498   0.37604   0.57089   0.00000  Uiso   1.00
C1760  C     0.93718   0.37693   0.54347   0.00000  Uiso   1.00
C1761  C     0.94928   0.36747   0.54464   0.00000  Uiso   1.00
N1762  N     0.90074   0.37283   0.62956   0.00000  Uiso   1.00
C1763  C     0.91276   0.36491   0.62988   0.00000  Uiso   1.00
C1764  C     0.87517   0.37932   0.65346   0.00000  Uiso   1.00
C1765  C     0.86364   0.37937   0.68284   0.00000  Uiso   1.00
C1766  C     0.86604   0.37255   0.71863   0.00000  Uiso   1.00
C1767  C     0.88003   0.36566   0.72512   0.00000  Uiso   1.00
C1768  C     0.89150   0.36549   0.69571   0.00000  Uiso   1.00
C1769  C     0.88912   0.37237   0.65969   0.00000  Uiso   1.00
C1770  C     0.67271   0.36832   0.73379   0.00000  Uiso   1.00
C1771  C     0.68532   0.35934   0.73296   0.00000  Uiso   1.00
C1772  C     0.72298   0.31780   0.74111   0.00000  Uiso   1.00
C1773  C     0.73439   0.30762   0.73996   0.00000  Uiso   1.00
C1774  C     0.63075   0.46769   0.51988   0.00000  Uiso   1.00
S1775  S     0.63116   0.48367   0.54554   0.00000  Uiso   1.00
C1776  C     0.61770   0.44753   0.54911   0.00000  Uiso   1.00
C1777  C     0.61757   0.43652   0.57514   0.00000  Uiso   1.00
C1778  C     0.63085   0.43325   0.59658   0.00000  Uiso   1.00
C1779  C     0.64432   0.44108   0.59122   0.00000  Uiso   1.00
C1780  C     0.64445   0.45208   0.56519   0.00000  Uiso   1.00
C1781  C     0.63116   0.45533   0.54375   0.00000  Uiso   1.00
N1782  N     0.64202   0.41904   0.64730   0.00000  Uiso   1.00
C1783  C     0.63063   0.42156   0.62335   0.00000  Uiso   1.00
C1784  C     0.63084   0.39757   0.67283   0.00000  Uiso   1.00
C1785  C     0.63186   0.38641   0.69836   0.00000  Uiso   1.00
C1786  C     0.64444   0.38501   0.72439   0.00000  Uiso   1.00
C1787  C     0.65595   0.39502   0.72500   0.00000  Uiso   1.00
C1788  C     0.65499   0.40620   0.69975   0.00000  Uiso   1.00
C1789  C     0.64247   0.40762   0.67342   0.00000  Uiso   1.00
N1790  N     0.85473   0.62644   0.25047   0.00000  Uiso   1.00
C1791  C     0.81625   0.34618   0.75234   0.00000  Uiso   1.00
C1792  C     0.84162   0.36439   0.74987   0.00000  Uiso   1.00
C1793  C     0.80483   0.32436   0.74426   0.00000  Uiso   1.00
N1794  N     0.80326   0.33706   0.75416   0.00000  Uiso   1.00
C1795  C     0.76886   0.29431   0.74718   0.00000  Uiso   1.00
C1796  C     0.79211   0.31462   0.74545   0.00000  Uiso   1.00
C1797  C     0.75787   0.28261   0.74916   0.00000  Uiso   1.00
H1798  H     0.85467   0.34778   0.72202   0.00000  Uiso   1.00
H1799  H     0.83200   0.33140   0.72424   0.00000  Uiso   1.00
H1800  H     0.80751   0.29886   0.72221   0.00000  Uiso   1.00
H1801  H     0.78671   0.28086   0.72309   0.00000  Uiso   1.00
H1802  H     0.95893   0.34962   0.57431   0.00000  Uiso   1.00
H1803  H     0.93703   0.34813   0.62422   0.00000  Uiso   1.00
H1804  H     0.91515   0.38370   0.56957   0.00000  Uiso   1.00
H1805  H     0.93724   0.38533   0.52028   0.00000  Uiso   1.00
H1806  H     0.91369   0.35709   0.65465   0.00000  Uiso   1.00
H1807  H     0.87323   0.38494   0.62435   0.00000  Uiso   1.00
H1808  H     0.85232   0.38498   0.67747   0.00000  Uiso   1.00
H1809  H     0.88210   0.36017   0.75440   0.00000  Uiso   1.00
H1810  H     0.90275   0.35977   0.70100   0.00000  Uiso   1.00
H1811  H     0.81681   0.32097   0.73433   0.00000  Uiso   1.00
H1812  H     0.67396   0.37896   0.72113   0.00000  Uiso   1.00
H1813  H     0.69687   0.36279   0.72026   0.00000  Uiso   1.00
H1814  H     0.72589   0.32854   0.73125   0.00000  Uiso   1.00
H1815  H     0.74646   0.31007   0.72853   0.00000  Uiso   1.00
H1816  H     0.60682   0.45030   0.53188   0.00000  Uiso   1.00
H1817  H     0.60664   0.43021   0.57883   0.00000  Uiso   1.00
H1818  H     0.65529   0.43846   0.60826   0.00000  Uiso   1.00
H1819  H     0.65538   0.45838   0.56148   0.00000  Uiso   1.00
H1820  H     0.62028   0.41442   0.62348   0.00000  Uiso   1.00
H1821  H     0.62064   0.39855   0.65163   0.00000  Uiso   1.00
H1822  H     0.62243   0.37835   0.69814   0.00000  Uiso   1.00
H1823  H     0.66615   0.39405   0.74618   0.00000  Uiso   1.00
H1824  H     0.66439   0.41428   0.70034   0.00000  Uiso   1.00
C1825  C     0.27542   0.14524   0.26433   0.00000  Uiso   1.00
C1826  C     0.33063   0.15788   0.26372   0.00000  Uiso   1.00
C1827  C     0.29539   0.19853   0.26701   0.00000  Uiso   1.00
C1828  C     0.28398   0.20844   0.26634   0.00000  Uiso   1.00
S1829  S     0.26757   0.23373   0.25037   0.00000  Uiso   1.00
C1830  C     0.46311   0.13099   0.48020   0.00000  Uiso   1.00
S1831  S     0.48144   0.12994   0.45454   0.00000  Uiso   1.00
C1832  C     0.44910   0.14270   0.42665   0.00000  Uiso   1.00
C1833  C     0.43701   0.14355   0.39920   0.00000  Uiso   1.00
C1834  C     0.42485   0.13419   0.40031   0.00000  Uiso   1.00
C1835  C     0.42498   0.12396   0.42911   0.00000  Uiso   1.00
C1836  C     0.43718   0.12307   0.45653   0.00000  Uiso   1.00
C1837  C     0.44928   0.13253   0.45536   0.00000  Uiso   1.00
N1838  N     0.40074   0.12717   0.37044   0.00000  Uiso   1.00
C1839  C     0.41276   0.13509   0.37012   0.00000  Uiso   1.00
C1840  C     0.37517   0.12068   0.34654   0.00000  Uiso   1.00
C1841  C     0.36364   0.12063   0.31716   0.00000  Uiso   1.00
C1842  C     0.36604   0.12745   0.28137   0.00000  Uiso   1.00
C1843  C     0.38003   0.13434   0.27488   0.00000  Uiso   1.00
C1844  C     0.39150   0.13451   0.30429   0.00000  Uiso   1.00
C1845  C     0.38912   0.12763   0.34031   0.00000  Uiso   1.00
C1846  C     0.17271   0.13168   0.26621   0.00000  Uiso   1.00
C1847  C     0.18532   0.14066   0.26704   0.00000  Uiso   1.00
C1848  C     0.22298   0.18220   0.25889   0.00000  Uiso   1.00
C1849  C     0.23439   0.19238   0.26004   0.00000  Uiso   1.00
C1850  C     0.13075   0.03231   0.48012   0.00000  Uiso   1.00
S1851  S     0.13116   0.01633   0.45446   0.00000  Uiso   1.00
C1852  C     0.11770   0.05247   0.45089   0.00000  Uiso   1.00
C1853  C     0.11757   0.06348   0.42486   0.00000  Uiso   1.00
C1854  C     0.13085   0.06675   0.40342   0.00000  Uiso   1.00
C1855  C     0.14432   0.05892   0.40878   0.00000  Uiso   1.00
C1856  C     0.14445   0.04792   0.43481   0.00000  Uiso   1.00
C1857  C     0.13116   0.04467   0.45625   0.00000  Uiso   1.00
N1858  N     0.14202   0.08096   0.35270   0.00000  Uiso   1.00
C1859  C     0.13063   0.07844   0.37665   0.00000  Uiso   1.00
C1860  C     0.13084   0.10243   0.32717   0.00000  Uiso   1.00
C1861  C     0.13186   0.11359   0.30164   0.00000  Uiso   1.00
C1862  C     0.14444   0.11499   0.27561   0.00000  Uiso   1.00
C1863  C     0.15595   0.10498   0.27500   0.00000  Uiso   1.00
C1864  C     0.15499   0.09380   0.30025   0.00000  Uiso   1.00
C1865  C     0.14247   0.09238   0.32658   0.00000  Uiso   1.00
N1866  N     0.35473   0.87356   0.74953   0.00000  Uiso   1.00
C1867  C     0.31625   0.15382   0.24766   0.00000  Uiso   1.00
C1868  C     0.34162   0.13561   0.25013   0.00000  Uiso   1.00
C1869  C     0.30483   0.17564   0.25574   0.00000  Uiso   1.00
N1870  N     0.30326   0.16294   0.24584   0.00000  Uiso   1.00
C1871  C     0.26886   0.20569   0.25282   0.00000  Uiso   1.00
C1872  C     0.29211   0.18538   0.25455   0.00000  Uiso   1.00
C1873  C     0.25787   0.21739   0.25084   0.00000  Uiso   1.00
H1874  H     0.35467   0.15222   0.27798   0.00000  Uiso   1.00
H1875  H     0.33200   0.16860   0.27576   0.00000  Uiso   1.00
H1876  H     0.30751   0.20114   0.27779   0.00000  Uiso   1.00
H1877  H     0.28671   0.21914   0.27691   0.00000  Uiso   1.00
H1878  H     0.45893   0.15038   0.42569   0.00000  Uiso   1.00
H1879  H     0.43703   0.15187   0.37578   0.00000  Uiso   1.00
H1880  H     0.41515   0.11630   0.43043   0.00000  Uiso   1.00
H1881  H     0.43724   0.11467   0.47972   0.00000  Uiso   1.00
H1882  H     0.41369   0.14291   0.34535   0.00000  Uiso   1.00
H1883  H     0.37323   0.11506   0.37565   0.00000  Uiso   1.00
H1884  H     0.35232   0.11502   0.32253   0.00000  Uiso   1.00
H1885  H     0.38210   0.13983   0.24560   0.00000  Uiso   1.00
H1886  H     0.40275   0.14023   0.29900   0.00000  Uiso   1.00
H1887  H     0.31681   0.17903   0.26567   0.00000  Uiso   1.00
H1888  H     0.17396   0.12104   0.27887   0.00000  Uiso   1.00
H1889  H     0.19687   0.13721   0.27974   0.00000  Uiso   1.00
H1890  H     0.22589   0.17146   0.26875   0.00000  Uiso   1.00
H1891  H     0.24646   0.18993   0.27147   0.00000  Uiso   1.00
H1892  H     0.10682   0.04970   0.46812   0.00000  Uiso   1.00
H1893  H     0.10664   0.06979   0.42117   0.00000  Uiso   1.00
H1894  H     0.15529   0.06154   0.39174   0.00000  Uiso   1.00
H1895  H     0.15538   0.04162   0.43852   0.00000  Uiso   1.00
H1896  H     0.12028   0.08558   0.37652   0.00000  Uiso   1.00
H1897  H     0.12064   0.10145   0.34837   0.00000  Uiso   1.00
H1898  H     0.12243   0.12165   0.30186   0.00000  Uiso   1.00
H1899  H     0.16615   0.10595   0.25382   0.00000  Uiso   1.00
H1900  H     0.16439   0.08572   0.29966   0.00000  Uiso   1.00
C1901  C     0.27542   0.64524   0.76433   0.00000  Uiso   1.00
C1902  C     0.33063   0.65788   0.76372   0.00000  Uiso   1.00
C1903  C     0.29539   0.69853   0.76701   0.00000  Uiso   1.00
C1904  C     0.28398   0.70844   0.76634   0.00000  Uiso   1.00
S1905  S     0.26757   0.73373   0.75037   0.00000  Uiso   1.00
C1906  C     0.46311   0.63099   0.98020   0.00000  Uiso   1.00
S1907  S     0.48144   0.62994   0.95454   0.00000  Uiso   1.00
C1908  C     0.44910   0.64270   0.92665   0.00000  Uiso   1.00
C1909  C     0.43701   0.64355   0.89920   0.00000  Uiso   1.00
C1910  C     0.42485   0.63419   0.90031   0.00000  Uiso   1.00
C1911  C     0.42498   0.62396   0.92911   0.00000  Uiso   1.00
C1912  C     0.43718   0.62307   0.95653   0.00000  Uiso   1.00
C1913  C     0.44928   0.63253   0.95536   0.00000  Uiso   1.00
N1914  N     0.40074   0.62717   0.87044   0.00000  Uiso   1.00
C1915  C     0.41276   0.63509   0.87012   0.00000  Uiso   1.00
C1916  C     0.37517   0.62068   0.84654   0.00000  Uiso   1.00
C1917  C     0.36364   0.62063   0.81716   0.00000  Uiso   1.00
C1918  C     0.36604   0.62745   0.78137   0.00000  Uiso   1.00
C1919  C     0.38003   0.63434   0.77488   0.00000  Uiso   1.00
C1920  C     0.39150   0.63451   0.80429   0.00000  Uiso   1.00
C1921  C     0.38912   0.62763   0.84031   0.00000  Uiso   1.00
C1922  C     0.17271   0.63168   0.76621   0.00000  Uiso   1.00
C1923  C     0.18532   0.64066   0.76704   0.00000  Uiso   1.00
C1924  C     0.22298   0.68220   0.75889   0.00000  Uiso   1.00
C1925  C     0.23439   0.69238   0.76004   0.00000  Uiso   1.00
C1926  C     0.13075   0.53231   0.98012   0.00000  Uiso   1.00
S1927  S     0.13116   0.51633   0.95446   0.00000  Uiso   1.00
C1928  C     0.11770   0.55247   0.95089   0.00000  Uiso   1.00
C1929  C     0.11757   0.56348   0.92486   0.00000  Uiso   1.00
C1930  C     0.13085   0.56675   0.90342   0.00000  Uiso   1.00
C1931  C     0.14432   0.55892   0.90878   0.00000  Uiso   1.00
C1932  C     0.14445   0.54792   0.93481   0.00000  Uiso   1.00
C1933  C     0.13116   0.54467   0.95625   0.00000  Uiso   1.00
N1934  N     0.14202   0.58096   0.85270   0.00000  Uiso   1.00
C1935  C     0.13063   0.57844   0.87665   0.00000  Uiso   1.00
C1936  C     0.13084   0.60243   0.82717   0.00000  Uiso   1.00
C1937  C     0.13186   0.61359   0.80164   0.00000  Uiso   1.00
C1938  C     0.14444   0.61499   0.77561   0.00000  Uiso   1.00
C1939  C     0.15595   0.60498   0.77500   0.00000  Uiso   1.00
C1940  C     0.15499   0.59380   0.80025   0.00000  Uiso   1.00
C1941  C     0.14247   0.59238   0.82658   0.00000  Uiso   1.00
N1942  N     0.35473   0.37356   0.24953   0.00000  Uiso   1.00
C1943  C     0.31625   0.65382   0.74766   0.00000  Uiso   1.00
C1944  C     0.34162   0.63561   0.75013   0.00000  Uiso   1.00
C1945  C     0.30483   0.67564   0.75574   0.00000  Uiso   1.00
N1946  N     0.30326   0.66294   0.74584   0.00000  Uiso   1.00
C1947  C     0.26886   0.70569   0.75282   0.00000  Uiso   1.00
C1948  C     0.29211   0.68538   0.75455   0.00000  Uiso   1.00
C1949  C     0.25787   0.71739   0.75084   0.00000  Uiso   1.00
H1950  H     0.35467   0.65222   0.77798   0.00000  Uiso   1.00
H1951  H     0.33200   0.66860   0.77576   0.00000  Uiso   1.00
H1952  H     0.30751   0.70114   0.77779   0.00000  Uiso   1.00
H1953  H     0.28671   0.71914   0.77691   0.00000  Uiso   1.00
H1954  H     0.45893   0.65038   0.92569   0.00000  Uiso   1.00
H1955  H     0.43703   0.65187   0.87578   0.00000  Uiso   1.00
H1956  H     0.41515   0.61630   0.93043   0.00000  Uiso   1.00
H1957  H     0.43724   0.61467   0.97972   0.00000  Uiso   1.00
H1958  H     0.41369   0.64291   0.84535   0.00000  Uiso   1.00
H1959  H     0.37323   0.61506   0.87565   0.00000  Uiso   1.00
H1960  H     0.35232   0.61502   0.82253   0.00000  Uiso   1.00
H1961  H     0.38210   0.63983   0.74560   0.00000  Uiso   1.00
H1962  H     0.40275   0.64023   0.79900   0.00000  Uiso   1.00
H1963  H     0.31681   0.67903   0.76567   0.00000  Uiso   1.00
H1964  H     0.17396   0.62104   0.77887   0.00000  Uiso   1.00
H1965  H     0.19687   0.63721   0.77974   0.00000  Uiso   1.00
H1966  H     0.22589   0.67146   0.76875   0.00000  Uiso   1.00
H1967  H     0.24646   0.68993   0.77147   0.00000  Uiso   1.00
H1968  H     0.10682   0.54970   0.96812   0.00000  Uiso   1.00
H1969  H     0.10664   0.56979   0.92117   0.00000  Uiso   1.00
H1970  H     0.15529   0.56154   0.89174   0.00000  Uiso   1.00
H1971  H     0.15538   0.54162   0.93852   0.00000  Uiso   1.00
H1972  H     0.12028   0.58558   0.87652   0.00000  Uiso   1.00
H1973  H     0.12064   0.60145   0.84837   0.00000  Uiso   1.00
H1974  H     0.12243   0.62165   0.80186   0.00000  Uiso   1.00
H1975  H     0.16615   0.60595   0.75382   0.00000  Uiso   1.00
H1976  H     0.16439   0.58572   0.79966   0.00000  Uiso   1.00
C1977  C     0.77542   0.14524   0.76433   0.00000  Uiso   1.00
C1978  C     0.83063   0.15788   0.76372   0.00000  Uiso   1.00
C1979  C     0.79539   0.19853   0.76701   0.00000  Uiso   1.00
C1980  C     0.78398   0.20844   0.76634   0.00000  Uiso   1.00
S1981  S     0.76757   0.23373   0.75037   0.00000  Uiso   1.00
C1982  C     0.96311   0.13099   0.98020   0.00000  Uiso   1.00
S1983  S     0.98144   0.12994   0.95454   0.00000  Uiso   1.00
C1984  C     0.94910   0.14270   0.92665   0.00000  Uiso   1.00
C1985  C     0.93701   0.14355   0.89920   0.00000  Uiso   1.00
C1986  C     0.92485   0.13419   0.90031   0.00000  Uiso   1.00
C1987  C     0.92498   0.12396   0.92911   0.00000  Uiso   1.00
C1988  C     0.93718   0.12307   0.95653   0.00000  Uiso   1.00
C1989  C     0.94928   0.13253   0.95536   0.00000  Uiso   1.00
N1990  N     0.90074   0.12717   0.87044   0.00000  Uiso   1.00
C1991  C     0.91276   0.13509   0.87012   0.00000  Uiso   1.00
C1992  C     0.87517   0.12068   0.84654   0.00000  Uiso   1.00
C1993  C     0.86364   0.12063   0.81716   0.00000  Uiso   1.00
C1994  C     0.86604   0.12745   0.78137   0.00000  Uiso   1.00
C1995  C     0.88003   0.13434   0.77488   0.00000  Uiso   1.00
C1996  C     0.89150   0.13451   0.80429   0.00000  Uiso   1.00
C1997  C     0.88912   0.12763   0.84031   0.00000  Uiso   1.00
C1998  C     0.67271   0.13168   0.76621   0.00000  Uiso   1.00
C1999  C     0.68532   0.14066   0.76704   0.00000  Uiso   1.00
C2000  C     0.72298   0.18220   0.75889   0.00000  Uiso   1.00
C2001  C     0.73439   0.19238   0.76004   0.00000  Uiso   1.00
C2002  C     0.63075   0.03231   0.98012   0.00000  Uiso   1.00
S2003  S     0.63116   0.01633   0.95446   0.00000  Uiso   1.00
C2004  C     0.61770   0.05247   0.95089   0.00000  Uiso   1.00
C2005  C     0.61757   0.06348   0.92486   0.00000  Uiso   1.00
C2006  C     0.63085   0.06675   0.90342   0.00000  Uiso   1.00
C2007  C     0.64432   0.05892   0.90878   0.00000  Uiso   1.00
C2008  C     0.64445   0.04792   0.93481   0.00000  Uiso   1.00
C2009  C     0.63116   0.04467   0.95625   0.00000  Uiso   1.00
N2010  N     0.64202   0.08096   0.85270   0.00000  Uiso   1.00
C2011  C     0.63063   0.07844   0.87665   0.00000  Uiso   1.00
C2012  C     0.63084   0.10243   0.82717   0.00000  Uiso   1.00
C2013  C     0.63186   0.11359   0.80164   0.00000  Uiso   1.00
C2014  C     0.64444   0.11499   0.77561   0.00000  Uiso   1.00
C2015  C     0.65595   0.10498   0.77500   0.00000  Uiso   1.00
C2016  C     0.65499   0.09380   0.80025   0.00000  Uiso   1.00
C2017  C     0.64247   0.09238   0.82658   0.00000  Uiso   1.00
N2018  N     0.85473   0.87356   0.24953   0.00000  Uiso   1.00
C2019  C     0.81625   0.15382   0.74766   0.00000  Uiso   1.00
C2020  C     0.84162   0.13561   0.75013   0.00000  Uiso   1.00
C2021  C     0.80483   0.17564   0.75574   0.00000  Uiso   1.00
N2022  N     0.80326   0.16294   0.74584   0.00000  Uiso   1.00
C2023  C     0.76886   0.20569   0.75282   0.00000  Uiso   1.00
C2024  C     0.79211   0.18538   0.75455   0.00000  Uiso   1.00
C2025  C     0.75787   0.21739   0.75084   0.00000  Uiso   1.00
H2026  H     0.85467   0.15222   0.77798   0.00000  Uiso   1.00
H2027  H     0.83200   0.16860   0.77576   0.00000  Uiso   1.00
H2028  H     0.80751   0.20114   0.77779   0.00000  Uiso   1.00
H2029  H     0.78671   0.21914   0.77691   0.00000  Uiso   1.00
H2030  H     0.95893   0.15038   0.92569   0.00000  Uiso   1.00
H2031  H     0.93703   0.15187   0.87578   0.00000  Uiso   1.00
H2032  H     0.91515   0.11630   0.93043   0.00000  Uiso   1.00
H2033  H     0.93724   0.11467   0.97972   0.00000  Uiso   1.00
H2034  H     0.91369   0.14291   0.84535   0.00000  Uiso   1.00
H2035  H     0.87323   0.11506   0.87565   0.00000  Uiso   1.00
H2036  H     0.85232   0.11502   0.82253   0.00000  Uiso   1.00
H2037  H     0.88210   0.13983   0.74560   0.00000  Uiso   1.00
H2038  H     0.90275   0.14023   0.79900   0.00000  Uiso   1.00
H2039  H     0.81681   0.17903   0.76567   0.00000  Uiso   1.00
H2040  H     0.67396   0.12104   0.77887   0.00000  Uiso   1.00
H2041  H     0.69687   0.13721   0.77974   0.00000  Uiso   1.00
H2042  H     0.72589   0.17146   0.76875   0.00000  Uiso   1.00
H2043  H     0.74646   0.18993   0.77147   0.00000  Uiso   1.00
H2044  H     0.60682   0.04970   0.96812   0.00000  Uiso   1.00
H2045  H     0.60664   0.06979   0.92117   0.00000  Uiso   1.00
H2046  H     0.65529   0.06154   0.89174   0.00000  Uiso   1.00
H2047  H     0.65538   0.04162   0.93852   0.00000  Uiso   1.00
H2048  H     0.62028   0.08558   0.87652   0.00000  Uiso   1.00
H2049  H     0.62064   0.10145   0.84837   0.00000  Uiso   1.00
H2050  H     0.62243   0.12165   0.80186   0.00000  Uiso   1.00
H2051  H     0.66615   0.10595   0.75382   0.00000  Uiso   1.00
H2052  H     0.66439   0.08572   0.79966   0.00000  Uiso   1.00
C2053  C     0.77542   0.64524   0.26433   0.00000  Uiso   1.00
C2054  C     0.83063   0.65788   0.26372   0.00000  Uiso   1.00
C2055  C     0.79539   0.69853   0.26701   0.00000  Uiso   1.00
C2056  C     0.78398   0.70844   0.26634   0.00000  Uiso   1.00
S2057  S     0.76757   0.73373   0.25037   0.00000  Uiso   1.00
C2058  C     0.96311   0.63099   0.48020   0.00000  Uiso   1.00
S2059  S     0.98144   0.62994   0.45454   0.00000  Uiso   1.00
C2060  C     0.94910   0.64270   0.42665   0.00000  Uiso   1.00
C2061  C     0.93701   0.64355   0.39920   0.00000  Uiso   1.00
C2062  C     0.92485   0.63419   0.40031   0.00000  Uiso   1.00
C2063  C     0.92498   0.62396   0.42911   0.00000  Uiso   1.00
C2064  C     0.93718   0.62307   0.45653   0.00000  Uiso   1.00
C2065  C     0.94928   0.63253   0.45536   0.00000  Uiso   1.00
N2066  N     0.90074   0.62717   0.37044   0.00000  Uiso   1.00
C2067  C     0.91276   0.63509   0.37012   0.00000  Uiso   1.00
C2068  C     0.87517   0.62068   0.34654   0.00000  Uiso   1.00
C2069  C     0.86364   0.62063   0.31716   0.00000  Uiso   1.00
C2070  C     0.86604   0.62745   0.28137   0.00000  Uiso   1.00
C2071  C     0.88003   0.63434   0.27488   0.00000  Uiso   1.00
C2072  C     0.89150   0.63451   0.30429   0.00000  Uiso   1.00
C2073  C     0.88912   0.62763   0.34031   0.00000  Uiso   1.00
C2074  C     0.67271   0.63168   0.26621   0.00000  Uiso   1.00
C2075  C     0.68532   0.64066   0.26704   0.00000  Uiso   1.00
C2076  C     0.72298   0.68220   0.25889   0.00000  Uiso   1.00
C2077  C     0.73439   0.69238   0.26004   0.00000  Uiso   1.00
C2078  C     0.63075   0.53231   0.48012   0.00000  Uiso   1.00
S2079  S     0.63116   0.51633   0.45446   0.00000  Uiso   1.00
C2080  C     0.61770   0.55247   0.45089   0.00000  Uiso   1.00
C2081  C     0.61757   0.56348   0.42486   0.00000  Uiso   1.00
C2082  C     0.63085   0.56675   0.40342   0.00000  Uiso   1.00
C2083  C     0.64432   0.55892   0.40878   0.00000  Uiso   1.00
C2084  C     0.64445   0.54792   0.43481   0.00000  Uiso   1.00
C2085  C     0.63116   0.54467   0.45625   0.00000  Uiso   1.00
N2086  N     0.64202   0.58096   0.35270   0.00000  Uiso   1.00
C2087  C     0.63063   0.57844   0.37665   0.00000  Uiso   1.00
C2088  C     0.63084   0.60243   0.32717   0.00000  Uiso   1.00
C2089  C     0.63186   0.61359   0.30164   0.00000  Uiso   1.00
C2090  C     0.64444   0.61499   0.27561   0.00000  Uiso   1.00
C2091  C     0.65595   0.60498   0.27500   0.00000  Uiso   1.00
C2092  C     0.65499   0.59380   0.30025   0.00000  Uiso   1.00
C2093  C     0.64247   0.59238   0.32658   0.00000  Uiso   1.00
N2094  N     0.85473   0.37356   0.74953   0.00000  Uiso   1.00
C2095  C     0.81625   0.65382   0.24766   0.00000  Uiso   1.00
C2096  C     0.84162   0.63561   0.25013   0.00000  Uiso   1.00
C2097  C     0.80483   0.67564   0.25574   0.00000  Uiso   1.00
N2098  N     0.80326   0.66294   0.24584   0.00000  Uiso   1.00
C2099  C     0.76886   0.70569   0.25282   0.00000  Uiso   1.00
C2100  C     0.79211   0.68538   0.25455   0.00000  Uiso   1.00
C2101  C     0.75787   0.71739   0.25084   0.00000  Uiso   1.00
H2102  H     0.85467   0.65222   0.27798   0.00000  Uiso   1.00
H2103  H     0.83200   0.66860   0.27576   0.00000  Uiso   1.00
H2104  H     0.80751   0.70114   0.27779   0.00000  Uiso   1.00
H2105  H     0.78671   0.71914   0.27691   0.00000  Uiso   1.00
H2106  H     0.95893   0.65038   0.42569   0.00000  Uiso   1.00
H2107  H     0.93703   0.65187   0.37578   0.00000  Uiso   1.00
H2108  H     0.91515   0.61630   0.43043   0.00000  Uiso   1.00
H2109  H     0.93724   0.61467   0.47972   0.00000  Uiso   1.00
H2110  H     0.91369   0.64291   0.34535   0.00000  Uiso   1.00
H2111  H     0.87323   0.61506   0.37565   0.00000  Uiso   1.00
H2112  H     0.85232   0.61502   0.32253   0.00000  Uiso   1.00
H2113  H     0.88210   0.63983   0.24560   0.00000  Uiso   1.00
H2114  H     0.90275   0.64023   0.29900   0.00000  Uiso   1.00
H2115  H     0.81681   0.67903   0.26567   0.00000  Uiso   1.00
H2116  H     0.67396   0.62104   0.27887   0.00000  Uiso   1.00
H2117  H     0.69687   0.63721   0.27974   0.00000  Uiso   1.00
H2118  H     0.72589   0.67146   0.26875   0.00000  Uiso   1.00
H2119  H     0.74646   0.68993   0.27147   0.00000  Uiso   1.00
H2120  H     0.60682   0.54970   0.46812   0.00000  Uiso   1.00
H2121  H     0.60664   0.56979   0.42117   0.00000  Uiso   1.00
H2122  H     0.65529   0.56154   0.39174   0.00000  Uiso   1.00
H2123  H     0.65538   0.54162   0.43852   0.00000  Uiso   1.00
H2124  H     0.62028   0.58558   0.37652   0.00000  Uiso   1.00
H2125  H     0.62064   0.60145   0.34837   0.00000  Uiso   1.00
H2126  H     0.62243   0.62165   0.30186   0.00000  Uiso   1.00
H2127  H     0.66615   0.60595   0.25382   0.00000  Uiso   1.00
H2128  H     0.66439   0.58572   0.29966   0.00000  Uiso   1.00
C2129  C     0.72458   0.85476   0.26433   0.00000  Uiso   1.00
C2130  C     0.66937   0.84212   0.26372   0.00000  Uiso   1.00
C2131  C     0.70461   0.80147   0.26701   0.00000  Uiso   1.00
C2132  C     0.71602   0.79156   0.26634   0.00000  Uiso   1.00
S2133  S     0.73243   0.76627   0.25037   0.00000  Uiso   1.00
C2134  C     0.53689   0.86901   0.48020   0.00000  Uiso   1.00
S2135  S     0.51856   0.87006   0.45454   0.00000  Uiso   1.00
C2136  C     0.55090   0.85730   0.42665   0.00000  Uiso   1.00
C2137  C     0.56299   0.85645   0.39920   0.00000  Uiso   1.00
C2138  C     0.57515   0.86581   0.40031   0.00000  Uiso   1.00
C2139  C     0.57502   0.87604   0.42911   0.00000  Uiso   1.00
C2140  C     0.56282   0.87693   0.45653   0.00000  Uiso   1.00
C2141  C     0.55072   0.86747   0.45536   0.00000  Uiso   1.00
N2142  N     0.59926   0.87283   0.37044   0.00000  Uiso   1.00
C2143  C     0.58724   0.86491   0.37012   0.00000  Uiso   1.00
C2144  C     0.62483   0.87932   0.34654   0.00000  Uiso   1.00
C2145  C     0.63636   0.87937   0.31716   0.00000  Uiso   1.00
C2146  C     0.63396   0.87255   0.28137   0.00000  Uiso   1.00
C2147  C     0.61997   0.86566   0.27488   0.00000  Uiso   1.00
C2148  C     0.60850   0.86549   0.30429   0.00000  Uiso   1.00
C2149  C     0.61088   0.87237   0.34031   0.00000  Uiso   1.00
C2150  C     0.82729   0.86832   0.26621   0.00000  Uiso   1.00
C2151  C     0.81468   0.85934   0.26704   0.00000  Uiso   1.00
C2152  C     0.77702   0.81780   0.25889   0.00000  Uiso   1.00
C2153  C     0.76561   0.80762   0.26004   0.00000  Uiso   1.00
C2154  C     0.86925   0.96769   0.48012   0.00000  Uiso   1.00
S2155  S     0.86884   0.98367   0.45446   0.00000  Uiso   1.00
C2156  C     0.88230   0.94753   0.45089   0.00000  Uiso   1.00
C2157  C     0.88243   0.93652   0.42486   0.00000  Uiso   1.00
C2158  C     0.86915   0.93325   0.40342   0.00000  Uiso   1.00
C2159  C     0.85568   0.94108   0.40878   0.00000  Uiso   1.00
C2160  C     0.85555   0.95208   0.43481   0.00000  Uiso   1.00
C2161  C     0.86884   0.95533   0.45625   0.00000  Uiso   1.00
N2162  N     0.85798   0.91904   0.35270   0.00000  Uiso   1.00
C2163  C     0.86937   0.92156   0.37665   0.00000  Uiso   1.00
C2164  C     0.86916   0.89757   0.32717   0.00000  Uiso   1.00
C2165  C     0.86814   0.88641   0.30164   0.00000  Uiso   1.00
C2166  C     0.85556   0.88501   0.27561   0.00000  Uiso   1.00
C2167  C     0.84405   0.89502   0.27500   0.00000  Uiso   1.00
C2168  C     0.84501   0.90620   0.30025   0.00000  Uiso   1.00
C2169  C     0.85753   0.90762   0.32658   0.00000  Uiso   1.00
N2170  N     0.64527   0.12644   0.74953   0.00000  Uiso   1.00
C2171  C     0.68375   0.84618   0.24766   0.00000  Uiso   1.00
C2172  C     0.65838   0.86439   0.25013   0.00000  Uiso   1.00
C2173  C     0.69517   0.82436   0.25574   0.00000  Uiso   1.00
N2174  N     0.69674   0.83706   0.24584   0.00000  Uiso   1.00
C2175  C     0.73114   0.79431   0.25282   0.00000  Uiso   1.00
C2176  C     0.70789   0.81462   0.25455   0.00000  Uiso   1.00
C2177  C     0.74213   0.78261   0.25084   0.00000  Uiso   1.00
H2178  H     0.64533   0.84778   0.27798   0.00000  Uiso   1.00
H2179  H     0.66800   0.83140   0.27576   0.00000  Uiso   1.00
H2180  H     0.69249   0.79886   0.27779   0.00000  Uiso   1.00
H2181  H     0.71329   0.78086   0.27691   0.00000  Uiso   1.00
H2182  H     0.54107   0.84962   0.42569   0.00000  Uiso   1.00
H2183  H     0.56297   0.84813   0.37578   0.00000  Uiso   1.00
H2184  H     0.58485   0.88370   0.43043   0.00000  Uiso   1.00
H2185  H     0.56276   0.88533   0.47972   0.00000  Uiso   1.00
H2186  H     0.58631   0.85709   0.34535   0.00000  Uiso   1.00
H2187  H     0.62677   0.88494   0.37565   0.00000  Uiso   1.00
H2188  H     0.64768   0.88498   0.32253   0.00000  Uiso   1.00
H2189  H     0.61790   0.86017   0.24560   0.00000  Uiso   1.00
H2190  H     0.59725   0.85977   0.29900   0.00000  Uiso   1.00
H2191  H     0.68319   0.82097   0.26567   0.00000  Uiso   1.00
H2192  H     0.82604   0.87896   0.27887   0.00000  Uiso   1.00
H2193  H     0.80313   0.86279   0.27974   0.00000  Uiso   1.00
H2194  H     0.77411   0.82854   0.26875   0.00000  Uiso   1.00
H2195  H     0.75354   0.81007   0.27147   0.00000  Uiso   1.00
H2196  H     0.89318   0.95030   0.46812   0.00000  Uiso   1.00
H2197  H     0.89336   0.93021   0.42117   0.00000  Uiso   1.00
H2198  H     0.84471   0.93846   0.39174   0.00000  Uiso   1.00
H2199  H     0.84462   0.95838   0.43852   0.00000  Uiso   1.00
H2200  H     0.87972   0.91442   0.37652   0.00000  Uiso   1.00
H2201  H     0.87936   0.89855   0.34837   0.00000  Uiso   1.00
H2202  H     0.87757   0.87835   0.30186   0.00000  Uiso   1.00
H2203  H     0.83385   0.89405   0.25382   0.00000  Uiso   1.00
H2204  H     0.83561   0.91428   0.29966   0.00000  Uiso   1.00
C2205  C     0.72458   0.35476   0.76433   0.00000  Uiso   1.00
C2206  C     0.66937   0.34212   0.76372   0.00000  Uiso   1.00
C2207  C     0.70461   0.30147   0.76701   0.00000  Uiso   1.00
C2208  C     0.71602   0.29156   0.76634   0.00000  Uiso   1.00
S2209  S     0.73243   0.26627   0.75037   0.00000  Uiso   1.00
C2210  C     0.53689   0.36901   0.98020   0.00000  Uiso   1.00
S2211  S     0.51856   0.37006   0.95454   0.00000  Uiso   1.00
C2212  C     0.55090   0.35730   0.92665   0.00000  Uiso   1.00
C2213  C     0.56299   0.35645   0.89920   0.00000  Uiso   1.00
C2214  C     0.57515   0.36581   0.90031   0.00000  Uiso   1.00
C2215  C     0.57502   0.37604   0.92911   0.00000  Uiso   1.00
C2216  C     0.56282   0.37693   0.95653   0.00000  Uiso   1.00
C2217  C     0.55072   0.36747   0.95536   0.00000  Uiso   1.00
N2218  N     0.59926   0.37283   0.87044   0.00000  Uiso   1.00
C2219  C     0.58724   0.36491   0.87012   0.00000  Uiso   1.00
C2220  C     0.62483   0.37932   0.84654   0.00000  Uiso   1.00
C2221  C     0.63636   0.37937   0.81716   0.00000  Uiso   1.00
C2222  C     0.63396   0.37255   0.78137   0.00000  Uiso   1.00
C2223  C     0.61997   0.36566   0.77488   0.00000  Uiso   1.00
C2224  C     0.60850   0.36549   0.80429   0.00000  Uiso   1.00
C2225  C     0.61088   0.37237   0.84031   0.00000  Uiso   1.00
C2226  C     0.82729   0.36832   0.76621   0.00000  Uiso   1.00
C2227  C     0.81468   0.35934   0.76704   0.00000  Uiso   1.00
C2228  C     0.77702   0.31780   0.75889   0.00000  Uiso   1.00
C2229  C     0.76561   0.30762   0.76004   0.00000  Uiso   1.00
C2230  C     0.86925   0.46769   0.98012   0.00000  Uiso   1.00
S2231  S     0.86884   0.48367   0.95446   0.00000  Uiso   1.00
C2232  C     0.88230   0.44753   0.95089   0.00000  Uiso   1.00
C2233  C     0.88243   0.43652   0.92486   0.00000  Uiso   1.00
C2234  C     0.86915   0.43325   0.90342   0.00000  Uiso   1.00
C2235  C     0.85568   0.44108   0.90878   0.00000  Uiso   1.00
C2236  C     0.85555   0.45208   0.93481   0.00000  Uiso   1.00
C2237  C     0.86884   0.45533   0.95625   0.00000  Uiso   1.00
N2238  N     0.85798   0.41904   0.85270   0.00000  Uiso   1.00
C2239  C     0.86937   0.42156   0.87665   0.00000  Uiso   1.00
C2240  C     0.86916   0.39757   0.82717   0.00000  Uiso   1.00
C2241  C     0.86814   0.38641   0.80164   0.00000  Uiso   1.00
C2242  C     0.85556   0.38501   0.77561   0.00000  Uiso   1.00
C2243  C     0.84405   0.39502   0.77500   0.00000  Uiso   1.00
C2244  C     0.84501   0.40620   0.80025   0.00000  Uiso   1.00
C2245  C     0.85753   0.40762   0.82658   0.00000  Uiso   1.00
N2246  N     0.64527   0.62644   0.24953   0.00000  Uiso   1.00
C2247  C     0.68375   0.34618   0.74766   0.00000  Uiso   1.00
C2248  C     0.65838   0.36439   0.75013   0.00000  Uiso   1.00
C2249  C     0.69517   0.32436   0.75574   0.00000  Uiso   1.00
N2250  N     0.69674   0.33706   0.74584   0.00000  Uiso   1.00
C2251  C     0.73114   0.29431   0.75282   0.00000  Uiso   1.00
C2252  C     0.70789   0.31462   0.75455   0.00000  Uiso   1.00
C2253  C     0.74213   0.28261   0.75084   0.00000  Uiso   1.00
H2254  H     0.64533   0.34778   0.77798   0.00000  Uiso   1.00
H2255  H     0.66800   0.33140   0.77576   0.00000  Uiso   1.00
H2256  H     0.69249   0.29886   0.77779   0.00000  Uiso   1.00
H2257  H     0.71329   0.28086   0.77691   0.00000  Uiso   1.00
H2258  H     0.54107   0.34962   0.92569   0.00000  Uiso   1.00
H2259  H     0.56297   0.34813   0.87578   0.00000  Uiso   1.00
H2260  H     0.58485   0.38370   0.93043   0.00000  Uiso   1.00
H2261  H     0.56276   0.38533   0.97972   0.00000  Uiso   1.00
H2262  H     0.58631   0.35709   0.84535   0.00000  Uiso   1.00
H2263  H     0.62677   0.38494   0.87565   0.00000  Uiso   1.00
H2264  H     0.64768   0.38498   0.82253   0.00000  Uiso   1.00
H2265  H     0.61790   0.36017   0.74560   0.00000  Uiso   1.00
H2266  H     0.59725   0.35977   0.79900   0.00000  Uiso   1.00
H2267  H     0.68319   0.32097   0.76567   0.00000  Uiso   1.00
H2268  H     0.82604   0.37896   0.77887   0.00000  Uiso   1.00
H2269  H     0.80313   0.36279   0.77974   0.00000  Uiso   1.00
H2270  H     0.77411   0.32854   0.76875   0.00000  Uiso   1.00
H2271  H     0.75354   0.31007   0.77147   0.00000  Uiso   1.00
H2272  H     0.89318   0.45030   0.96812   0.00000  Uiso   1.00
H2273  H     0.89336   0.43021   0.92117   0.00000  Uiso   1.00
H2274  H     0.84471   0.43846   0.89174   0.00000  Uiso   1.00
H2275  H     0.84462   0.45838   0.93852   0.00000  Uiso   1.00
H2276  H     0.87972   0.41442   0.87652   0.00000  Uiso   1.00
H2277  H     0.87936   0.39855   0.84837   0.00000  Uiso   1.00
H2278  H     0.87757   0.37835   0.80186   0.00000  Uiso   1.00
H2279  H     0.83385   0.39405   0.75382   0.00000  Uiso   1.00
H2280  H     0.83561   0.41428   0.79966   0.00000  Uiso   1.00
C2281  C     0.22458   0.85476   0.76433   0.00000  Uiso   1.00
C2282  C     0.16937   0.84212   0.76372   0.00000  Uiso   1.00
C2283  C     0.20461   0.80147   0.76701   0.00000  Uiso   1.00
C2284  C     0.21602   0.79156   0.76634   0.00000  Uiso   1.00
S2285  S     0.23243   0.76627   0.75037   0.00000  Uiso   1.00
C2286  C     0.03689   0.86901   0.98020   0.00000  Uiso   1.00
S2287  S     0.01856   0.87006   0.95454   0.00000  Uiso   1.00
C2288  C     0.05090   0.85730   0.92665   0.00000  Uiso   1.00
C2289  C     0.06299   0.85645   0.89920   0.00000  Uiso   1.00
C2290  C     0.07515   0.86581   0.90031   0.00000  Uiso   1.00
C2291  C     0.07502   0.87604   0.92911   0.00000  Uiso   1.00
C2292  C     0.06282   0.87693   0.95653   0.00000  Uiso   1.00
C2293  C     0.05072   0.86747   0.95536   0.00000  Uiso   1.00
N2294  N     0.09926   0.87283   0.87044   0.00000  Uiso   1.00
C2295  C     0.08724   0.86491   0.87012   0.00000  Uiso   1.00
C2296  C     0.12483   0.87932   0.84654   0.00000  Uiso   1.00
C2297  C     0.13636   0.87937   0.81716   0.00000  Uiso   1.00
C2298  C     0.13396   0.87255   0.78137   0.00000  Uiso   1.00
C2299  C     0.11997   0.86566   0.77488   0.00000  Uiso   1.00
C2300  C     0.10850   0.86549   0.80429   0.00000  Uiso   1.00
C2301  C     0.11088   0.87237   0.84031   0.00000  Uiso   1.00
C2302  C     0.32729   0.86832   0.76621   0.00000  Uiso   1.00
C2303  C     0.31468   0.85934   0.76704   0.00000  Uiso   1.00
C2304  C     0.27702   0.81780   0.75889   0.00000  Uiso   1.00
C2305  C     0.26561   0.80762   0.76004   0.00000  Uiso   1.00
C2306  C     0.36925   0.96769   0.98012   0.00000  Uiso   1.00
S2307  S     0.36884   0.98367   0.95446   0.00000  Uiso   1.00
C2308  C     0.38230   0.94753   0.95089   0.00000  Uiso   1.00
C2309  C     0.38243   0.93652   0.92486   0.00000  Uiso   1.00
C2310  C     0.36915   0.93325   0.90342   0.00000  Uiso   1.00
C2311  C     0.35568   0.94108   0.90878   0.00000  Uiso   1.00
C2312  C     0.35555   0.95208   0.93481   0.00000  Uiso   1.00
C2313  C     0.36884   0.95533   0.95625   0.00000  Uiso   1.00
N2314  N     0.35798   0.91904   0.85270   0.00000  Uiso   1.00
C2315  C     0.36937   0.92156   0.87665   0.00000  Uiso   1.00
C2316  C     0.36916   0.89757   0.82717   0.00000  Uiso   1.00
C2317  C     0.36814   0.88641   0.80164   0.00000  Uiso   1.00
C2318  C     0.35556   0.88501   0.77561   0.00000  Uiso   1.00
C2319  C     0.34405   0.89502   0.77500   0.00000  Uiso   1.00
C2320  C     0.34501   0.90620   0.80025   0.00000  Uiso   1.00
C2321  C     0.35753   0.90762   0.82658   0.00000  Uiso   1.00
N2322  N     0.14527   0.12644   0.24953   0.00000  Uiso   1.00
C2323  C     0.18375   0.84618   0.74766   0.00000  Uiso   1.00
C2324  C     0.15838   0.86439   0.75013   0.00000  Uiso   1.00
C2325  C     0.19517   0.82436   0.75574   0.00000  Uiso   1.00
N2326  N     0.19674   0.83706   0.74584   0.00000  Uiso   1.00
C2327  C     0.23114   0.79431   0.75282   0.00000  Uiso   1.00
C2328  C     0.20789   0.81462   0.75455   0.00000  Uiso   1.00
C2329  C     0.24213   0.78261   0.75084   0.00000  Uiso   1.00
H2330  H     0.14533   0.84778   0.77798   0.00000  Uiso   1.00
H2331  H     0.16800   0.83140   0.77576   0.00000  Uiso   1.00
H2332  H     0.19249   0.79886   0.77779   0.00000  Uiso   1.00
H2333  H     0.21329   0.78086   0.77691   0.00000  Uiso   1.00
H2334  H     0.04107   0.84962   0.92569   0.00000  Uiso   1.00
H2335  H     0.06297   0.84813   0.87578   0.00000  Uiso   1.00
H2336  H     0.08485   0.88370   0.93043   0.00000  Uiso   1.00
H2337  H     0.06276   0.88533   0.97972   0.00000  Uiso   1.00
H2338  H     0.08631   0.85709   0.84535   0.00000  Uiso   1.00
H2339  H     0.12677   0.88494   0.87565   0.00000  Uiso   1.00
H2340  H     0.14768   0.88498   0.82253   0.00000  Uiso   1.00
H2341  H     0.11790   0.86017   0.74560   0.00000  Uiso   1.00
H2342  H     0.09725   0.85977   0.79900   0.00000  Uiso   1.00
H2343  H     0.18319   0.82097   0.76567   0.00000  Uiso   1.00
H2344  H     0.32604   0.87896   0.77887   0.00000  Uiso   1.00
H2345  H     0.30313   0.86279   0.77974   0.00000  Uiso   1.00
H2346  H     0.27411   0.82854   0.76875   0.00000  Uiso   1.00
H2347  H     0.25354   0.81007   0.77147   0.00000  Uiso   1.00
H2348  H     0.39318   0.95030   0.96812   0.00000  Uiso   1.00
H2349  H     0.39336   0.93021   0.92117   0.00000  Uiso   1.00
H2350  H     0.34471   0.93846   0.89174   0.00000  Uiso   1.00
H2351  H     0.34462   0.95838   0.93852   0.00000  Uiso   1.00
H2352  H     0.37972   0.91442   0.87652   0.00000  Uiso   1.00
H2353  H     0.37936   0.89855   0.84837   0.00000  Uiso   1.00
H2354  H     0.37757   0.87835   0.80186   0.00000  Uiso   1.00
H2355  H     0.33385   0.89405   0.75382   0.00000  Uiso   1.00
H2356  H     0.33561   0.91428   0.79966   0.00000  Uiso   1.00
C2357  C     0.22458   0.35476   0.26433   0.00000  Uiso   1.00
C2358  C     0.16937   0.34212   0.26372   0.00000  Uiso   1.00
C2359  C     0.20461   0.30147   0.26701   0.00000  Uiso   1.00
C2360  C     0.21602   0.29156   0.26634   0.00000  Uiso   1.00
S2361  S     0.23243   0.26627   0.25037   0.00000  Uiso   1.00
C2362  C     0.03689   0.36901   0.48020   0.00000  Uiso   1.00
S2363  S     0.01856   0.37006   0.45454   0.00000  Uiso   1.00
C2364  C     0.05090   0.35730   0.42665   0.00000  Uiso   1.00
C2365  C     0.06299   0.35645   0.39920   0.00000  Uiso   1.00
C2366  C     0.07515   0.36581   0.40031   0.00000  Uiso   1.00
C2367  C     0.07502   0.37604   0.42911   0.00000  Uiso   1.00
C2368  C     0.06282   0.37693   0.45653   0.00000  Uiso   1.00
C2369  C     0.05072   0.36747   0.45536   0.00000  Uiso   1.00
N2370  N     0.09926   0.37283   0.37044   0.00000  Uiso   1.00
C2371  C     0.08724   0.36491   0.37012   0.00000  Uiso   1.00
C2372  C     0.12483   0.37932   0.34654   0.00000  Uiso   1.00
C2373  C     0.13636   0.37937   0.31716   0.00000  Uiso   1.00
C2374  C     0.13396   0.37255   0.28137   0.00000  Uiso   1.00
C2375  C     0.11997   0.36566   0.27488   0.00000  Uiso   1.00
C2376  C     0.10850   0.36549   0.30429   0.00000  Uiso   1.00
C2377  C     0.11088   0.37237   0.34031   0.00000  Uiso   1.00
C2378  C     0.32729   0.36832   0.26621   0.00000  Uiso   1.00
C2379  C     0.31468   0.35934   0.26704   0.00000  Uiso   1.00
C2380  C     0.27702   0.31780   0.25889   0.00000  Uiso   1.00
C2381  C     0.26561   0.30762   0.26004   0.00000  Uiso   1.00
C2382  C     0.36925   0.46769   0.48012   0.00000  Uiso   1.00
S2383  S     0.36884   0.48367   0.45446   0.00000  Uiso   1.00
C2384  C     0.38230   0.44753   0.45089   0.00000  Uiso   1.00
C2385  C     0.38243   0.43652   0.42486   0.00000  Uiso   1.00
C2386  C     0.36915   0.43325   0.40342   0.00000  Uiso   1.00
C2387  C     0.35568   0.44108   0.40878   0.00000  Uiso   1.00
C2388  C     0.35555   0.45208   0.43481   0.00000  Uiso   1.00
C2389  C     0.36884   0.45533   0.45625   0.00000  Uiso   1.00
N2390  N     0.35798   0.41904   0.35270   0.00000  Uiso   1.00
C2391  C     0.36937   0.42156   0.37665   0.00000  Uiso   1.00
C2392  C     0.36916   0.39757   0.32717   0.00000  Uiso   1.00
C2393  C     0.36814   0.38641   0.30164   0.00000  Uiso   1.00
C2394  C     0.35556   0.38501   0.27561   0.00000  Uiso   1.00
C2395  C     0.34405   0.39502   0.27500   0.00000  Uiso   1.00
C2396  C     0.34501   0.40620   0.30025   0.00000  Uiso   1.00
C2397  C     0.35753   0.40762   0.32658   0.00000  Uiso   1.00
N2398  N     0.14527   0.62644   0.74953   0.00000  Uiso   1.00
C2399  C     0.18375   0.34618   0.24766   0.00000  Uiso   1.00
C2400  C     0.15838   0.36439   0.25013   0.00000  Uiso   1.00
C2401  C     0.19517   0.32436   0.25574   0.00000  Uiso   1.00
N2402  N     0.19674   0.33706   0.24584   0.00000  Uiso   1.00
C2403  C     0.23114   0.29431   0.25282   0.00000  Uiso   1.00
C2404  C     0.20789   0.31462   0.25455   0.00000  Uiso   1.00
C2405  C     0.24213   0.28261   0.25084   0.00000  Uiso   1.00
H2406  H     0.14533   0.34778   0.27798   0.00000  Uiso   1.00
H2407  H     0.16800   0.33140   0.27576   0.00000  Uiso   1.00
H2408  H     0.19249   0.29886   0.27779   0.00000  Uiso   1.00
H2409  H     0.21329   0.28086   0.27691   0.00000  Uiso   1.00
H2410  H     0.04107   0.34962   0.42569   0.00000  Uiso   1.00
H2411  H     0.06297   0.34813   0.37578   0.00000  Uiso   1.00
H2412  H     0.08485   0.38370   0.43043   0.00000  Uiso   1.00
H2413  H     0.06276   0.38533   0.47972   0.00000  Uiso   1.00
H2414  H     0.08631   0.35709   0.34535   0.00000  Uiso   1.00
H2415  H     0.12677   0.38494   0.37565   0.00000  Uiso   1.00
H2416  H     0.14768   0.38498   0.32253   0.00000  Uiso   1.00
H2417  H     0.11790   0.36017   0.24560   0.00000  Uiso   1.00
H2418  H     0.09725   0.35977   0.29900   0.00000  Uiso   1.00
H2419  H     0.18319   0.32097   0.26567   0.00000  Uiso   1.00
H2420  H     0.32604   0.37896   0.27887   0.00000  Uiso   1.00
H2421  H     0.30313   0.36279   0.27974   0.00000  Uiso   1.00
H2422  H     0.27411   0.32854   0.26875   0.00000  Uiso   1.00
H2423  H     0.25354   0.31007   0.27147   0.00000  Uiso   1.00
H2424  H     0.39318   0.45030   0.46812   0.00000  Uiso   1.00
H2425  H     0.39336   0.43021   0.42117   0.00000  Uiso   1.00
H2426  H     0.34471   0.43846   0.39174   0.00000  Uiso   1.00
H2427  H     0.34462   0.45838   0.43852   0.00000  Uiso   1.00
H2428  H     0.37972   0.41442   0.37652   0.00000  Uiso   1.00
H2429  H     0.37936   0.39855   0.34837   0.00000  Uiso   1.00
H2430  H     0.37757   0.37835   0.30186   0.00000  Uiso   1.00
H2431  H     0.33385   0.39405   0.25382   0.00000  Uiso   1.00
H2432  H     0.33561   0.41428   0.29966   0.00000  Uiso   1.00
C2433  C     0.50774   0.87030   0.50000   0.00000  Uiso   1.00
C2434  C     0.13115   0.00680   0.50000   0.00000  Uiso   1.00
C2435  C     0.50774   0.37030   0.00000   0.00000  Uiso   1.00
C2436  C     0.13115   0.50680   0.00000   0.00000  Uiso   1.00
C2437  C     0.00774   0.87030   0.00000   0.00000  Uiso   1.00
C2438  C     0.63115   0.00680   0.00000   0.00000  Uiso   1.00
C2439  C     0.00774   0.37030   0.50000   0.00000  Uiso   1.00
C2440  C     0.63115   0.50680   0.50000   0.00000  Uiso   1.00
C2441  C     0.49226   0.12970   0.50000   0.00000  Uiso   1.00
C2442  C     0.86885   0.99320   0.50000   0.00000  Uiso   1.00
C2443  C     0.49226   0.62970   0.00000   0.00000  Uiso   1.00
C2444  C     0.86885   0.49320   0.00000   0.00000  Uiso   1.00
C2445  C     0.99226   0.12970   0.00000   0.00000  Uiso   1.00
C2446  C     0.36885   0.99320   0.00000   0.00000  Uiso   1.00
C2447  C     0.99226   0.62970   0.50000   0.00000  Uiso   1.00
C2448  C     0.36885   0.49320   0.50000   0.00000  Uiso   1.00
C2449  C     0.49226   0.87030   0.50000   0.00000  Uiso   1.00
C2450  C     0.86885   0.00680   0.50000   0.00000  Uiso   1.00
C2451  C     0.49226   0.37030   0.00000   0.00000  Uiso   1.00
C2452  C     0.86885   0.50680   0.00000   0.00000  Uiso   1.00
C2453  C     0.99226   0.87030   0.00000   0.00000  Uiso   1.00
C2454  C     0.36885   0.00680   0.00000   0.00000  Uiso   1.00
C2455  C     0.99226   0.37030   0.50000   0.00000  Uiso   1.00
C2456  C     0.36885   0.50680   0.50000   0.00000  Uiso   1.00
C2457  C     0.50774   0.12970   0.50000   0.00000  Uiso   1.00
C2458  C     0.13115   0.99320   0.50000   0.00000  Uiso   1.00
C2459  C     0.50774   0.62970   0.00000   0.00000  Uiso   1.00
C2460  C     0.13115   0.49320   0.00000   0.00000  Uiso   1.00
C2461  C     0.00774   0.12970   0.00000   0.00000  Uiso   1.00
C2462  C     0.63115   0.99320   0.00000   0.00000  Uiso   1.00
C2463  C     0.00774   0.62970   0.50000   0.00000  Uiso   1.00
C2464  C     0.63115   0.49320   0.50000   0.00000  Uiso   1.00
C2465  C     0.25000   0.75682   0.25000   0.00000  Uiso   1.00
C2466  C     0.25000   0.25682   0.75000   0.00000  Uiso   1.00
C2467  C     0.75000   0.24318   0.25000   0.00000  Uiso   1.00
C2468  C     0.75000   0.74318   0.75000   0.00000  Uiso   1.00
C2469  C     0.25000   0.74318   0.25000   0.00000  Uiso   1.00
C2470  C     0.75000   0.75682   0.75000   0.00000  Uiso   1.00
C2471  C     0.75000   0.25682   0.25000   0.00000  Uiso   1.00
C2472  C     0.25000   0.24318   0.75000   0.00000  Uiso   1.00
C2473  C     0.75000   0.24318   0.75000   0.00000  Uiso   1.00
C2474  C     0.75000   0.74318   0.25000   0.00000  Uiso   1.00
C2475  C     0.25000   0.24318   0.25000   0.00000  Uiso   1.00
C2476  C     0.25000   0.75682   0.75000   0.00000  Uiso   1.00
C2477  C     0.25000   0.25682   0.25000   0.00000  Uiso   1.00
C2478  C     0.25000   0.74318   0.75000   0.00000  Uiso   1.00
C2479  C     0.75000   0.75682   0.25000   0.00000  Uiso   1.00
C2480  C     0.75000   0.25682   0.75000   0.00000  Uiso   1.00
loop_
_geom_bond_atom_site_label_1
_geom_bond_atom_site_label_2
_geom_bond_distance
_geom_bond_site_symmetry_2
_ccdc_geom_bond_type
C2     C43     1.416   .     S
C2     H51     1.140   .     S
C3     C4      1.391   .     S
C3     C48     1.394   .     D
C3     H52     1.140   .     S
C4     C47     1.413   .     D
C4     H53     1.140   .     S
S5     C49     1.819   .     S
S5     C2465   1.785   .     S
C6     S7      1.811   .     S
C6     C13     1.469   .     S
C6     C1526   1.335   .     D
S7     C2449   1.796   .     S
C8     C9      1.400   .     S
C8     C13     1.395   .     D
C8     H54     1.140   .     S
C9     C10     1.401   .     D
C9     H55     1.139   .     S
C10    C11     1.401   .     S
C10    C15     1.463   .     S
C11    C12     1.406   .     D
C11    H56     1.140   .     S
C12    C13     1.404   .     S
C12    H57     1.140   .     S
N14    C15     1.302   .     D
N14    C21     1.430   .     S
C15    H58     1.140   .     S
C16    C17     1.406   .     S
C16    C21     1.405   .     D
C16    H59     1.140   .     S
C17    C18     1.397   .     D
C17    H60     1.140   .     S
C18    C19     1.406   .     S
C18    N954    1.433   .     S
C19    C20     1.403   .     D
C19    H61     1.140   .     S
C20    C21     1.407   .     S
C20    H62     1.140   .     S
C22    C23     1.407   .     S
C22    H64     1.139   .     S
C22    C804    1.412   .     D
C23    H65     1.140   .     S
C23    C803    1.397   .     D
C24    C25     1.410   .     D
C24    H66     1.140   .     S
C24    C808    1.418   .     S
C25    H67     1.140   .     S
C25    C807    1.412   .     S
C26    S27     1.800   .     S
C26    C33     1.462   .     S
C26    C1546   1.340   .     D
S27    C2458   1.801   .     S
C28    C29     1.397   .     S
C28    C33     1.409   .     D
C28    H68     1.140   .     S
C29    C30     1.396   .     D
C29    H69     1.140   .     S
C30    C31     1.411   .     S
C30    C35     1.465   .     S
C31    C32     1.396   .     D
C31    H70     1.140   .     S
C32    C33     1.396   .     S
C32    H71     1.139   .     S
N34    C35     1.299   .     D
N34    C41     1.431   .     S
C35    H72     1.140   .     S
C36    C37     1.401   .     D
C36    C41     1.414   .     S
C36    H73     1.140   .     S
C37    C38     1.406   .     S
C37    H74     1.140   .     S
C38    C39     1.404   .     D
C38    N498    1.434   .     S
C39    C40     1.396   .     S
C39    H75     1.140   .     S
C40    C41     1.408   .     D
C40    H76     1.140   .     S
N42    C494    1.434   .     S
N42    C930    1.433   .     S
N42    C956    1.452   .     D
C43    N46     1.442   .     S
C43    C783    1.397   .     D
C44    C782    1.412   .     D
C44    N954    1.452   .     D
C45    N46     1.305   .     D
C45    C48     1.463   .     S
C45    H63     1.140   .     S
C47    C49     1.498   .     S
C47    C785    1.412   .     S
C48    C784    1.418   .     S
C49    C809    1.364   .     D
C78    C119    1.416   .     S
C78    H127    1.140   .     S
C79    C80     1.391   .     S
C79    C124    1.394   .     D
C79    H128    1.140   .     S
C80    C123    1.413   .     D
C80    H129    1.140   .     S
S81    C125    1.819   .     S
S81    C2466   1.785   .     S
C82    S83     1.811   .     S
C82    C89     1.469   .     S
C82    C1602   1.335   1_556 D
S83    C2451   1.796   1_556 S
C84    C85     1.400   .     D
C84    C89     1.395   .     S
C84    H130    1.140   .     S
C85    C86     1.401   .     S
C85    H131    1.139   .     S
C86    C87     1.401   .     D
C86    C91     1.463   .     S
C87    C88     1.406   .     S
C87    H132    1.140   .     S
C88    C89     1.404   .     D
C88    H133    1.140   .     S
N90    C91     1.302   .     D
N90    C97     1.430   .     S
C91    H134    1.140   .     S
C92    C93     1.406   .     D
C92    C97     1.405   .     S
C92    H135    1.140   .     S
C93    C94     1.397   .     S
C93    H136    1.140   .     S
C94    C95     1.406   .     D
C94    N1030   1.433   .     S
C95    C96     1.403   .     S
C95    H137    1.140   .     S
C96    C97     1.407   .     D
C96    H138    1.140   .     S
C98    C99     1.407   .     S
C98    H140    1.139   .     S
C98    C880    1.412   .     D
C99    H141    1.140   .     S
C99    C879    1.397   .     D
C100   C101    1.410   .     D
C100   H142    1.140   .     S
C100   C884    1.418   .     S
C101   H143    1.140   .     S
C101   C883    1.412   .     S
C102   S103    1.800   .     S
C102   C109    1.462   .     S
C102   C1622   1.340   1_556 D
S103   C2460   1.801   1_556 S
C104   C105    1.397   .     S
C104   C109    1.409   .     D
C104   H144    1.140   .     S
C105   C106    1.396   .     D
C105   H145    1.140   .     S
C106   C107    1.411   .     S
C106   C111    1.465   .     S
C107   C108    1.396   .     D
C107   H146    1.140   .     S
C108   C109    1.396   .     S
C108   H147    1.139   .     S
N110   C111    1.299   .     D
N110   C117    1.431   .     S
C111   H148    1.140   .     S
C112   C113    1.401   .     S
C112   C117    1.414   .     D
C112   H149    1.140   .     S
C113   C114    1.406   .     D
C113   H150    1.140   .     S
C114   C115    1.404   .     S
C114   N574    1.434   .     S
C115   C116    1.396   .     D
C115   H151    1.140   .     S
C116   C117    1.408   .     S
C116   H152    1.140   .     S
N118   C570    1.434   .     S
N118   C1006   1.433   .     S
N118   C1032   1.452   .     D
C119   N122    1.442   .     S
C119   C859    1.397   .     D
C120   C858    1.412   .     D
C120   N1030   1.452   .     D
C121   N122    1.305   .     D
C121   C124    1.463   .     S
C121   H139    1.140   .     S
C123   C125    1.498   .     S
C123   C861    1.412   .     S
C124   C860    1.418   .     S
C125   C885    1.364   .     D
C154   C195    1.416   .     S
C154   H203    1.140   .     S
C155   C156    1.391   .     S
C155   C200    1.394   .     D
C155   H204    1.140   .     S
C156   C199    1.413   .     D
C156   H205    1.140   .     S
S157   C201    1.819   .     S
S157   C2470   1.785   .     S
C158   S159    1.811   .     S
C158   C165    1.469   .     S
C158   C1678   1.335   1_556 D
S159   C2453   1.796   1_556 S
C160   C161    1.400   .     S
C160   C165    1.395   .     D
C160   H206    1.140   .     S
C161   C162    1.401   .     D
C161   H207    1.139   .     S
C162   C163    1.401   .     S
C162   C167    1.463   .     S
C163   C164    1.406   .     D
C163   H208    1.140   .     S
C164   C165    1.404   .     S
C164   H209    1.140   .     S
N166   C167    1.302   .     D
N166   C173    1.430   .     S
C167   H210    1.140   .     S
C168   C169    1.406   .     S
C168   C173    1.405   .     D
C168   H211    1.140   .     S
C169   C170    1.397   .     D
C169   H212    1.140   .     S
C170   C171    1.406   .     S
C170   N1106   1.433   .     S
C171   C172    1.403   .     D
C171   H213    1.140   .     S
C172   C173    1.407   .     S
C172   H214    1.140   .     S
C174   C175    1.407   .     S
C174   H216    1.139   .     S
C174   C652    1.412   .     D
C175   H217    1.140   .     S
C175   C651    1.397   .     D
C176   C177    1.410   .     D
C176   H218    1.140   .     S
C176   C656    1.418   .     S
C177   H219    1.140   .     S
C177   C655    1.412   .     S
C178   S179    1.800   .     S
C178   C185    1.462   .     S
C178   C1698   1.340   1_556 D
S179   C2462   1.801   1_556 S
C180   C181    1.397   .     S
C180   C185    1.409   .     D
C180   H220    1.140   .     S
C181   C182    1.396   .     D
C181   H221    1.140   .     S
C182   C183    1.411   .     S
C182   C187    1.465   .     S
C183   C184    1.396   .     D
C183   H222    1.140   .     S
C184   C185    1.396   .     S
C184   H223    1.139   .     S
N186   C187    1.299   .     D
N186   C193    1.431   .     S
C187   H224    1.140   .     S
C188   C189    1.401   .     D
C188   C193    1.414   .     S
C188   H225    1.140   .     S
C189   C190    1.406   .     S
C189   H226    1.140   .     S
C190   C191    1.404   .     D
C190   N346    1.434   .     S
C191   C192    1.396   .     S
C191   H227    1.140   .     S
C192   C193    1.408   .     D
C192   H228    1.140   .     S
N194   C342    1.434   .     S
N194   C1082   1.433   .     S
N194   C1108   1.452   .     D
C195   N198    1.442   .     S
C195   C631    1.397   .     D
C196   C630    1.412   .     D
C196   N1106   1.452   .     D
C197   N198    1.305   .     D
C197   C200    1.463   .     S
C197   H215    1.140   .     S
C199   C201    1.498   .     S
C199   C633    1.412   .     S
C200   C632    1.418   .     S
C201   C657    1.364   .     D
C230   C271    1.416   .     S
C230   H279    1.140   .     S
C231   C232    1.391   .     S
C231   C276    1.394   .     D
C231   H280    1.140   .     S
C232   C275    1.413   .     D
C232   H281    1.140   .     S
S233   C277    1.819   .     S
S233   C2471   1.785   .     S
C234   S235    1.811   .     S
C234   C241    1.469   .     S
C234   C1754   1.335   .     D
S235   C2455   1.796   .     S
C236   C237    1.400   .     D
C236   C241    1.395   .     S
C236   H282    1.140   .     S
C237   C238    1.401   .     S
C237   H283    1.139   .     S
C238   C239    1.401   .     D
C238   C243    1.463   .     S
C239   C240    1.406   .     S
C239   H284    1.140   .     S
C240   C241    1.404   .     D
C240   H285    1.140   .     S
N242   C243    1.302   .     D
N242   C249    1.430   .     S
C243   H286    1.140   .     S
C244   C245    1.406   .     D
C244   C249    1.405   .     S
C244   H287    1.140   .     S
C245   C246    1.397   .     S
C245   H288    1.140   .     S
C246   C247    1.406   .     D
C246   N1182   1.433   .     S
C247   C248    1.403   .     S
C247   H289    1.140   .     S
C248   C249    1.407   .     D
C248   H290    1.140   .     S
C250   C251    1.407   .     S
C250   H292    1.139   .     S
C250   C728    1.412   .     D
C251   H293    1.140   .     S
C251   C727    1.397   .     D
C252   C253    1.410   .     D
C252   H294    1.140   .     S
C252   C732    1.418   .     S
C253   H295    1.140   .     S
C253   C731    1.412   .     S
C254   S255    1.800   .     S
C254   C261    1.462   .     S
C254   C1774   1.340   .     D
S255   C2464   1.801   .     S
C256   C257    1.397   .     S
C256   C261    1.409   .     D
C256   H296    1.140   .     S
C257   C258    1.396   .     D
C257   H297    1.140   .     S
C258   C259    1.411   .     S
C258   C263    1.465   .     S
C259   C260    1.396   .     D
C259   H298    1.140   .     S
C260   C261    1.396   .     S
C260   H299    1.139   .     S
N262   C263    1.299   .     D
N262   C269    1.431   .     S
C263   H300    1.140   .     S
C264   C265    1.401   .     D
C264   C269    1.414   .     S
C264   H301    1.140   .     S
C265   C266    1.406   .     S
C265   H302    1.140   .     S
C266   C267    1.404   .     D
C266   N422    1.434   .     S
C267   C268    1.396   .     S
C267   H303    1.140   .     S
C268   C269    1.408   .     D
C268   H304    1.140   .     S
N270   C418    1.434   .     S
N270   C1158   1.433   .     S
N270   C1184   1.452   .     D
C271   N274    1.442   .     S
C271   C707    1.397   .     D
C272   C706    1.412   .     D
C272   N1182   1.452   .     D
C273   N274    1.305   .     D
C273   C276    1.463   .     S
C273   H291    1.140   .     S
C275   C277    1.498   .     S
C275   C709    1.412   .     S
C276   C708    1.418   .     S
C277   C733    1.364   .     D
C306   C347    1.416   .     S
C306   H355    1.140   .     S
C307   C308    1.391   .     S
C307   C352    1.394   .     D
C307   H356    1.140   .     S
C308   C351    1.413   .     D
C308   H357    1.140   .     S
S309   C353    1.819   .     S
S309   C2467   1.785   .     S
C310   S311    1.811   .     S
C310   C317    1.469   .     S
C310   C1222   1.335   .     D
S311   C2457   1.796   .     S
C312   C313    1.400   .     S
C312   C317    1.395   .     D
C312   H358    1.140   .     S
C313   C314    1.401   .     D
C313   H359    1.139   .     S
C314   C315    1.401   .     S
C314   C319    1.463   .     S
C315   C316    1.406   .     D
C315   H360    1.140   .     S
C316   C317    1.404   .     S
C316   H361    1.140   .     S
N318   C319    1.302   .     D
N318   C325    1.430   .     S
C319   H362    1.140   .     S
C320   C321    1.406   .     D
C320   C325    1.405   .     S
C320   H363    1.140   .     S
C321   C322    1.397   .     S
C321   H364    1.140   .     S
C322   C323    1.406   .     D
C322   N650    1.433   .     S
C323   C324    1.403   .     S
C323   H365    1.140   .     S
C324   C325    1.407   .     D
C324   H366    1.140   .     S
C326   C327    1.407   .     S
C326   H368    1.139   .     S
C326   C1108   1.412   .     D
C327   H369    1.140   .     S
C327   C1107   1.397   .     D
C328   C329    1.410   .     S
C328   H370    1.140   .     S
C328   C1112   1.418   .     D
C329   H371    1.140   .     S
C329   C1111   1.412   .     D
C330   S331    1.800   .     S
C330   C337    1.462   .     S
C330   C1242   1.340   .     D
S331   C2450   1.801   .     S
C332   C333    1.397   .     D
C332   C337    1.409   .     S
C332   H372    1.140   .     S
C333   C334    1.396   .     S
C333   H373    1.140   .     S
C334   C335    1.411   .     D
C334   C339    1.465   .     S
C335   C336    1.396   .     S
C335   H374    1.140   .     S
C336   C337    1.396   .     D
C336   H375    1.139   .     S
N338   C339    1.299   .     D
N338   C345    1.431   .     S
C339   H376    1.140   .     S
C340   C341    1.401   .     D
C340   C345    1.414   .     S
C340   H377    1.140   .     S
C341   C342    1.406   .     S
C341   H378    1.140   .     S
C342   C343    1.404   .     D
C343   C344    1.396   .     S
C343   H379    1.140   .     S
C344   C345    1.408   .     D
C344   H380    1.140   .     S
N346   C626    1.433   .     S
N346   C652    1.452   .     D
C347   N350    1.442   .     S
C347   C1087   1.397   .     D
C348   N650    1.452   .     D
C348   C1086   1.412   .     D
C349   N350    1.305   .     D
C349   C352    1.463   .     S
C349   H367    1.140   .     S
C351   C353    1.498   .     S
C351   C1089   1.412   .     S
C352   C1088   1.418   .     S
C353   C1113   1.364   .     D
C382   C423    1.416   .     S
C382   H431    1.140   .     S
C383   C384    1.391   .     S
C383   C428    1.394   .     D
C383   H432    1.140   .     S
C384   C427    1.413   .     D
C384   H433    1.140   .     S
S385   C429    1.819   .     S
S385   C2468   1.785   .     S
C386   S387    1.811   .     S
C386   C393    1.469   .     S
C386   C1298   1.335   1_556 D
S387   C2459   1.796   1_556 S
C388   C389    1.400   .     S
C388   C393    1.395   .     D
C388   H434    1.140   .     S
C389   C390    1.401   .     D
C389   H435    1.139   .     S
C390   C391    1.401   .     S
C390   C395    1.463   .     S
C391   C392    1.406   .     D
C391   H436    1.140   .     S
C392   C393    1.404   .     S
C392   H437    1.140   .     S
N394   C395    1.302   .     D
N394   C401    1.430   .     S
C395   H438    1.140   .     S
C396   C397    1.406   .     S
C396   C401    1.405   .     D
C396   H439    1.140   .     S
C397   C398    1.397   .     D
C397   H440    1.140   .     S
C398   C399    1.406   .     S
C398   N726    1.433   .     S
C399   C400    1.403   .     D
C399   H441    1.140   .     S
C400   C401    1.407   .     S
C400   H442    1.140   .     S
C402   C403    1.407   .     S
C402   H444    1.139   .     S
C402   C1184   1.412   .     D
C403   H445    1.140   .     S
C403   C1183   1.397   .     D
C404   C405    1.410   .     S
C404   H446    1.140   .     S
C404   C1188   1.418   .     D
C405   H447    1.140   .     S
C405   C1187   1.412   .     D
C406   S407    1.800   .     S
C406   C413    1.462   .     S
C406   C1318   1.340   1_556 D
S407   C2452   1.801   1_556 S
C408   C409    1.397   .     S
C408   C413    1.409   .     D
C408   H448    1.140   .     S
C409   C410    1.396   .     D
C409   H449    1.140   .     S
C410   C411    1.411   .     S
C410   C415    1.465   .     S
C411   C412    1.396   .     D
C411   H450    1.140   .     S
C412   C413    1.396   .     S
C412   H451    1.139   .     S
N414   C415    1.299   .     D
N414   C421    1.431   .     S
C415   H452    1.140   .     S
C416   C417    1.401   .     S
C416   C421    1.414   .     D
C416   H453    1.140   .     S
C417   C418    1.406   .     D
C417   H454    1.140   .     S
C418   C419    1.404   .     S
C419   C420    1.396   .     D
C419   H455    1.140   .     S
C420   C421    1.408   .     S
C420   H456    1.140   .     S
N422   C702    1.433   .     S
N422   C728    1.452   .     D
C423   N426    1.442   .     S
C423   C1163   1.397   .     D
C424   N726    1.452   .     D
C424   C1162   1.412   .     D
C425   N426    1.305   .     D
C425   C428    1.463   .     S
C425   H443    1.140   .     S
C427   C429    1.498   .     S
C427   C1165   1.412   .     S
C428   C1164   1.418   .     S
C429   C1189   1.364   .     D
C458   C499    1.416   .     S
C458   H507    1.140   .     S
C459   C460    1.391   .     S
C459   C504    1.394   .     D
C459   H508    1.140   .     S
C460   C503    1.413   .     D
C460   H509    1.140   .     S
S461   C505    1.819   .     S
S461   C2472   1.785   .     S
C462   S463    1.811   .     S
C462   C469    1.469   .     S
C462   C1374   1.335   1_556 D
S463   C2461   1.796   1_556 S
C464   C465    1.400   .     S
C464   C469    1.395   .     D
C464   H510    1.140   .     S
C465   C466    1.401   .     D
C465   H511    1.139   .     S
C466   C467    1.401   .     S
C466   C471    1.463   .     S
C467   C468    1.406   .     D
C467   H512    1.140   .     S
C468   C469    1.404   .     S
C468   H513    1.140   .     S
N470   C471    1.302   .     D
N470   C477    1.430   .     S
C471   H514    1.140   .     S
C472   C473    1.406   .     D
C472   C477    1.405   .     S
C472   H515    1.140   .     S
C473   C474    1.397   .     S
C473   H516    1.140   .     S
C474   C475    1.406   .     D
C474   N802    1.433   .     S
C475   C476    1.403   .     S
C475   H517    1.140   .     S
C476   C477    1.407   .     D
C476   H518    1.140   .     S
C478   C479    1.407   .     S
C478   H520    1.139   .     S
C478   C956    1.412   .     D
C479   H521    1.140   .     S
C479   C955    1.397   .     D
C480   C481    1.410   .     S
C480   H522    1.140   .     S
C480   C960    1.418   .     D
C481   H523    1.140   .     S
C481   C959    1.412   .     D
C482   S483    1.800   .     S
C482   C489    1.462   .     S
C482   C1394   1.340   1_556 D
S483   C2454   1.801   1_556 S
C484   C485    1.397   .     S
C484   C489    1.409   .     D
C484   H524    1.140   .     S
C485   C486    1.396   .     D
C485   H525    1.140   .     S
C486   C487    1.411   .     S
C486   C491    1.465   .     S
C487   C488    1.396   .     D
C487   H526    1.140   .     S
C488   C489    1.396   .     S
C488   H527    1.139   .     S
N490   C491    1.299   .     D
N490   C497    1.431   .     S
C491   H528    1.140   .     S
C492   C493    1.401   .     S
C492   C497    1.414   .     D
C492   H529    1.140   .     S
C493   C494    1.406   .     D
C493   H530    1.140   .     S
C494   C495    1.404   .     S
C495   C496    1.396   .     D
C495   H531    1.140   .     S
C496   C497    1.408   .     S
C496   H532    1.140   .     S
N498   C778    1.433   .     S
N498   C804    1.452   .     D
C499   N502    1.442   .     S
C499   C935    1.397   .     D
C500   N802    1.452   .     D
C500   C934    1.412   .     D
C501   N502    1.305   .     D
C501   C504    1.463   .     S
C501   H519    1.140   .     S
C503   C505    1.498   .     S
C503   C937    1.412   .     S
C504   C936    1.418   .     S
C505   C961    1.364   .     D
C534   C575    1.416   .     S
C534   H583    1.140   .     S
C535   C536    1.391   .     S
C535   C580    1.394   .     D
C535   H584    1.140   .     S
C536   C579    1.413   .     D
C536   H585    1.140   .     S
S537   C581    1.819   .     S
S537   C2469   1.785   .     S
C538   S539    1.811   .     S
C538   C545    1.469   .     S
C538   C1450   1.335   .     D
S539   C2463   1.796   .     S
C540   C541    1.400   .     S
C540   C545    1.395   .     D
C540   H586    1.140   .     S
C541   C542    1.401   .     D
C541   H587    1.139   .     S
C542   C543    1.401   .     S
C542   C547    1.463   .     S
C543   C544    1.406   .     D
C543   H588    1.140   .     S
C544   C545    1.404   .     S
C544   H589    1.140   .     S
N546   C547    1.302   .     D
N546   C553    1.430   .     S
C547   H590    1.140   .     S
C548   C549    1.406   .     S
C548   C553    1.405   .     D
C548   H591    1.140   .     S
C549   C550    1.397   .     D
C549   H592    1.140   .     S
C550   C551    1.406   .     S
C550   N878    1.433   .     S
C551   C552    1.403   .     D
C551   H593    1.140   .     S
C552   C553    1.407   .     S
C552   H594    1.140   .     S
C554   C555    1.407   .     S
C554   H596    1.139   .     S
C554   C1032   1.412   .     D
C555   H597    1.140   .     S
C555   C1031   1.397   .     D
C556   C557    1.410   .     S
C556   H598    1.140   .     S
C556   C1036   1.418   .     D
C557   H599    1.140   .     S
C557   C1035   1.412   .     D
C558   S559    1.800   .     S
C558   C565    1.462   .     S
C558   C1470   1.340   .     D
S559   C2456   1.801   .     S
C560   C561    1.397   .     S
C560   C565    1.409   .     D
C560   H600    1.140   .     S
C561   C562    1.396   .     D
C561   H601    1.140   .     S
C562   C563    1.411   .     S
C562   C567    1.465   .     S
C563   C564    1.396   .     D
C563   H602    1.140   .     S
C564   C565    1.396   .     S
C564   H603    1.139   .     S
N566   C567    1.299   .     D
N566   C573    1.431   .     S
C567   H604    1.140   .     S
C568   C569    1.401   .     D
C568   C573    1.414   .     S
C568   H605    1.140   .     S
C569   C570    1.406   .     S
C569   H606    1.140   .     S
C570   C571    1.404   .     D
C571   C572    1.396   .     S
C571   H607    1.140   .     S
C572   C573    1.408   .     D
C572   H608    1.140   .     S
N574   C854    1.433   .     S
N574   C880    1.452   .     D
C575   N578    1.442   .     S
C575   C1011   1.397   .     D
C576   N878    1.452   .     D
C576   C1010   1.412   .     D
C577   N578    1.305   .     D
C577   C580    1.463   .     S
C577   H595    1.140   .     S
C579   C581    1.498   .     S
C579   C1013   1.412   .     S
C580   C1012   1.418   .     S
C581   C1037   1.364   .     D
C610   C651    1.416   .     S
C610   H659    1.140   .     S
C611   C612    1.391   .     S
C611   C656    1.394   .     D
C611   H660    1.140   .     S
C612   C655    1.413   .     D
C612   H661    1.140   .     S
S613   C657    1.819   .     S
S613   C2470   1.785   .     S
C614   S615    1.811   .     S
C614   C621    1.469   .     S
C614   C2134   1.335   .     D
S615   C2433   1.796   .     S
C616   C617    1.400   .     S
C616   C621    1.395   .     D
C616   H662    1.140   .     S
C617   C618    1.401   .     D
C617   H663    1.139   .     S
C618   C619    1.401   .     S
C618   C623    1.463   .     S
C619   C620    1.406   .     D
C619   H664    1.140   .     S
C620   C621    1.404   .     S
C620   H665    1.140   .     S
N622   C623    1.302   .     D
N622   C629    1.430   .     S
C623   H666    1.140   .     S
C624   C625    1.406   .     S
C624   C629    1.405   .     D
C624   H667    1.140   .     S
C625   C626    1.397   .     D
C625   H668    1.140   .     S
C626   C627    1.406   .     S
C627   C628    1.403   .     D
C627   H669    1.140   .     S
C628   C629    1.407   .     S
C628   H670    1.140   .     S
C630   C631    1.407   .     S
C630   H672    1.139   .     S
C631   H673    1.140   .     S
C632   C633    1.410   .     D
C632   H674    1.140   .     S
C633   H675    1.140   .     S
C634   S635    1.800   .     S
C634   C641    1.462   .     S
C634   C2154   1.340   .     D
S635   C2442   1.801   .     S
C636   C637    1.397   .     D
C636   C641    1.409   .     S
C636   H676    1.140   .     S
C637   C638    1.396   .     S
C637   H677    1.140   .     S
C638   C639    1.411   .     D
C638   C643    1.465   .     S
C639   C640    1.396   .     S
C639   H678    1.140   .     S
C640   C641    1.396   .     D
C640   H679    1.139   .     S
N642   C643    1.299   .     D
N642   C649    1.431   .     S
C643   H680    1.140   .     S
C644   C645    1.401   .     D
C644   C649    1.414   .     S
C644   H681    1.140   .     S
C645   C646    1.406   .     S
C645   H682    1.140   .     S
C646   C647    1.404   .     D
C646   N1106   1.434   .     S
C647   C648    1.396   .     S
C647   H683    1.140   .     S
C648   C649    1.408   .     D
C648   H684    1.140   .     S
N650   C1102   1.434   .     S
C651   N654    1.442   .     S
C653   N654    1.305   .     D
C653   C656    1.463   .     S
C653   H671    1.140   .     S
C655   C657    1.498   .     S
C686   C727    1.416   .     S
C686   H735    1.140   .     S
C687   C688    1.391   .     S
C687   C732    1.394   .     D
C687   H736    1.140   .     S
C688   C731    1.413   .     D
C688   H737    1.140   .     S
S689   C733    1.819   .     S
S689   C2471   1.785   .     S
C690   S691    1.811   .     S
C690   C697    1.469   .     S
C690   C2210   1.335   1_554 D
S691   C2435   1.796   .     S
C692   C693    1.400   .     D
C692   C697    1.395   .     S
C692   H738    1.140   .     S
C693   C694    1.401   .     S
C693   H739    1.139   .     S
C694   C695    1.401   .     D
C694   C699    1.463   .     S
C695   C696    1.406   .     S
C695   H740    1.140   .     S
C696   C697    1.404   .     D
C696   H741    1.140   .     S
N698   C699    1.302   .     D
N698   C705    1.430   .     S
C699   H742    1.140   .     S
C700   C701    1.406   .     S
C700   C705    1.405   .     D
C700   H743    1.140   .     S
C701   C702    1.397   .     D
C701   H744    1.140   .     S
C702   C703    1.406   .     S
C703   C704    1.403   .     D
C703   H745    1.140   .     S
C704   C705    1.407   .     S
C704   H746    1.140   .     S
C706   C707    1.407   .     S
C706   H748    1.139   .     S
C707   H749    1.140   .     S
C708   C709    1.410   .     D
C708   H750    1.140   .     S
C709   H751    1.140   .     S
C710   S711    1.800   .     S
C710   C717    1.462   .     S
C710   C2230   1.340   1_554 D
S711   C2444   1.801   .     S
C712   C713    1.397   .     S
C712   C717    1.409   .     D
C712   H752    1.140   .     S
C713   C714    1.396   .     D
C713   H753    1.140   .     S
C714   C715    1.411   .     S
C714   C719    1.465   .     S
C715   C716    1.396   .     D
C715   H754    1.140   .     S
C716   C717    1.396   .     S
C716   H755    1.139   .     S
N718   C719    1.299   .     D
N718   C725    1.431   .     S
C719   H756    1.140   .     S
C720   C721    1.401   .     S
C720   C725    1.414   .     D
C720   H757    1.140   .     S
C721   C722    1.406   .     D
C721   H758    1.140   .     S
C722   C723    1.404   .     S
C722   N1182   1.434   .     S
C723   C724    1.396   .     D
C723   H759    1.140   .     S
C724   C725    1.408   .     S
C724   H760    1.140   .     S
N726   C1178   1.434   .     S
C727   N730    1.442   .     S
C729   N730    1.305   .     D
C729   C732    1.463   .     S
C729   H747    1.140   .     S
C731   C733    1.498   .     S
C762   C803    1.416   .     S
C762   H811    1.140   .     S
C763   C764    1.391   .     S
C763   C808    1.394   .     D
C763   H812    1.140   .     S
C764   C807    1.413   .     D
C764   H813    1.140   .     S
S765   C809    1.819   .     S
S765   C2465   1.785   .     S
C766   S767    1.811   .     S
C766   C773    1.469   .     S
C766   C2286   1.335   1_554 D
S767   C2437   1.796   .     S
C768   C769    1.400   .     D
C768   C773    1.395   .     S
C768   H814    1.140   .     S
C769   C770    1.401   .     S
C769   H815    1.139   .     S
C770   C771    1.401   .     D
C770   C775    1.463   .     S
C771   C772    1.406   .     S
C771   H816    1.140   .     S
C772   C773    1.404   .     D
C772   H817    1.140   .     S
N774   C775    1.302   .     D
N774   C781    1.430   .     S
C775   H818    1.140   .     S
C776   C777    1.406   .     D
C776   C781    1.405   .     S
C776   H819    1.140   .     S
C777   C778    1.397   .     S
C777   H820    1.140   .     S
C778   C779    1.406   .     D
C779   C780    1.403   .     S
C779   H821    1.140   .     S
C780   C781    1.407   .     D
C780   H822    1.140   .     S
C782   C783    1.407   .     S
C782   H824    1.139   .     S
C783   H825    1.140   .     S
C784   C785    1.410   .     D
C784   H826    1.140   .     S
C785   H827    1.140   .     S
C786   S787    1.800   .     S
C786   C793    1.462   .     S
C786   C2306   1.340   1_554 D
S787   C2446   1.801   .     S
C788   C789    1.397   .     D
C788   C793    1.409   .     S
C788   H828    1.140   .     S
C789   C790    1.396   .     S
C789   H829    1.140   .     S
C790   C791    1.411   .     D
C790   C795    1.465   .     S
C791   C792    1.396   .     S
C791   H830    1.140   .     S
C792   C793    1.396   .     D
C792   H831    1.139   .     S
N794   C795    1.299   .     D
N794   C801    1.431   .     S
C795   H832    1.140   .     S
C796   C797    1.401   .     D
C796   C801    1.414   .     S
C796   H833    1.140   .     S
C797   C798    1.406   .     S
C797   H834    1.140   .     S
C798   C799    1.404   .     D
C798   N954    1.434   .     S
C799   C800    1.396   .     S
C799   H835    1.140   .     S
C800   C801    1.408   .     D
C800   H836    1.140   .     S
N802   C950    1.434   .     S
C803   N806    1.442   .     S
C805   N806    1.305   .     D
C805   C808    1.463   .     S
C805   H823    1.140   .     S
C807   C809    1.498   .     S
C838   C879    1.416   .     S
C838   H887    1.140   .     S
C839   C840    1.391   .     S
C839   C884    1.394   .     D
C839   H888    1.140   .     S
C840   C883    1.413   .     D
C840   H889    1.140   .     S
S841   C885    1.819   .     S
S841   C2466   1.785   .     S
C842   S843    1.811   .     S
C842   C849    1.469   .     S
C842   C2362   1.335   .     D
S843   C2439   1.796   .     S
C844   C845    1.400   .     D
C844   C849    1.395   .     S
C844   H890    1.140   .     S
C845   C846    1.401   .     S
C845   H891    1.139   .     S
C846   C847    1.401   .     D
C846   C851    1.463   .     S
C847   C848    1.406   .     S
C847   H892    1.140   .     S
C848   C849    1.404   .     D
C848   H893    1.140   .     S
N850   C851    1.302   .     D
N850   C857    1.430   .     S
C851   H894    1.140   .     S
C852   C853    1.406   .     D
C852   C857    1.405   .     S
C852   H895    1.140   .     S
C853   C854    1.397   .     S
C853   H896    1.140   .     S
C854   C855    1.406   .     D
C855   C856    1.403   .     S
C855   H897    1.140   .     S
C856   C857    1.407   .     D
C856   H898    1.140   .     S
C858   C859    1.407   .     S
C858   H900    1.139   .     S
C859   H901    1.140   .     S
C860   C861    1.410   .     D
C860   H902    1.140   .     S
C861   H903    1.140   .     S
C862   S863    1.800   .     S
C862   C869    1.462   .     S
C862   C2382   1.340   .     D
S863   C2448   1.801   .     S
C864   C865    1.397   .     S
C864   C869    1.409   .     D
C864   H904    1.140   .     S
C865   C866    1.396   .     D
C865   H905    1.140   .     S
C866   C867    1.411   .     S
C866   C871    1.465   .     S
C867   C868    1.396   .     D
C867   H906    1.140   .     S
C868   C869    1.396   .     S
C868   H907    1.139   .     S
N870   C871    1.299   .     D
N870   C877    1.431   .     S
C871   H908    1.140   .     S
C872   C873    1.401   .     S
C872   C877    1.414   .     D
C872   H909    1.140   .     S
C873   C874    1.406   .     D
C873   H910    1.140   .     S
C874   C875    1.404   .     S
C874   N1030   1.434   .     S
C875   C876    1.396   .     D
C875   H911    1.140   .     S
C876   C877    1.408   .     S
C876   H912    1.140   .     S
N878   C1026   1.434   .     S
C879   N882    1.442   .     S
C881   N882    1.305   .     D
C881   C884    1.463   .     S
C881   H899    1.140   .     S
C883   C885    1.498   .     S
C914   C955    1.416   .     S
C914   H963    1.140   .     S
C915   C916    1.391   .     D
C915   C960    1.394   .     S
C915   H964    1.140   .     S
C916   C959    1.413   .     S
C916   H965    1.140   .     S
S917   C961    1.819   .     S
S917   C2472   1.785   .     S
C918   S919    1.811   .     S
C918   C925    1.469   .     S
C918   C1830   1.335   .     D
S919   C2441   1.796   .     S
C920   C921    1.400   .     D
C920   C925    1.395   .     S
C920   H966    1.140   .     S
C921   C922    1.401   .     S
C921   H967    1.139   .     S
C922   C923    1.401   .     D
C922   C927    1.463   .     S
C923   C924    1.406   .     S
C923   H968    1.140   .     S
C924   C925    1.404   .     D
C924   H969    1.140   .     S
N926   C927    1.302   .     D
N926   C933    1.430   .     S
C927   H970    1.140   .     S
C928   C929    1.406   .     D
C928   C933    1.405   .     S
C928   H971    1.140   .     S
C929   C930    1.397   .     S
C929   H972    1.140   .     S
C930   C931    1.406   .     D
C931   C932    1.403   .     S
C931   H973    1.140   .     S
C932   C933    1.407   .     D
C932   H974    1.140   .     S
C934   C935    1.407   .     S
C934   H976    1.139   .     S
C935   H977    1.140   .     S
C936   C937    1.410   .     D
C936   H978    1.140   .     S
C937   H979    1.140   .     S
C938   S939    1.800   .     S
C938   C945    1.462   .     S
C938   C1850   1.340   .     D
S939   C2434   1.801   .     S
C940   C941    1.397   .     S
C940   C945    1.409   .     D
C940   H980    1.140   .     S
C941   C942    1.396   .     D
C941   H981    1.140   .     S
C942   C943    1.411   .     S
C942   C947    1.465   .     S
C943   C944    1.396   .     D
C943   H982    1.140   .     S
C944   C945    1.396   .     S
C944   H983    1.139   .     S
N946   C947    1.299   .     D
N946   C953    1.431   .     S
C947   H984    1.140   .     S
C948   C949    1.401   .     S
C948   C953    1.414   .     D
C948   H985    1.140   .     S
C949   C950    1.406   .     D
C949   H986    1.140   .     S
C950   C951    1.404   .     S
C951   C952    1.396   .     D
C951   H987    1.140   .     S
C952   C953    1.408   .     S
C952   H988    1.140   .     S
C955   N958    1.442   .     S
C957   N958    1.305   .     D
C957   C960    1.463   .     S
C957   H975    1.140   .     S
C959   C961    1.498   .     S
C990   C1031   1.416   .     S
C990   H1039   1.140   .     S
C991   C992    1.391   .     D
C991   C1036   1.394   .     S
C991   H1040   1.140   .     S
C992   C1035   1.413   .     S
C992   H1041   1.140   .     S
S993   C1037   1.819   .     S
S993   C2469   1.785   .     S
C994   S995    1.811   .     S
C994   C1001   1.469   .     S
C994   C1906   1.335   1_554 D
S995   C2443   1.796   .     S
C996   C997    1.400   .     D
C996   C1001   1.395   .     S
C996   H1042   1.140   .     S
C997   C998    1.401   .     S
C997   H1043   1.139   .     S
C998   C999    1.401   .     D
C998   C1003   1.463   .     S
C999   C1000   1.406   .     S
C999   H1044   1.140   .     S
C1000  C1001   1.404   .     D
C1000  H1045   1.140   .     S
N1002  C1003   1.302   .     D
N1002  C1009   1.430   .     S
C1003  H1046   1.140   .     S
C1004  C1005   1.406   .     D
C1004  C1009   1.405   .     S
C1004  H1047   1.140   .     S
C1005  C1006   1.397   .     S
C1005  H1048   1.140   .     S
C1006  C1007   1.406   .     D
C1007  C1008   1.403   .     S
C1007  H1049   1.140   .     S
C1008  C1009   1.407   .     D
C1008  H1050   1.140   .     S
C1010  C1011   1.407   .     S
C1010  H1052   1.139   .     S
C1011  H1053   1.140   .     S
C1012  C1013   1.410   .     D
C1012  H1054   1.140   .     S
C1013  H1055   1.140   .     S
C1014  S1015   1.800   .     S
C1014  C1021   1.462   .     S
C1014  C1926   1.340   1_554 D
S1015  C2436   1.801   .     S
C1016  C1017   1.397   .     D
C1016  C1021   1.409   .     S
C1016  H1056   1.140   .     S
C1017  C1018   1.396   .     S
C1017  H1057   1.140   .     S
C1018  C1019   1.411   .     D
C1018  C1023   1.465   .     S
C1019  C1020   1.396   .     S
C1019  H1058   1.140   .     S
C1020  C1021   1.396   .     D
C1020  H1059   1.139   .     S
N1022  C1023   1.299   .     D
N1022  C1029   1.431   .     S
C1023  H1060   1.140   .     S
C1024  C1025   1.401   .     D
C1024  C1029   1.414   .     S
C1024  H1061   1.140   .     S
C1025  C1026   1.406   .     S
C1025  H1062   1.140   .     S
C1026  C1027   1.404   .     D
C1027  C1028   1.396   .     S
C1027  H1063   1.140   .     S
C1028  C1029   1.408   .     D
C1028  H1064   1.140   .     S
C1031  N1034   1.442   .     S
C1033  N1034   1.305   .     D
C1033  C1036   1.463   .     S
C1033  H1051   1.140   .     S
C1035  C1037   1.498   .     S
C1066  C1107   1.416   .     S
C1066  H1115   1.140   .     S
C1067  C1068   1.391   .     D
C1067  C1112   1.394   .     S
C1067  H1116   1.140   .     S
C1068  C1111   1.413   .     S
C1068  H1117   1.140   .     S
S1069  C1113   1.819   .     S
S1069  C2467   1.785   .     S
C1070  S1071   1.811   .     S
C1070  C1077   1.469   .     S
C1070  C1982   1.335   1_554 D
S1071  C2445   1.796   .     S
C1072  C1073   1.400   .     D
C1072  C1077   1.395   .     S
C1072  H1118   1.140   .     S
C1073  C1074   1.401   .     S
C1073  H1119   1.139   .     S
C1074  C1075   1.401   .     D
C1074  C1079   1.463   .     S
C1075  C1076   1.406   .     S
C1075  H1120   1.140   .     S
C1076  C1077   1.404   .     D
C1076  H1121   1.140   .     S
N1078  C1079   1.302   .     D
N1078  C1085   1.430   .     S
C1079  H1122   1.140   .     S
C1080  C1081   1.406   .     D
C1080  C1085   1.405   .     S
C1080  H1123   1.140   .     S
C1081  C1082   1.397   .     S
C1081  H1124   1.140   .     S
C1082  C1083   1.406   .     D
C1083  C1084   1.403   .     S
C1083  H1125   1.140   .     S
C1084  C1085   1.407   .     D
C1084  H1126   1.140   .     S
C1086  C1087   1.407   .     S
C1086  H1128   1.139   .     S
C1087  H1129   1.140   .     S
C1088  C1089   1.410   .     D
C1088  H1130   1.140   .     S
C1089  H1131   1.140   .     S
C1090  S1091   1.800   .     S
C1090  C1097   1.462   .     S
C1090  C2002   1.340   1_554 D
S1091  C2438   1.801   .     S
C1092  C1093   1.397   .     D
C1092  C1097   1.409   .     S
C1092  H1132   1.140   .     S
C1093  C1094   1.396   .     S
C1093  H1133   1.140   .     S
C1094  C1095   1.411   .     D
C1094  C1099   1.465   .     S
C1095  C1096   1.396   .     S
C1095  H1134   1.140   .     S
C1096  C1097   1.396   .     D
C1096  H1135   1.139   .     S
N1098  C1099   1.299   .     D
N1098  C1105   1.431   .     S
C1099  H1136   1.140   .     S
C1100  C1101   1.401   .     D
C1100  C1105   1.414   .     S
C1100  H1137   1.140   .     S
C1101  C1102   1.406   .     S
C1101  H1138   1.140   .     S
C1102  C1103   1.404   .     D
C1103  C1104   1.396   .     S
C1103  H1139   1.140   .     S
C1104  C1105   1.408   .     D
C1104  H1140   1.140   .     S
C1107  N1110   1.442   .     S
C1109  N1110   1.305   .     D
C1109  C1112   1.463   .     S
C1109  H1127   1.140   .     S
C1111  C1113   1.498   .     S
C1142  C1183   1.416   .     S
C1142  H1191   1.140   .     S
C1143  C1144   1.391   .     D
C1143  C1188   1.394   .     S
C1143  H1192   1.140   .     S
C1144  C1187   1.413   .     S
C1144  H1193   1.140   .     S
S1145  C1189   1.819   .     S
S1145  C2468   1.785   .     S
C1146  S1147   1.811   .     S
C1146  C1153   1.469   .     S
C1146  C2058   1.335   .     D
S1147  C2447   1.796   .     S
C1148  C1149   1.400   .     S
C1148  C1153   1.395   .     D
C1148  H1194   1.140   .     S
C1149  C1150   1.401   .     D
C1149  H1195   1.139   .     S
C1150  C1151   1.401   .     S
C1150  C1155   1.463   .     S
C1151  C1152   1.406   .     D
C1151  H1196   1.140   .     S
C1152  C1153   1.404   .     S
C1152  H1197   1.140   .     S
N1154  C1155   1.302   .     D
N1154  C1161   1.430   .     S
C1155  H1198   1.140   .     S
C1156  C1157   1.406   .     S
C1156  C1161   1.405   .     D
C1156  H1199   1.140   .     S
C1157  C1158   1.397   .     D
C1157  H1200   1.140   .     S
C1158  C1159   1.406   .     S
C1159  C1160   1.403   .     D
C1159  H1201   1.140   .     S
C1160  C1161   1.407   .     S
C1160  H1202   1.140   .     S
C1162  C1163   1.407   .     S
C1162  H1204   1.139   .     S
C1163  H1205   1.140   .     S
C1164  C1165   1.410   .     D
C1164  H1206   1.140   .     S
C1165  H1207   1.140   .     S
C1166  S1167   1.800   .     S
C1166  C1173   1.462   .     S
C1166  C2078   1.340   .     D
S1167  C2440   1.801   .     S
C1168  C1169   1.397   .     D
C1168  C1173   1.409   .     S
C1168  H1208   1.140   .     S
C1169  C1170   1.396   .     S
C1169  H1209   1.140   .     S
C1170  C1171   1.411   .     D
C1170  C1175   1.465   .     S
C1171  C1172   1.396   .     S
C1171  H1210   1.140   .     S
C1172  C1173   1.396   .     D
C1172  H1211   1.139   .     S
N1174  C1175   1.299   .     D
N1174  C1181   1.431   .     S
C1175  H1212   1.140   .     S
C1176  C1177   1.401   .     D
C1176  C1181   1.414   .     S
C1176  H1213   1.140   .     S
C1177  C1178   1.406   .     S
C1177  H1214   1.140   .     S
C1178  C1179   1.404   .     D
C1179  C1180   1.396   .     S
C1179  H1215   1.140   .     S
C1180  C1181   1.408   .     D
C1180  H1216   1.140   .     S
C1183  N1186   1.442   .     S
C1185  N1186   1.305   .     D
C1185  C1188   1.463   .     S
C1185  H1203   1.140   .     S
C1187  C1189   1.498   .     S
C1218  C1259   1.416   .     D
C1218  H1267   1.140   .     S
C1219  C1220   1.391   .     D
C1219  C1264   1.394   .     S
C1219  H1268   1.140   .     S
C1220  C1263   1.413   .     S
C1220  H1269   1.140   .     S
S1221  C1265   1.819   .     S
S1221  C2473   1.785   .     S
C1222  S1223   1.811   .     S
C1222  C1229   1.469   .     S
S1223  C2457   1.796   .     S
C1224  C1225   1.400   .     S
C1224  C1229   1.395   .     D
C1224  H1270   1.140   .     S
C1225  C1226   1.401   .     D
C1225  H1271   1.139   .     S
C1226  C1227   1.401   .     S
C1226  C1231   1.463   .     S
C1227  C1228   1.406   .     D
C1227  H1272   1.140   .     S
C1228  C1229   1.404   .     S
C1228  H1273   1.140   .     S
N1230  C1231   1.302   .     D
N1230  C1237   1.430   .     S
C1231  H1274   1.140   .     S
C1232  C1233   1.406   .     S
C1232  C1237   1.405   .     D
C1232  H1275   1.140   .     S
C1233  C1234   1.397   .     D
C1233  H1276   1.140   .     S
C1234  C1235   1.406   .     S
C1234  N2170   1.433   .     S
C1235  C1236   1.403   .     D
C1235  H1277   1.140   .     S
C1236  C1237   1.407   .     S
C1236  H1278   1.140   .     S
C1238  C1239   1.407   .     D
C1238  H1280   1.139   .     S
C1238  C2020   1.412   .     S
C1239  H1281   1.140   .     S
C1239  C2019   1.397   .     S
C1240  C1241   1.410   .     D
C1240  H1282   1.140   .     S
C1240  C2024   1.418   .     S
C1241  H1283   1.140   .     S
C1241  C2023   1.412   .     S
C1242  S1243   1.800   .     S
C1242  C1249   1.462   .     S
S1243  C2450   1.801   .     S
C1244  C1245   1.397   .     S
C1244  C1249   1.409   .     D
C1244  H1284   1.140   .     S
C1245  C1246   1.396   .     D
C1245  H1285   1.140   .     S
C1246  C1247   1.411   .     S
C1246  C1251   1.465   .     S
C1247  C1248   1.396   .     D
C1247  H1286   1.140   .     S
C1248  C1249   1.396   .     S
C1248  H1287   1.139   .     S
N1250  C1251   1.299   .     D
N1250  C1257   1.431   .     S
C1251  H1288   1.140   .     S
C1252  C1253   1.401   .     S
C1252  C1257   1.414   .     D
C1252  H1289   1.140   .     S
C1253  C1254   1.406   .     D
C1253  H1290   1.140   .     S
C1254  C1255   1.404   .     S
C1254  N1714   1.434   .     S
C1255  C1256   1.396   .     D
C1255  H1291   1.140   .     S
C1256  C1257   1.408   .     S
C1256  H1292   1.140   .     S
N1258  C1710   1.434   .     S
N1258  C2146   1.433   .     S
N1258  C2172   1.452   .     D
C1259  N1262   1.442   .     S
C1259  C1999   1.397   .     S
C1260  C1998   1.412   .     S
C1260  N2170   1.452   .     D
C1261  N1262   1.305   .     D
C1261  C1264   1.463   .     S
C1261  H1279   1.140   .     S
C1263  C1265   1.498   .     S
C1263  C2001   1.412   .     D
C1264  C2000   1.418   .     D
C1265  C2025   1.364   .     D
C1294  C1335   1.416   .     S
C1294  H1343   1.140   .     S
C1295  C1296   1.391   .     S
C1295  C1340   1.394   .     D
C1295  H1344   1.140   .     S
C1296  C1339   1.413   .     D
C1296  H1345   1.140   .     S
S1297  C1341   1.819   .     S
S1297  C2474   1.785   .     S
C1298  C386    1.335   1_554 D
C1298  S1299   1.811   .     S
C1298  C1305   1.469   .     S
S1299  C2459   1.796   .     S
C1300  C1301   1.400   .     S
C1300  C1305   1.395   .     D
C1300  H1346   1.140   .     S
C1301  C1302   1.401   .     D
C1301  H1347   1.139   .     S
C1302  C1303   1.401   .     S
C1302  C1307   1.463   .     S
C1303  C1304   1.406   .     D
C1303  H1348   1.140   .     S
C1304  C1305   1.404   .     S
C1304  H1349   1.140   .     S
N1306  C1307   1.302   .     D
N1306  C1313   1.430   .     S
C1307  H1350   1.140   .     S
C1308  C1309   1.406   .     S
C1308  C1313   1.405   .     D
C1308  H1351   1.140   .     S
C1309  C1310   1.397   .     D
C1309  H1352   1.140   .     S
C1310  C1311   1.406   .     S
C1310  N2246   1.433   .     S
C1311  C1312   1.403   .     D
C1311  H1353   1.140   .     S
C1312  C1313   1.407   .     S
C1312  H1354   1.140   .     S
C1314  C1315   1.407   .     S
C1314  H1356   1.139   .     S
C1314  C2096   1.412   .     D
C1315  H1357   1.140   .     S
C1315  C2095   1.397   .     D
C1316  C1317   1.410   .     S
C1316  H1358   1.140   .     S
C1316  C2100   1.418   .     D
C1317  H1359   1.140   .     S
C1317  C2099   1.412   .     D
C1318  C406    1.340   1_554 D
C1318  S1319   1.800   .     S
C1318  C1325   1.462   .     S
S1319  C2452   1.801   .     S
C1320  C1321   1.397   .     S
C1320  C1325   1.409   .     D
C1320  H1360   1.140   .     S
C1321  C1322   1.396   .     D
C1321  H1361   1.140   .     S
C1322  C1323   1.411   .     S
C1322  C1327   1.465   .     S
C1323  C1324   1.396   .     D
C1323  H1362   1.140   .     S
C1324  C1325   1.396   .     S
C1324  H1363   1.139   .     S
N1326  C1327   1.299   .     D
N1326  C1333   1.431   .     S
C1327  H1364   1.140   .     S
C1328  C1329   1.401   .     S
C1328  C1333   1.414   .     D
C1328  H1365   1.140   .     S
C1329  C1330   1.406   .     D
C1329  H1366   1.140   .     S
C1330  C1331   1.404   .     S
C1330  N1790   1.434   .     S
C1331  C1332   1.396   .     D
C1331  H1367   1.140   .     S
C1332  C1333   1.408   .     S
C1332  H1368   1.140   .     S
N1334  C1786   1.434   .     S
N1334  C2222   1.433   .     S
N1334  C2248   1.452   .     D
C1335  N1338   1.442   .     S
C1335  C2075   1.397   .     D
C1336  C2074   1.412   .     D
C1336  N2246   1.452   .     D
C1337  N1338   1.305   .     D
C1337  C1340   1.463   .     S
C1337  H1355   1.140   .     S
C1339  C1341   1.498   .     S
C1339  C2077   1.412   .     S
C1340  C2076   1.418   .     S
C1341  C2101   1.364   .     D
C1370  C1411   1.416   .     S
C1370  H1419   1.140   .     S
C1371  C1372   1.391   .     S
C1371  C1416   1.394   .     D
C1371  H1420   1.140   .     S
C1372  C1415   1.413   .     D
C1372  H1421   1.140   .     S
S1373  C1417   1.819   .     S
S1373  C2475   1.785   .     S
C1374  C462    1.335   1_554 D
C1374  S1375   1.811   .     S
C1374  C1381   1.469   .     S
S1375  C2461   1.796   .     S
C1376  C1377   1.400   .     D
C1376  C1381   1.395   .     S
C1376  H1422   1.140   .     S
C1377  C1378   1.401   .     S
C1377  H1423   1.139   .     S
C1378  C1379   1.401   .     D
C1378  C1383   1.463   .     S
C1379  C1380   1.406   .     S
C1379  H1424   1.140   .     S
C1380  C1381   1.404   .     D
C1380  H1425   1.140   .     S
N1382  C1383   1.302   .     D
N1382  C1389   1.430   .     S
C1383  H1426   1.140   .     S
C1384  C1385   1.406   .     D
C1384  C1389   1.405   .     S
C1384  H1427   1.140   .     S
C1385  C1386   1.397   .     S
C1385  H1428   1.140   .     S
C1386  C1387   1.406   .     D
C1386  N2322   1.433   .     S
C1387  C1388   1.403   .     S
C1387  H1429   1.140   .     S
C1388  C1389   1.407   .     D
C1388  H1430   1.140   .     S
C1390  C1391   1.407   .     S
C1390  H1432   1.139   .     S
C1390  C1868   1.412   .     D
C1391  H1433   1.140   .     S
C1391  C1867   1.397   .     D
C1392  C1393   1.410   .     S
C1392  H1434   1.140   .     S
C1392  C1872   1.418   .     D
C1393  H1435   1.140   .     S
C1393  C1871   1.412   .     D
C1394  C482    1.340   1_554 D
C1394  S1395   1.800   .     S
C1394  C1401   1.462   .     S
S1395  C2454   1.801   .     S
C1396  C1397   1.397   .     S
C1396  C1401   1.409   .     D
C1396  H1436   1.140   .     S
C1397  C1398   1.396   .     D
C1397  H1437   1.140   .     S
C1398  C1399   1.411   .     S
C1398  C1403   1.465   .     S
C1399  C1400   1.396   .     D
C1399  H1438   1.140   .     S
C1400  C1401   1.396   .     S
C1400  H1439   1.139   .     S
N1402  C1403   1.299   .     D
N1402  C1409   1.431   .     S
C1403  H1440   1.140   .     S
C1404  C1405   1.401   .     S
C1404  C1409   1.414   .     D
C1404  H1441   1.140   .     S
C1405  C1406   1.406   .     D
C1405  H1442   1.140   .     S
C1406  C1407   1.404   .     S
C1406  N1562   1.434   .     S
C1407  C1408   1.396   .     D
C1407  H1443   1.140   .     S
C1408  C1409   1.408   .     S
C1408  H1444   1.140   .     S
N1410  C1558   1.434   .     S
N1410  C2298   1.433   .     S
N1410  C2324   1.452   .     D
C1411  N1414   1.442   .     S
C1411  C1847   1.397   .     D
C1412  C1846   1.412   .     D
C1412  N2322   1.452   .     D
C1413  N1414   1.305   .     D
C1413  C1416   1.463   .     S
C1413  H1431   1.140   .     S
C1415  C1417   1.498   .     S
C1415  C1849   1.412   .     S
C1416  C1848   1.418   .     S
C1417  C1873   1.364   .     D
C1446  C1487   1.416   .     S
C1446  H1495   1.140   .     S
C1447  C1448   1.391   .     S
C1447  C1492   1.394   .     D
C1447  H1496   1.140   .     S
C1448  C1491   1.413   .     D
C1448  H1497   1.140   .     S
S1449  C1493   1.819   .     S
S1449  C2478   1.785   .     S
C1450  S1451   1.811   .     S
C1450  C1457   1.469   .     S
S1451  C2463   1.796   .     S
C1452  C1453   1.400   .     D
C1452  C1457   1.395   .     S
C1452  H1498   1.140   .     S
C1453  C1454   1.401   .     S
C1453  H1499   1.139   .     S
C1454  C1455   1.401   .     D
C1454  C1459   1.463   .     S
C1455  C1456   1.406   .     S
C1455  H1500   1.140   .     S
C1456  C1457   1.404   .     D
C1456  H1501   1.140   .     S
N1458  C1459   1.302   .     D
N1458  C1465   1.430   .     S
C1459  H1502   1.140   .     S
C1460  C1461   1.406   .     S
C1460  C1465   1.405   .     D
C1460  H1503   1.140   .     S
C1461  C1462   1.397   .     D
C1461  H1504   1.140   .     S
C1462  C1463   1.406   .     S
C1462  N2398   1.433   .     S
C1463  C1464   1.403   .     D
C1463  H1505   1.140   .     S
C1464  C1465   1.407   .     S
C1464  H1506   1.140   .     S
C1466  C1467   1.407   .     S
C1466  H1508   1.139   .     S
C1466  C1944   1.412   .     D
C1467  H1509   1.140   .     S
C1467  C1943   1.397   .     D
C1468  C1469   1.410   .     S
C1468  H1510   1.140   .     S
C1468  C1948   1.418   .     D
C1469  H1511   1.140   .     S
C1469  C1947   1.412   .     D
C1470  S1471   1.800   .     S
C1470  C1477   1.462   .     S
S1471  C2456   1.801   .     S
C1472  C1473   1.397   .     S
C1472  C1477   1.409   .     D
C1472  H1512   1.140   .     S
C1473  C1474   1.396   .     D
C1473  H1513   1.140   .     S
C1474  C1475   1.411   .     S
C1474  C1479   1.465   .     S
C1475  C1476   1.396   .     D
C1475  H1514   1.140   .     S
C1476  C1477   1.396   .     S
C1476  H1515   1.139   .     S
N1478  C1479   1.299   .     D
N1478  C1485   1.431   .     S
C1479  H1516   1.140   .     S
C1480  C1481   1.401   .     D
C1480  C1485   1.414   .     S
C1480  H1517   1.140   .     S
C1481  C1482   1.406   .     S
C1481  H1518   1.140   .     S
C1482  C1483   1.404   .     D
C1482  N1638   1.434   .     S
C1483  C1484   1.396   .     S
C1483  H1519   1.140   .     S
C1484  C1485   1.408   .     D
C1484  H1520   1.140   .     S
N1486  C1634   1.434   .     S
N1486  C2374   1.433   .     S
N1486  C2400   1.452   .     D
C1487  N1490   1.442   .     S
C1487  C1923   1.397   .     D
C1488  C1922   1.412   .     D
C1488  N2398   1.452   .     D
C1489  N1490   1.305   .     D
C1489  C1492   1.463   .     S
C1489  H1507   1.140   .     S
C1491  C1493   1.498   .     S
C1491  C1925   1.412   .     S
C1492  C1924   1.418   .     S
C1493  C1949   1.364   .     D
C1522  C1563   1.416   .     S
C1522  H1571   1.140   .     S
C1523  C1524   1.391   .     S
C1523  C1568   1.394   .     D
C1523  H1572   1.140   .     S
C1524  C1567   1.413   .     D
C1524  H1573   1.140   .     S
S1525  C1569   1.819   .     S
S1525  C2476   1.785   .     S
C1526  S1527   1.811   .     S
C1526  C1533   1.469   .     S
S1527  C2449   1.796   .     S
C1528  C1529   1.400   .     D
C1528  C1533   1.395   .     S
C1528  H1574   1.140   .     S
C1529  C1530   1.401   .     S
C1529  H1575   1.139   .     S
C1530  C1531   1.401   .     D
C1530  C1535   1.463   .     S
C1531  C1532   1.406   .     S
C1531  H1576   1.140   .     S
C1532  C1533   1.404   .     D
C1532  H1577   1.140   .     S
N1534  C1535   1.302   .     D
N1534  C1541   1.430   .     S
C1535  H1578   1.140   .     S
C1536  C1537   1.406   .     S
C1536  C1541   1.405   .     D
C1536  H1579   1.140   .     S
C1537  C1538   1.397   .     D
C1537  H1580   1.140   .     S
C1538  C1539   1.406   .     S
C1538  N1866   1.433   .     S
C1539  C1540   1.403   .     D
C1539  H1581   1.140   .     S
C1540  C1541   1.407   .     S
C1540  H1582   1.140   .     S
C1542  C1543   1.407   .     S
C1542  H1584   1.139   .     S
C1542  C2324   1.412   .     D
C1543  H1585   1.140   .     S
C1543  C2323   1.397   .     D
C1544  C1545   1.410   .     D
C1544  H1586   1.140   .     S
C1544  C2328   1.418   .     S
C1545  H1587   1.140   .     S
C1545  C2327   1.412   .     S
C1546  S1547   1.800   .     S
C1546  C1553   1.462   .     S
S1547  C2458   1.801   .     S
C1548  C1549   1.397   .     S
C1548  C1553   1.409   .     D
C1548  H1588   1.140   .     S
C1549  C1550   1.396   .     D
C1549  H1589   1.140   .     S
C1550  C1551   1.411   .     S
C1550  C1555   1.465   .     S
C1551  C1552   1.396   .     D
C1551  H1590   1.140   .     S
C1552  C1553   1.396   .     S
C1552  H1591   1.139   .     S
N1554  C1555   1.299   .     D
N1554  C1561   1.431   .     S
C1555  H1592   1.140   .     S
C1556  C1557   1.401   .     D
C1556  C1561   1.414   .     S
C1556  H1593   1.140   .     S
C1557  C1558   1.406   .     S
C1557  H1594   1.140   .     S
C1558  C1559   1.404   .     D
C1559  C1560   1.396   .     S
C1559  H1595   1.140   .     S
C1560  C1561   1.408   .     D
C1560  H1596   1.140   .     S
N1562  C1842   1.433   .     S
N1562  C1868   1.452   .     D
C1563  N1566   1.442   .     S
C1563  C2303   1.397   .     D
C1564  N1866   1.452   .     D
C1564  C2302   1.412   .     D
C1565  N1566   1.305   .     D
C1565  C1568   1.463   .     S
C1565  H1583   1.140   .     S
C1567  C1569   1.498   .     S
C1567  C2305   1.412   .     S
C1568  C2304   1.418   .     S
C1569  C2329   1.364   .     D
C1598  C1639   1.416   .     S
C1598  H1647   1.140   .     S
C1599  C1600   1.391   .     S
C1599  C1644   1.394   .     D
C1599  H1648   1.140   .     S
C1600  C1643   1.413   .     D
C1600  H1649   1.140   .     S
S1601  C1645   1.819   .     S
S1601  C2477   1.785   .     S
C1602  C82     1.335   1_554 D
C1602  S1603   1.811   .     S
C1602  C1609   1.469   .     S
S1603  C2451   1.796   .     S
C1604  C1605   1.400   .     D
C1604  C1609   1.395   .     S
C1604  H1650   1.140   .     S
C1605  C1606   1.401   .     S
C1605  H1651   1.139   .     S
C1606  C1607   1.401   .     D
C1606  C1611   1.463   .     S
C1607  C1608   1.406   .     S
C1607  H1652   1.140   .     S
C1608  C1609   1.404   .     D
C1608  H1653   1.140   .     S
N1610  C1611   1.302   .     D
N1610  C1617   1.430   .     S
C1611  H1654   1.140   .     S
C1612  C1613   1.406   .     D
C1612  C1617   1.405   .     S
C1612  H1655   1.140   .     S
C1613  C1614   1.397   .     S
C1613  H1656   1.140   .     S
C1614  C1615   1.406   .     D
C1614  N1942   1.433   .     S
C1615  C1616   1.403   .     S
C1615  H1657   1.140   .     S
C1616  C1617   1.407   .     D
C1616  H1658   1.140   .     S
C1618  C1619   1.407   .     S
C1618  H1660   1.139   .     S
C1618  C2400   1.412   .     D
C1619  H1661   1.140   .     S
C1619  C2399   1.397   .     D
C1620  C1621   1.410   .     D
C1620  H1662   1.140   .     S
C1620  C2404   1.418   .     S
C1621  H1663   1.140   .     S
C1621  C2403   1.412   .     S
C1622  C102    1.340   1_554 D
C1622  S1623   1.800   .     S
C1622  C1629   1.462   .     S
S1623  C2460   1.801   .     S
C1624  C1625   1.397   .     S
C1624  C1629   1.409   .     D
C1624  H1664   1.140   .     S
C1625  C1626   1.396   .     D
C1625  H1665   1.140   .     S
C1626  C1627   1.411   .     S
C1626  C1631   1.465   .     S
C1627  C1628   1.396   .     D
C1627  H1666   1.140   .     S
C1628  C1629   1.396   .     S
C1628  H1667   1.139   .     S
N1630  C1631   1.299   .     D
N1630  C1637   1.431   .     S
C1631  H1668   1.140   .     S
C1632  C1633   1.401   .     S
C1632  C1637   1.414   .     D
C1632  H1669   1.140   .     S
C1633  C1634   1.406   .     D
C1633  H1670   1.140   .     S
C1634  C1635   1.404   .     S
C1635  C1636   1.396   .     D
C1635  H1671   1.140   .     S
C1636  C1637   1.408   .     S
C1636  H1672   1.140   .     S
N1638  C1918   1.433   .     S
N1638  C1944   1.452   .     D
C1639  N1642   1.442   .     S
C1639  C2379   1.397   .     D
C1640  N1942   1.452   .     D
C1640  C2378   1.412   .     D
C1641  N1642   1.305   .     D
C1641  C1644   1.463   .     S
C1641  H1659   1.140   .     S
C1643  C1645   1.498   .     S
C1643  C2381   1.412   .     S
C1644  C2380   1.418   .     S
C1645  C2405   1.364   .     D
C1674  C1715   1.416   .     S
C1674  H1723   1.140   .     S
C1675  C1676   1.391   .     S
C1675  C1720   1.394   .     D
C1675  H1724   1.140   .     S
C1676  C1719   1.413   .     D
C1676  H1725   1.140   .     S
S1677  C1721   1.819   .     S
S1677  C2479   1.785   .     S
C1678  C158    1.335   1_554 D
C1678  S1679   1.811   .     S
C1678  C1685   1.469   .     S
S1679  C2453   1.796   .     S
C1680  C1681   1.400   .     S
C1680  C1685   1.395   .     D
C1680  H1726   1.140   .     S
C1681  C1682   1.401   .     D
C1681  H1727   1.139   .     S
C1682  C1683   1.401   .     S
C1682  C1687   1.463   .     S
C1683  C1684   1.406   .     D
C1683  H1728   1.140   .     S
C1684  C1685   1.404   .     S
C1684  H1729   1.140   .     S
N1686  C1687   1.302   .     D
N1686  C1693   1.430   .     S
C1687  H1730   1.140   .     S
C1688  C1689   1.406   .     S
C1688  C1693   1.405   .     D
C1688  H1731   1.140   .     S
C1689  C1690   1.397   .     D
C1689  H1732   1.140   .     S
C1690  C1691   1.406   .     S
C1690  N2018   1.433   .     S
C1691  C1692   1.403   .     D
C1691  H1733   1.140   .     S
C1692  C1693   1.407   .     S
C1692  H1734   1.140   .     S
C1694  C1695   1.407   .     S
C1694  H1736   1.139   .     S
C1694  C2172   1.412   .     D
C1695  H1737   1.140   .     S
C1695  C2171   1.397   .     D
C1696  C1697   1.410   .     D
C1696  H1738   1.140   .     S
C1696  C2176   1.418   .     S
C1697  H1739   1.140   .     S
C1697  C2175   1.412   .     S
C1698  C178    1.340   1_554 D
C1698  S1699   1.800   .     S
C1698  C1705   1.462   .     S
S1699  C2462   1.801   .     S
C1700  C1701   1.397   .     S
C1700  C1705   1.409   .     D
C1700  H1740   1.140   .     S
C1701  C1702   1.396   .     D
C1701  H1741   1.140   .     S
C1702  C1703   1.411   .     S
C1702  C1707   1.465   .     S
C1703  C1704   1.396   .     D
C1703  H1742   1.140   .     S
C1704  C1705   1.396   .     S
C1704  H1743   1.139   .     S
N1706  C1707   1.299   .     D
N1706  C1713   1.431   .     S
C1707  H1744   1.140   .     S
C1708  C1709   1.401   .     D
C1708  C1713   1.414   .     S
C1708  H1745   1.140   .     S
C1709  C1710   1.406   .     S
C1709  H1746   1.140   .     S
C1710  C1711   1.404   .     D
C1711  C1712   1.396   .     S
C1711  H1747   1.140   .     S
C1712  C1713   1.408   .     D
C1712  H1748   1.140   .     S
N1714  C1994   1.433   .     S
N1714  C2020   1.452   .     D
C1715  N1718   1.442   .     S
C1715  C2151   1.397   .     D
C1716  N2018   1.452   .     D
C1716  C2150   1.412   .     D
C1717  N1718   1.305   .     D
C1717  C1720   1.463   .     S
C1717  H1735   1.140   .     S
C1719  C1721   1.498   .     S
C1719  C2153   1.412   .     S
C1720  C2152   1.418   .     S
C1721  C2177   1.364   .     D
C1750  C1791   1.416   .     D
C1750  H1799   1.140   .     S
C1751  C1752   1.391   .     D
C1751  C1796   1.394   .     S
C1751  H1800   1.140   .     S
C1752  C1795   1.413   .     S
C1752  H1801   1.140   .     S
S1753  C1797   1.819   .     S
S1753  C2480   1.785   .     S
C1754  S1755   1.811   .     S
C1754  C1761   1.469   .     S
S1755  C2455   1.796   .     S
C1756  C1757   1.400   .     S
C1756  C1761   1.395   .     D
C1756  H1802   1.140   .     S
C1757  C1758   1.401   .     D
C1757  H1803   1.139   .     S
C1758  C1759   1.401   .     S
C1758  C1763   1.463   .     S
C1759  C1760   1.406   .     D
C1759  H1804   1.140   .     S
C1760  C1761   1.404   .     S
C1760  H1805   1.140   .     S
N1762  C1763   1.302   .     D
N1762  C1769   1.430   .     S
C1763  H1806   1.140   .     S
C1764  C1765   1.406   .     S
C1764  C1769   1.405   .     D
C1764  H1807   1.140   .     S
C1765  C1766   1.397   .     D
C1765  H1808   1.140   .     S
C1766  C1767   1.406   .     S
C1766  N2094   1.433   .     S
C1767  C1768   1.403   .     D
C1767  H1809   1.140   .     S
C1768  C1769   1.407   .     S
C1768  H1810   1.140   .     S
C1770  C1771   1.407   .     D
C1770  H1812   1.139   .     S
C1770  C2248   1.412   .     S
C1771  H1813   1.140   .     S
C1771  C2247   1.397   .     S
C1772  C1773   1.410   .     D
C1772  H1814   1.140   .     S
C1772  C2252   1.418   .     S
C1773  H1815   1.140   .     S
C1773  C2251   1.412   .     S
C1774  S1775   1.800   .     S
C1774  C1781   1.462   .     S
S1775  C2464   1.801   .     S
C1776  C1777   1.397   .     S
C1776  C1781   1.409   .     D
C1776  H1816   1.140   .     S
C1777  C1778   1.396   .     D
C1777  H1817   1.140   .     S
C1778  C1779   1.411   .     S
C1778  C1783   1.465   .     S
C1779  C1780   1.396   .     D
C1779  H1818   1.140   .     S
C1780  C1781   1.396   .     S
C1780  H1819   1.139   .     S
N1782  C1783   1.299   .     D
N1782  C1789   1.431   .     S
C1783  H1820   1.140   .     S
C1784  C1785   1.401   .     S
C1784  C1789   1.414   .     D
C1784  H1821   1.140   .     S
C1785  C1786   1.406   .     D
C1785  H1822   1.140   .     S
C1786  C1787   1.404   .     S
C1787  C1788   1.396   .     D
C1787  H1823   1.140   .     S
C1788  C1789   1.408   .     S
C1788  H1824   1.140   .     S
N1790  C2070   1.433   .     S
N1790  C2096   1.452   .     D
C1791  N1794   1.442   .     S
C1791  C2227   1.397   .     S
C1792  N2094   1.452   .     D
C1792  C2226   1.412   .     S
C1793  N1794   1.305   .     D
C1793  C1796   1.463   .     S
C1793  H1811   1.140   .     S
C1795  C1797   1.498   .     S
C1795  C2229   1.412   .     D
C1796  C2228   1.418   .     D
C1797  C2253   1.364   .     D
C1826  C1867   1.416   .     S
C1826  H1875   1.140   .     S
C1827  C1828   1.391   .     D
C1827  C1872   1.394   .     S
C1827  H1876   1.140   .     S
C1828  C1871   1.413   .     S
C1828  H1877   1.140   .     S
S1829  C1873   1.819   .     S
S1829  C2475   1.785   .     S
C1830  S1831   1.811   .     S
C1830  C1837   1.469   .     S
S1831  C2441   1.796   .     S
C1832  C1833   1.400   .     D
C1832  C1837   1.395   .     S
C1832  H1878   1.140   .     S
C1833  C1834   1.401   .     S
C1833  H1879   1.139   .     S
C1834  C1835   1.401   .     D
C1834  C1839   1.463   .     S
C1835  C1836   1.406   .     S
C1835  H1880   1.140   .     S
C1836  C1837   1.404   .     D
C1836  H1881   1.140   .     S
N1838  C1839   1.302   .     D
N1838  C1845   1.430   .     S
C1839  H1882   1.140   .     S
C1840  C1841   1.406   .     S
C1840  C1845   1.405   .     D
C1840  H1883   1.140   .     S
C1841  C1842   1.397   .     D
C1841  H1884   1.140   .     S
C1842  C1843   1.406   .     S
C1843  C1844   1.403   .     D
C1843  H1885   1.140   .     S
C1844  C1845   1.407   .     S
C1844  H1886   1.140   .     S
C1846  C1847   1.407   .     S
C1846  H1888   1.139   .     S
C1847  H1889   1.140   .     S
C1848  C1849   1.410   .     D
C1848  H1890   1.140   .     S
C1849  H1891   1.140   .     S
C1850  S1851   1.800   .     S
C1850  C1857   1.462   .     S
S1851  C2434   1.801   .     S
C1852  C1853   1.397   .     S
C1852  C1857   1.409   .     D
C1852  H1892   1.140   .     S
C1853  C1854   1.396   .     D
C1853  H1893   1.140   .     S
C1854  C1855   1.411   .     S
C1854  C1859   1.465   .     S
C1855  C1856   1.396   .     D
C1855  H1894   1.140   .     S
C1856  C1857   1.396   .     S
C1856  H1895   1.139   .     S
N1858  C1859   1.299   .     D
N1858  C1865   1.431   .     S
C1859  H1896   1.140   .     S
C1860  C1861   1.401   .     S
C1860  C1865   1.414   .     D
C1860  H1897   1.140   .     S
C1861  C1862   1.406   .     D
C1861  H1898   1.140   .     S
C1862  C1863   1.404   .     S
C1862  N2322   1.434   .     S
C1863  C1864   1.396   .     D
C1863  H1899   1.140   .     S
C1864  C1865   1.408   .     S
C1864  H1900   1.140   .     S
N1866  C2318   1.434   .     S
C1867  N1870   1.442   .     S
C1869  N1870   1.305   .     D
C1869  C1872   1.463   .     S
C1869  H1887   1.140   .     S
C1871  C1873   1.498   .     S
C1902  C1943   1.416   .     S
C1902  H1951   1.140   .     S
C1903  C1904   1.391   .     D
C1903  C1948   1.394   .     S
C1903  H1952   1.140   .     S
C1904  C1947   1.413   .     S
C1904  H1953   1.140   .     S
S1905  C1949   1.819   .     S
S1905  C2478   1.785   .     S
C1906  C994    1.335   1_556 D
C1906  S1907   1.811   .     S
C1906  C1913   1.469   .     S
S1907  C2443   1.796   1_556 S
C1908  C1909   1.400   .     D
C1908  C1913   1.395   .     S
C1908  H1954   1.140   .     S
C1909  C1910   1.401   .     S
C1909  H1955   1.139   .     S
C1910  C1911   1.401   .     D
C1910  C1915   1.463   .     S
C1911  C1912   1.406   .     S
C1911  H1956   1.140   .     S
C1912  C1913   1.404   .     D
C1912  H1957   1.140   .     S
N1914  C1915   1.302   .     D
N1914  C1921   1.430   .     S
C1915  H1958   1.140   .     S
C1916  C1917   1.406   .     D
C1916  C1921   1.405   .     S
C1916  H1959   1.140   .     S
C1917  C1918   1.397   .     S
C1917  H1960   1.140   .     S
C1918  C1919   1.406   .     D
C1919  C1920   1.403   .     S
C1919  H1961   1.140   .     S
C1920  C1921   1.407   .     D
C1920  H1962   1.140   .     S
C1922  C1923   1.407   .     S
C1922  H1964   1.139   .     S
C1923  H1965   1.140   .     S
C1924  C1925   1.410   .     D
C1924  H1966   1.140   .     S
C1925  H1967   1.140   .     S
C1926  C1014   1.340   1_556 D
C1926  S1927   1.800   .     S
C1926  C1933   1.462   .     S
S1927  C2436   1.801   1_556 S
C1928  C1929   1.397   .     D
C1928  C1933   1.409   .     S
C1928  H1968   1.140   .     S
C1929  C1930   1.396   .     S
C1929  H1969   1.140   .     S
C1930  C1931   1.411   .     D
C1930  C1935   1.465   .     S
C1931  C1932   1.396   .     S
C1931  H1970   1.140   .     S
C1932  C1933   1.396   .     D
C1932  H1971   1.139   .     S
N1934  C1935   1.299   .     D
N1934  C1941   1.431   .     S
C1935  H1972   1.140   .     S
C1936  C1937   1.401   .     S
C1936  C1941   1.414   .     D
C1936  H1973   1.140   .     S
C1937  C1938   1.406   .     D
C1937  H1974   1.140   .     S
C1938  C1939   1.404   .     S
C1938  N2398   1.434   .     S
C1939  C1940   1.396   .     D
C1939  H1975   1.140   .     S
C1940  C1941   1.408   .     S
C1940  H1976   1.140   .     S
N1942  C2394   1.434   .     S
C1943  N1946   1.442   .     S
C1945  N1946   1.305   .     D
C1945  C1948   1.463   .     S
C1945  H1963   1.140   .     S
C1947  C1949   1.498   .     S
C1978  C2019   1.416   .     D
C1978  H2027   1.140   .     S
C1979  C1980   1.391   .     S
C1979  C2024   1.394   .     D
C1979  H2028   1.140   .     S
C1980  C2023   1.413   .     D
C1980  H2029   1.140   .     S
S1981  C2025   1.819   .     S
S1981  C2473   1.785   .     S
C1982  C1070   1.335   1_556 D
C1982  S1983   1.811   .     S
C1982  C1989   1.469   .     S
S1983  C2445   1.796   1_556 S
C1984  C1985   1.400   .     S
C1984  C1989   1.395   .     D
C1984  H2030   1.140   .     S
C1985  C1986   1.401   .     D
C1985  H2031   1.139   .     S
C1986  C1987   1.401   .     S
C1986  C1991   1.463   .     S
C1987  C1988   1.406   .     D
C1987  H2032   1.140   .     S
C1988  C1989   1.404   .     S
C1988  H2033   1.140   .     S
N1990  C1991   1.302   .     D
N1990  C1997   1.430   .     S
C1991  H2034   1.140   .     S
C1992  C1993   1.406   .     S
C1992  C1997   1.405   .     D
C1992  H2035   1.140   .     S
C1993  C1994   1.397   .     D
C1993  H2036   1.140   .     S
C1994  C1995   1.406   .     S
C1995  C1996   1.403   .     D
C1995  H2037   1.140   .     S
C1996  C1997   1.407   .     S
C1996  H2038   1.140   .     S
C1998  C1999   1.407   .     D
C1998  H2040   1.139   .     S
C1999  H2041   1.140   .     S
C2000  C2001   1.410   .     S
C2000  H2042   1.140   .     S
C2001  H2043   1.140   .     S
C2002  C1090   1.340   1_556 D
C2002  S2003   1.800   .     S
C2002  C2009   1.462   .     S
S2003  C2438   1.801   1_556 S
C2004  C2005   1.397   .     S
C2004  C2009   1.409   .     D
C2004  H2044   1.140   .     S
C2005  C2006   1.396   .     D
C2005  H2045   1.140   .     S
C2006  C2007   1.411   .     S
C2006  C2011   1.465   .     S
C2007  C2008   1.396   .     D
C2007  H2046   1.140   .     S
C2008  C2009   1.396   .     S
C2008  H2047   1.139   .     S
N2010  C2011   1.299   .     D
N2010  C2017   1.431   .     S
C2011  H2048   1.140   .     S
C2012  C2013   1.401   .     S
C2012  C2017   1.414   .     D
C2012  H2049   1.140   .     S
C2013  C2014   1.406   .     D
C2013  H2050   1.140   .     S
C2014  C2015   1.404   .     S
C2014  N2170   1.434   .     S
C2015  C2016   1.396   .     D
C2015  H2051   1.140   .     S
C2016  C2017   1.408   .     S
C2016  H2052   1.140   .     S
N2018  C2166   1.434   .     S
C2019  N2022   1.442   .     S
C2021  N2022   1.305   .     D
C2021  C2024   1.463   .     S
C2021  H2039   1.140   .     S
C2023  C2025   1.498   .     S
C2054  C2095   1.416   .     S
C2054  H2103   1.140   .     S
C2055  C2056   1.391   .     D
C2055  C2100   1.394   .     S
C2055  H2104   1.140   .     S
C2056  C2099   1.413   .     S
C2056  H2105   1.140   .     S
S2057  C2101   1.819   .     S
S2057  C2474   1.785   .     S
C2058  S2059   1.811   .     S
C2058  C2065   1.469   .     S
S2059  C2447   1.796   .     S
C2060  C2061   1.400   .     S
C2060  C2065   1.395   .     D
C2060  H2106   1.140   .     S
C2061  C2062   1.401   .     D
C2061  H2107   1.139   .     S
C2062  C2063   1.401   .     S
C2062  C2067   1.463   .     S
C2063  C2064   1.406   .     D
C2063  H2108   1.140   .     S
C2064  C2065   1.404   .     S
C2064  H2109   1.140   .     S
N2066  C2067   1.302   .     D
N2066  C2073   1.430   .     S
C2067  H2110   1.140   .     S
C2068  C2069   1.406   .     S
C2068  C2073   1.405   .     D
C2068  H2111   1.140   .     S
C2069  C2070   1.397   .     D
C2069  H2112   1.140   .     S
C2070  C2071   1.406   .     S
C2071  C2072   1.403   .     D
C2071  H2113   1.140   .     S
C2072  C2073   1.407   .     S
C2072  H2114   1.140   .     S
C2074  C2075   1.407   .     S
C2074  H2116   1.139   .     S
C2075  H2117   1.140   .     S
C2076  C2077   1.410   .     D
C2076  H2118   1.140   .     S
C2077  H2119   1.140   .     S
C2078  S2079   1.800   .     S
C2078  C2085   1.462   .     S
S2079  C2440   1.801   .     S
C2080  C2081   1.397   .     D
C2080  C2085   1.409   .     S
C2080  H2120   1.140   .     S
C2081  C2082   1.396   .     S
C2081  H2121   1.140   .     S
C2082  C2083   1.411   .     D
C2082  C2087   1.465   .     S
C2083  C2084   1.396   .     S
C2083  H2122   1.140   .     S
C2084  C2085   1.396   .     D
C2084  H2123   1.139   .     S
N2086  C2087   1.299   .     D
N2086  C2093   1.431   .     S
C2087  H2124   1.140   .     S
C2088  C2089   1.401   .     S
C2088  C2093   1.414   .     D
C2088  H2125   1.140   .     S
C2089  C2090   1.406   .     D
C2089  H2126   1.140   .     S
C2090  C2091   1.404   .     S
C2090  N2246   1.434   .     S
C2091  C2092   1.396   .     D
C2091  H2127   1.140   .     S
C2092  C2093   1.408   .     S
C2092  H2128   1.140   .     S
N2094  C2242   1.434   .     S
C2095  N2098   1.442   .     S
C2097  N2098   1.305   .     D
C2097  C2100   1.463   .     S
C2097  H2115   1.140   .     S
C2099  C2101   1.498   .     S
C2130  C2171   1.416   .     S
C2130  H2179   1.140   .     S
C2131  C2132   1.391   .     S
C2131  C2176   1.394   .     D
C2131  H2180   1.140   .     S
C2132  C2175   1.413   .     D
C2132  H2181   1.140   .     S
S2133  C2177   1.819   .     S
S2133  C2479   1.785   .     S
C2134  S2135   1.811   .     S
C2134  C2141   1.469   .     S
S2135  C2433   1.796   .     S
C2136  C2137   1.400   .     S
C2136  C2141   1.395   .     D
C2136  H2182   1.140   .     S
C2137  C2138   1.401   .     D
C2137  H2183   1.139   .     S
C2138  C2139   1.401   .     S
C2138  C2143   1.463   .     S
C2139  C2140   1.406   .     D
C2139  H2184   1.140   .     S
C2140  C2141   1.404   .     S
C2140  H2185   1.140   .     S
N2142  C2143   1.302   .     D
N2142  C2149   1.430   .     S
C2143  H2186   1.140   .     S
C2144  C2145   1.406   .     S
C2144  C2149   1.405   .     D
C2144  H2187   1.140   .     S
C2145  C2146   1.397   .     D
C2145  H2188   1.140   .     S
C2146  C2147   1.406   .     S
C2147  C2148   1.403   .     D
C2147  H2189   1.140   .     S
C2148  C2149   1.407   .     S
C2148  H2190   1.140   .     S
C2150  C2151   1.407   .     S
C2150  H2192   1.139   .     S
C2151  H2193   1.140   .     S
C2152  C2153   1.410   .     D
C2152  H2194   1.140   .     S
C2153  H2195   1.140   .     S
C2154  S2155   1.800   .     S
C2154  C2161   1.462   .     S
S2155  C2442   1.801   .     S
C2156  C2157   1.397   .     D
C2156  C2161   1.409   .     S
C2156  H2196   1.140   .     S
C2157  C2158   1.396   .     S
C2157  H2197   1.140   .     S
C2158  C2159   1.411   .     D
C2158  C2163   1.465   .     S
C2159  C2160   1.396   .     S
C2159  H2198   1.140   .     S
C2160  C2161   1.396   .     D
C2160  H2199   1.139   .     S
N2162  C2163   1.299   .     D
N2162  C2169   1.431   .     S
C2163  H2200   1.140   .     S
C2164  C2165   1.401   .     D
C2164  C2169   1.414   .     S
C2164  H2201   1.140   .     S
C2165  C2166   1.406   .     S
C2165  H2202   1.140   .     S
C2166  C2167   1.404   .     D
C2167  C2168   1.396   .     S
C2167  H2203   1.140   .     S
C2168  C2169   1.408   .     D
C2168  H2204   1.140   .     S
C2171  N2174   1.442   .     S
C2173  N2174   1.305   .     D
C2173  C2176   1.463   .     S
C2173  H2191   1.140   .     S
C2175  C2177   1.498   .     S
C2206  C2247   1.416   .     D
C2206  H2255   1.140   .     S
C2207  C2208   1.391   .     S
C2207  C2252   1.394   .     D
C2207  H2256   1.140   .     S
C2208  C2251   1.413   .     D
C2208  H2257   1.140   .     S
S2209  C2253   1.819   .     S
S2209  C2480   1.785   .     S
C2210  C690    1.335   1_556 D
C2210  S2211   1.811   .     S
C2210  C2217   1.469   .     S
S2211  C2435   1.796   1_556 S
C2212  C2213   1.400   .     S
C2212  C2217   1.395   .     D
C2212  H2258   1.140   .     S
C2213  C2214   1.401   .     D
C2213  H2259   1.139   .     S
C2214  C2215   1.401   .     S
C2214  C2219   1.463   .     S
C2215  C2216   1.406   .     D
C2215  H2260   1.140   .     S
C2216  C2217   1.404   .     S
C2216  H2261   1.140   .     S
N2218  C2219   1.302   .     D
N2218  C2225   1.430   .     S
C2219  H2262   1.140   .     S
C2220  C2221   1.406   .     S
C2220  C2225   1.405   .     D
C2220  H2263   1.140   .     S
C2221  C2222   1.397   .     D
C2221  H2264   1.140   .     S
C2222  C2223   1.406   .     S
C2223  C2224   1.403   .     D
C2223  H2265   1.140   .     S
C2224  C2225   1.407   .     S
C2224  H2266   1.140   .     S
C2226  C2227   1.407   .     D
C2226  H2268   1.139   .     S
C2227  H2269   1.140   .     S
C2228  C2229   1.410   .     S
C2228  H2270   1.140   .     S
C2229  H2271   1.140   .     S
C2230  C710    1.340   1_556 D
C2230  S2231   1.800   .     S
C2230  C2237   1.462   .     S
S2231  C2444   1.801   1_556 S
C2232  C2233   1.397   .     S
C2232  C2237   1.409   .     D
C2232  H2272   1.140   .     S
C2233  C2234   1.396   .     D
C2233  H2273   1.140   .     S
C2234  C2235   1.411   .     S
C2234  C2239   1.465   .     S
C2235  C2236   1.396   .     D
C2235  H2274   1.140   .     S
C2236  C2237   1.396   .     S
C2236  H2275   1.139   .     S
N2238  C2239   1.299   .     D
N2238  C2245   1.431   .     S
C2239  H2276   1.140   .     S
C2240  C2241   1.401   .     S
C2240  C2245   1.414   .     D
C2240  H2277   1.140   .     S
C2241  C2242   1.406   .     D
C2241  H2278   1.140   .     S
C2242  C2243   1.404   .     S
C2243  C2244   1.396   .     D
C2243  H2279   1.140   .     S
C2244  C2245   1.408   .     S
C2244  H2280   1.140   .     S
C2247  N2250   1.442   .     S
C2249  N2250   1.305   .     D
C2249  C2252   1.463   .     S
C2249  H2267   1.140   .     S
C2251  C2253   1.498   .     S
C2282  C2323   1.416   .     S
C2282  H2331   1.140   .     S
C2283  C2284   1.391   .     S
C2283  C2328   1.394   .     D
C2283  H2332   1.140   .     S
C2284  C2327   1.413   .     D
C2284  H2333   1.140   .     S
S2285  C2329   1.819   .     S
S2285  C2476   1.785   .     S
C2286  C766    1.335   1_556 D
C2286  S2287   1.811   .     S
C2286  C2293   1.469   .     S
S2287  C2437   1.796   1_556 S
C2288  C2289   1.400   .     D
C2288  C2293   1.395   .     S
C2288  H2334   1.140   .     S
C2289  C2290   1.401   .     S
C2289  H2335   1.139   .     S
C2290  C2291   1.401   .     D
C2290  C2295   1.463   .     S
C2291  C2292   1.406   .     S
C2291  H2336   1.140   .     S
C2292  C2293   1.404   .     D
C2292  H2337   1.140   .     S
N2294  C2295   1.302   .     D
N2294  C2301   1.430   .     S
C2295  H2338   1.140   .     S
C2296  C2297   1.406   .     D
C2296  C2301   1.405   .     S
C2296  H2339   1.140   .     S
C2297  C2298   1.397   .     S
C2297  H2340   1.140   .     S
C2298  C2299   1.406   .     D
C2299  C2300   1.403   .     S
C2299  H2341   1.140   .     S
C2300  C2301   1.407   .     D
C2300  H2342   1.140   .     S
C2302  C2303   1.407   .     S
C2302  H2344   1.139   .     S
C2303  H2345   1.140   .     S
C2304  C2305   1.410   .     D
C2304  H2346   1.140   .     S
C2305  H2347   1.140   .     S
C2306  C786    1.340   1_556 D
C2306  S2307   1.800   .     S
C2306  C2313   1.462   .     S
S2307  C2446   1.801   1_556 S
C2308  C2309   1.397   .     D
C2308  C2313   1.409   .     S
C2308  H2348   1.140   .     S
C2309  C2310   1.396   .     S
C2309  H2349   1.140   .     S
C2310  C2311   1.411   .     D
C2310  C2315   1.465   .     S
C2311  C2312   1.396   .     S
C2311  H2350   1.140   .     S
C2312  C2313   1.396   .     D
C2312  H2351   1.139   .     S
N2314  C2315   1.299   .     D
N2314  C2321   1.431   .     S
C2315  H2352   1.140   .     S
C2316  C2317   1.401   .     S
C2316  C2321   1.414   .     D
C2316  H2353   1.140   .     S
C2317  C2318   1.406   .     D
C2317  H2354   1.140   .     S
C2318  C2319   1.404   .     S
C2319  C2320   1.396   .     D
C2319  H2355   1.140   .     S
C2320  C2321   1.408   .     S
C2320  H2356   1.140   .     S
C2323  N2326   1.442   .     S
C2325  N2326   1.305   .     D
C2325  C2328   1.463   .     S
C2325  H2343   1.140   .     S
C2327  C2329   1.498   .     S
C2358  C2399   1.416   .     S
C2358  H2407   1.140   .     S
C2359  C2360   1.391   .     S
C2359  C2404   1.394   .     D
C2359  H2408   1.140   .     S
C2360  C2403   1.413   .     D
C2360  H2409   1.140   .     S
S2361  C2405   1.819   .     S
S2361  C2477   1.785   .     S
C2362  S2363   1.811   .     S
C2362  C2369   1.469   .     S
S2363  C2439   1.796   .     S
C2364  C2365   1.400   .     S
C2364  C2369   1.395   .     D
C2364  H2410   1.140   .     S
C2365  C2366   1.401   .     D
C2365  H2411   1.139   .     S
C2366  C2367   1.401   .     S
C2366  C2371   1.463   .     S
C2367  C2368   1.406   .     D
C2367  H2412   1.140   .     S
C2368  C2369   1.404   .     S
C2368  H2413   1.140   .     S
N2370  C2371   1.302   .     D
N2370  C2377   1.430   .     S
C2371  H2414   1.140   .     S
C2372  C2373   1.406   .     D
C2372  C2377   1.405   .     S
C2372  H2415   1.140   .     S
C2373  C2374   1.397   .     S
C2373  H2416   1.140   .     S
C2374  C2375   1.406   .     D
C2375  C2376   1.403   .     S
C2375  H2417   1.140   .     S
C2376  C2377   1.407   .     D
C2376  H2418   1.140   .     S
C2378  C2379   1.407   .     S
C2378  H2420   1.139   .     S
C2379  H2421   1.140   .     S
C2380  C2381   1.410   .     D
C2380  H2422   1.140   .     S
C2381  H2423   1.140   .     S
C2382  S2383   1.800   .     S
C2382  C2389   1.462   .     S
S2383  C2448   1.801   .     S
C2384  C2385   1.397   .     S
C2384  C2389   1.409   .     D
C2384  H2424   1.140   .     S
C2385  C2386   1.396   .     D
C2385  H2425   1.140   .     S
C2386  C2387   1.411   .     S
C2386  C2391   1.465   .     S
C2387  C2388   1.396   .     D
C2387  H2426   1.140   .     S
C2388  C2389   1.396   .     S
C2388  H2427   1.139   .     S
N2390  C2391   1.299   .     D
N2390  C2397   1.431   .     S
C2391  H2428   1.140   .     S
C2392  C2393   1.401   .     S
C2392  C2397   1.414   .     D
C2392  H2429   1.140   .     S
C2393  C2394   1.406   .     D
C2393  H2430   1.140   .     S
C2394  C2395   1.404   .     S
C2395  C2396   1.396   .     D
C2395  H2431   1.140   .     S
C2396  C2397   1.408   .     S
C2396  H2432   1.140   .     S
C2399  N2402   1.442   .     S
C2401  N2402   1.305   .     D
C2401  C2404   1.463   .     S
C2401  H2419   1.140   .     S
C2403  C2405   1.498   .     S
C2433  C2449   1.340   .     D
C2434  C2458   1.343   1_545 D
C2435  S2211   1.796   1_554 S
C2435  C2451   1.340   .     D
C2436  S1927   1.801   1_554 S
C2436  C2460   1.343   .     D
C2437  S2287   1.796   1_554 S
C2437  C2453   1.340   1_455 D
C2438  S2003   1.801   1_554 S
C2438  C2462   1.343   1_545 D
C2439  C2455   1.340   1_455 D
C2440  C2464   1.343   .     D
C2441  C2457   1.340   .     D
C2442  C2450   1.343   1_565 D
C2443  S1907   1.796   1_554 S
C2443  C2459   1.340   .     D
C2444  S2231   1.801   1_554 S
C2444  C2452   1.343   .     D
C2445  S1983   1.796   1_554 S
C2445  C2461   1.340   1_655 D
C2446  S2307   1.801   1_554 S
C2446  C2454   1.343   1_565 D
C2447  C2463   1.340   1_655 D
C2448  C2456   1.343   .     D
C2450  C2442   1.343   1_545 D
C2451  S83     1.796   1_554 S
C2452  S407    1.801   1_554 S
C2453  C2437   1.340   1_655 D
C2453  S159    1.796   1_554 S
C2454  C2446   1.343   1_545 D
C2454  S483    1.801   1_554 S
C2455  C2439   1.340   1_655 D
C2458  C2434   1.343   1_565 D
C2459  S387    1.796   1_554 S
C2460  S103    1.801   1_554 S
C2461  C2445   1.340   1_455 D
C2461  S463    1.796   1_554 S
C2462  C2438   1.343   1_565 D
C2462  S179    1.801   1_554 S
C2463  C2447   1.340   1_455 D
C2465  C2469   1.347   .     D
C2466  C2472   1.347   .     D
C2467  C2471   1.347   .     D
C2468  C2470   1.347   .     D
C2473  C2480   1.347   .     D
C2474  C2479   1.347   .     D
C2475  C2477   1.347   .     D
C2476  C2478   1.347   .     D
