data_289
_audit_creation_date              2023-09-08
_audit_creation_method            'Materials Studio'
_symmetry_space_group_name_H-M    'P1'
_symmetry_Int_Tables_number       1
_symmetry_cell_setting            triclinic
loop_
_symmetry_equiv_pos_as_xyz
  x,y,z
_cell_length_a                    52.8112
_cell_length_b                    52.8112
_cell_length_c                    20.4714
_cell_angle_alpha                 90.0000
_cell_angle_beta                  90.0000
_cell_angle_gamma                 120.0000
loop_
_atom_site_label
_atom_site_type_symbol
_atom_site_fract_x
_atom_site_fract_y
_atom_site_fract_z
_atom_site_U_iso_or_equiv
_atom_site_adp_type
_atom_site_occupancy
C1     C     0.40079   0.62437   0.57193   0.00000  Uiso   1.00
C2     C     0.43096   0.64208   0.58159   0.00000  Uiso   1.00
C3     C     0.44645   0.63150   0.61658   0.00000  Uiso   1.00
C4     C     0.43194   0.60315   0.64284   0.00000  Uiso   1.00
C5     C     0.40160   0.58549   0.63330   0.00000  Uiso   1.00
C6     C     0.38616   0.59607   0.59808   0.00000  Uiso   1.00
C7     C     0.44875   0.59256   0.68008   0.00000  Uiso   1.00
N8     N     0.43566   0.56715   0.70850   0.00000  Uiso   1.00
C9     C     0.43212   0.53120   0.78795   0.00000  Uiso   1.00
C10    C     0.44951   0.55444   0.74599   0.00000  Uiso   1.00
C11    C     0.47957   0.56395   0.74086   0.00000  Uiso   1.00
C12    C     0.49193   0.55083   0.77855   0.00000  Uiso   1.00
C13    C     0.47456   0.52814   0.82190   0.00000  Uiso   1.00
C14    C     0.44450   0.51815   0.82575   0.00000  Uiso   1.00
C15    C     0.48803   0.51486   0.93072   0.00000  Uiso   1.00
C16    C     0.48770   0.51430   0.86163   0.00000  Uiso   1.00
C17    C     0.38444   0.63541   0.53465   0.00000  Uiso   1.00
C18    C     0.36804   0.64535   0.56905   0.00000  Uiso   1.00
C19    C     0.47730   0.53034   0.96604   0.00000  Uiso   1.00
C20    C     0.35199   0.65531   0.53458   0.00000  Uiso   1.00
H21    H     0.44247   0.66408   0.56209   0.00000  Uiso   1.00
H22    H     0.46978   0.64552   0.62340   0.00000  Uiso   1.00
H23    H     0.38981   0.56353   0.65292   0.00000  Uiso   1.00
H24    H     0.36283   0.58220   0.59098   0.00000  Uiso   1.00
H25    H     0.47211   0.60685   0.68493   0.00000  Uiso   1.00
H26    H     0.40890   0.52334   0.79170   0.00000  Uiso   1.00
H27    H     0.49355   0.58110   0.70737   0.00000  Uiso   1.00
H28    H     0.51508   0.55844   0.77418   0.00000  Uiso   1.00
H29    H     0.43068   0.50029   0.85808   0.00000  Uiso   1.00
H30    H     0.36776   0.64530   0.62191   0.00000  Uiso   1.00
H31    H     0.46904   0.54288   0.94156   0.00000  Uiso   1.00
C32    C     0.37563   0.77642   0.57193   0.00000  Uiso   1.00
C33    C     0.35792   0.78888   0.58159   0.00000  Uiso   1.00
C34    C     0.36850   0.81495   0.61658   0.00000  Uiso   1.00
C35    C     0.39685   0.82879   0.64284   0.00000  Uiso   1.00
C36    C     0.41451   0.81611   0.63330   0.00000  Uiso   1.00
C37    C     0.40393   0.79009   0.59808   0.00000  Uiso   1.00
C38    C     0.40744   0.85619   0.68008   0.00000  Uiso   1.00
N39    N     0.43285   0.86851   0.70850   0.00000  Uiso   1.00
C40    C     0.46880   0.90092   0.78795   0.00000  Uiso   1.00
C41    C     0.44556   0.89507   0.74599   0.00000  Uiso   1.00
C42    C     0.43605   0.91562   0.74086   0.00000  Uiso   1.00
C43    C     0.44917   0.94110   0.77855   0.00000  Uiso   1.00
C44    C     0.47186   0.94642   0.82190   0.00000  Uiso   1.00
C45    C     0.48185   0.92635   0.82575   0.00000  Uiso   1.00
C46    C     0.48514   0.97317   0.93072   0.00000  Uiso   1.00
C47    C     0.48570   0.97340   0.86163   0.00000  Uiso   1.00
C48    C     0.36459   0.74903   0.53465   0.00000  Uiso   1.00
C49    C     0.35465   0.72269   0.56905   0.00000  Uiso   1.00
C50    C     0.46966   0.94696   0.96604   0.00000  Uiso   1.00
C51    C     0.34469   0.69668   0.53458   0.00000  Uiso   1.00
H52    H     0.33592   0.77839   0.56209   0.00000  Uiso   1.00
H53    H     0.35448   0.82426   0.62340   0.00000  Uiso   1.00
H54    H     0.43647   0.82628   0.65292   0.00000  Uiso   1.00
H55    H     0.41780   0.78063   0.59098   0.00000  Uiso   1.00
H56    H     0.39315   0.86526   0.68493   0.00000  Uiso   1.00
H57    H     0.47666   0.88556   0.79170   0.00000  Uiso   1.00
H58    H     0.41890   0.91245   0.70737   0.00000  Uiso   1.00
H59    H     0.44156   0.95664   0.77418   0.00000  Uiso   1.00
H60    H     0.49971   0.93039   0.85808   0.00000  Uiso   1.00
H61    H     0.35470   0.72246   0.62191   0.00000  Uiso   1.00
H62    H     0.45712   0.92616   0.94156   0.00000  Uiso   1.00
C63    C     0.22358   0.59921   0.57193   0.00000  Uiso   1.00
C64    C     0.21112   0.56904   0.58159   0.00000  Uiso   1.00
C65    C     0.18505   0.55355   0.61658   0.00000  Uiso   1.00
C66    C     0.17121   0.56806   0.64284   0.00000  Uiso   1.00
C67    C     0.18389   0.59840   0.63330   0.00000  Uiso   1.00
C68    C     0.20991   0.61384   0.59808   0.00000  Uiso   1.00
C69    C     0.14381   0.55125   0.68008   0.00000  Uiso   1.00
N70    N     0.13149   0.56434   0.70850   0.00000  Uiso   1.00
C71    C     0.09908   0.56788   0.78795   0.00000  Uiso   1.00
C72    C     0.10493   0.55049   0.74599   0.00000  Uiso   1.00
C73    C     0.08438   0.52043   0.74086   0.00000  Uiso   1.00
C74    C     0.05890   0.50807   0.77855   0.00000  Uiso   1.00
C75    C     0.05358   0.52544   0.82190   0.00000  Uiso   1.00
C76    C     0.07365   0.55550   0.82575   0.00000  Uiso   1.00
C77    C     0.02683   0.51197   0.93072   0.00000  Uiso   1.00
C78    C     0.02660   0.51230   0.86163   0.00000  Uiso   1.00
C79    C     0.25097   0.61556   0.53465   0.00000  Uiso   1.00
C80    C     0.27731   0.63196   0.56905   0.00000  Uiso   1.00
C81    C     0.05304   0.52270   0.96604   0.00000  Uiso   1.00
C82    C     0.30332   0.64801   0.53458   0.00000  Uiso   1.00
H83    H     0.22161   0.55753   0.56209   0.00000  Uiso   1.00
H84    H     0.17574   0.53022   0.62340   0.00000  Uiso   1.00
H85    H     0.17372   0.61019   0.65292   0.00000  Uiso   1.00
H86    H     0.21937   0.63717   0.59098   0.00000  Uiso   1.00
H87    H     0.13474   0.52789   0.68493   0.00000  Uiso   1.00
H88    H     0.11444   0.59110   0.79170   0.00000  Uiso   1.00
H89    H     0.08755   0.50645   0.70737   0.00000  Uiso   1.00
H90    H     0.04336   0.48492   0.77418   0.00000  Uiso   1.00
H91    H     0.06961   0.56932   0.85808   0.00000  Uiso   1.00
H92    H     0.27754   0.63224   0.62191   0.00000  Uiso   1.00
H93    H     0.07384   0.53096   0.94156   0.00000  Uiso   1.00
C94    C     0.59921   0.37563   0.57193   0.00000  Uiso   1.00
C95    C     0.56904   0.35792   0.58159   0.00000  Uiso   1.00
C96    C     0.55355   0.36850   0.61658   0.00000  Uiso   1.00
C97    C     0.56806   0.39685   0.64284   0.00000  Uiso   1.00
C98    C     0.59840   0.41451   0.63330   0.00000  Uiso   1.00
C99    C     0.61384   0.40393   0.59808   0.00000  Uiso   1.00
C100   C     0.55125   0.40744   0.68008   0.00000  Uiso   1.00
N101   N     0.56434   0.43285   0.70850   0.00000  Uiso   1.00
C102   C     0.56788   0.46880   0.78795   0.00000  Uiso   1.00
C103   C     0.55049   0.44556   0.74599   0.00000  Uiso   1.00
C104   C     0.52043   0.43605   0.74086   0.00000  Uiso   1.00
C105   C     0.50807   0.44917   0.77855   0.00000  Uiso   1.00
C106   C     0.52544   0.47186   0.82190   0.00000  Uiso   1.00
C107   C     0.55550   0.48185   0.82575   0.00000  Uiso   1.00
C108   C     0.51197   0.48514   0.93072   0.00000  Uiso   1.00
C109   C     0.51230   0.48570   0.86163   0.00000  Uiso   1.00
C110   C     0.61556   0.36459   0.53465   0.00000  Uiso   1.00
C111   C     0.63196   0.35465   0.56905   0.00000  Uiso   1.00
C112   C     0.52270   0.46966   0.96604   0.00000  Uiso   1.00
C113   C     0.64801   0.34469   0.53458   0.00000  Uiso   1.00
H114   H     0.55753   0.33592   0.56209   0.00000  Uiso   1.00
H115   H     0.53022   0.35448   0.62340   0.00000  Uiso   1.00
H116   H     0.61019   0.43647   0.65292   0.00000  Uiso   1.00
H117   H     0.63717   0.41780   0.59098   0.00000  Uiso   1.00
H118   H     0.52789   0.39315   0.68493   0.00000  Uiso   1.00
H119   H     0.59110   0.47666   0.79170   0.00000  Uiso   1.00
H120   H     0.50645   0.41890   0.70737   0.00000  Uiso   1.00
H121   H     0.48492   0.44156   0.77418   0.00000  Uiso   1.00
H122   H     0.56932   0.49971   0.85808   0.00000  Uiso   1.00
H123   H     0.63224   0.35470   0.62191   0.00000  Uiso   1.00
H124   H     0.53096   0.45712   0.94156   0.00000  Uiso   1.00
C125   C     0.62437   0.22358   0.57193   0.00000  Uiso   1.00
C126   C     0.64208   0.21112   0.58159   0.00000  Uiso   1.00
C127   C     0.63150   0.18505   0.61658   0.00000  Uiso   1.00
C128   C     0.60315   0.17121   0.64284   0.00000  Uiso   1.00
C129   C     0.58549   0.18389   0.63330   0.00000  Uiso   1.00
C130   C     0.59607   0.20991   0.59808   0.00000  Uiso   1.00
C131   C     0.59256   0.14381   0.68008   0.00000  Uiso   1.00
N132   N     0.56715   0.13149   0.70850   0.00000  Uiso   1.00
C133   C     0.53120   0.09908   0.78795   0.00000  Uiso   1.00
C134   C     0.55444   0.10493   0.74599   0.00000  Uiso   1.00
C135   C     0.56395   0.08438   0.74086   0.00000  Uiso   1.00
C136   C     0.55083   0.05890   0.77855   0.00000  Uiso   1.00
C137   C     0.52814   0.05358   0.82190   0.00000  Uiso   1.00
C138   C     0.51815   0.07365   0.82575   0.00000  Uiso   1.00
C139   C     0.51486   0.02683   0.93072   0.00000  Uiso   1.00
C140   C     0.51430   0.02660   0.86163   0.00000  Uiso   1.00
C141   C     0.63541   0.25097   0.53465   0.00000  Uiso   1.00
C142   C     0.64535   0.27731   0.56905   0.00000  Uiso   1.00
C143   C     0.53034   0.05304   0.96604   0.00000  Uiso   1.00
C144   C     0.65531   0.30332   0.53458   0.00000  Uiso   1.00
H145   H     0.66408   0.22161   0.56209   0.00000  Uiso   1.00
H146   H     0.64552   0.17574   0.62340   0.00000  Uiso   1.00
H147   H     0.56353   0.17372   0.65292   0.00000  Uiso   1.00
H148   H     0.58220   0.21937   0.59098   0.00000  Uiso   1.00
H149   H     0.60685   0.13474   0.68493   0.00000  Uiso   1.00
H150   H     0.52334   0.11444   0.79170   0.00000  Uiso   1.00
H151   H     0.58110   0.08755   0.70737   0.00000  Uiso   1.00
H152   H     0.55844   0.04336   0.77418   0.00000  Uiso   1.00
H153   H     0.50029   0.06961   0.85808   0.00000  Uiso   1.00
H154   H     0.64530   0.27754   0.62191   0.00000  Uiso   1.00
H155   H     0.54288   0.07384   0.94156   0.00000  Uiso   1.00
C156   C     0.77642   0.40079   0.57193   0.00000  Uiso   1.00
C157   C     0.78888   0.43096   0.58159   0.00000  Uiso   1.00
C158   C     0.81495   0.44645   0.61658   0.00000  Uiso   1.00
C159   C     0.82879   0.43194   0.64284   0.00000  Uiso   1.00
C160   C     0.81611   0.40160   0.63330   0.00000  Uiso   1.00
C161   C     0.79009   0.38616   0.59808   0.00000  Uiso   1.00
C162   C     0.85619   0.44875   0.68008   0.00000  Uiso   1.00
N163   N     0.86851   0.43566   0.70850   0.00000  Uiso   1.00
C164   C     0.90092   0.43212   0.78795   0.00000  Uiso   1.00
C165   C     0.89507   0.44951   0.74599   0.00000  Uiso   1.00
C166   C     0.91562   0.47957   0.74086   0.00000  Uiso   1.00
C167   C     0.94110   0.49193   0.77855   0.00000  Uiso   1.00
C168   C     0.94642   0.47456   0.82190   0.00000  Uiso   1.00
C169   C     0.92635   0.44450   0.82575   0.00000  Uiso   1.00
C170   C     0.97317   0.48803   0.93072   0.00000  Uiso   1.00
C171   C     0.97340   0.48770   0.86163   0.00000  Uiso   1.00
C172   C     0.74903   0.38444   0.53465   0.00000  Uiso   1.00
C173   C     0.72269   0.36804   0.56905   0.00000  Uiso   1.00
C174   C     0.94696   0.47730   0.96604   0.00000  Uiso   1.00
C175   C     0.69668   0.35199   0.53458   0.00000  Uiso   1.00
H176   H     0.77839   0.44247   0.56209   0.00000  Uiso   1.00
H177   H     0.82426   0.46978   0.62340   0.00000  Uiso   1.00
H178   H     0.82628   0.38981   0.65292   0.00000  Uiso   1.00
H179   H     0.78063   0.36283   0.59098   0.00000  Uiso   1.00
H180   H     0.86526   0.47211   0.68493   0.00000  Uiso   1.00
H181   H     0.88556   0.40890   0.79170   0.00000  Uiso   1.00
H182   H     0.91245   0.49355   0.70737   0.00000  Uiso   1.00
H183   H     0.95664   0.51508   0.77418   0.00000  Uiso   1.00
H184   H     0.93039   0.43068   0.85808   0.00000  Uiso   1.00
H185   H     0.72246   0.36776   0.62191   0.00000  Uiso   1.00
H186   H     0.92616   0.46904   0.94156   0.00000  Uiso   1.00
C187   C     0.59921   0.37563   0.42807   0.00000  Uiso   1.00
C188   C     0.56904   0.35792   0.41841   0.00000  Uiso   1.00
C189   C     0.55355   0.36850   0.38342   0.00000  Uiso   1.00
C190   C     0.56806   0.39685   0.35716   0.00000  Uiso   1.00
C191   C     0.59840   0.41451   0.36670   0.00000  Uiso   1.00
C192   C     0.61384   0.40393   0.40192   0.00000  Uiso   1.00
C193   C     0.55125   0.40744   0.31992   0.00000  Uiso   1.00
N194   N     0.56434   0.43285   0.29150   0.00000  Uiso   1.00
C195   C     0.56788   0.46880   0.21205   0.00000  Uiso   1.00
C196   C     0.55049   0.44556   0.25401   0.00000  Uiso   1.00
C197   C     0.52043   0.43605   0.25914   0.00000  Uiso   1.00
C198   C     0.50807   0.44917   0.22145   0.00000  Uiso   1.00
C199   C     0.52544   0.47186   0.17810   0.00000  Uiso   1.00
C200   C     0.55550   0.48185   0.17425   0.00000  Uiso   1.00
C201   C     0.51197   0.48514   0.06928   0.00000  Uiso   1.00
C202   C     0.51230   0.48570   0.13837   0.00000  Uiso   1.00
C203   C     0.61556   0.36459   0.46535   0.00000  Uiso   1.00
C204   C     0.63196   0.35465   0.43095   0.00000  Uiso   1.00
C205   C     0.52270   0.46966   0.03396   0.00000  Uiso   1.00
C206   C     0.64801   0.34469   0.46542   0.00000  Uiso   1.00
H207   H     0.55753   0.33592   0.43791   0.00000  Uiso   1.00
H208   H     0.53022   0.35448   0.37660   0.00000  Uiso   1.00
H209   H     0.61019   0.43647   0.34708   0.00000  Uiso   1.00
H210   H     0.63717   0.41780   0.40902   0.00000  Uiso   1.00
H211   H     0.52789   0.39315   0.31507   0.00000  Uiso   1.00
H212   H     0.59110   0.47666   0.20830   0.00000  Uiso   1.00
H213   H     0.50645   0.41890   0.29263   0.00000  Uiso   1.00
H214   H     0.48492   0.44156   0.22582   0.00000  Uiso   1.00
H215   H     0.56932   0.49971   0.14192   0.00000  Uiso   1.00
H216   H     0.63224   0.35470   0.37809   0.00000  Uiso   1.00
H217   H     0.53096   0.45712   0.05844   0.00000  Uiso   1.00
C218   C     0.62437   0.22358   0.42807   0.00000  Uiso   1.00
C219   C     0.64208   0.21112   0.41841   0.00000  Uiso   1.00
C220   C     0.63150   0.18505   0.38342   0.00000  Uiso   1.00
C221   C     0.60315   0.17121   0.35716   0.00000  Uiso   1.00
C222   C     0.58549   0.18389   0.36670   0.00000  Uiso   1.00
C223   C     0.59607   0.20991   0.40192   0.00000  Uiso   1.00
C224   C     0.59256   0.14381   0.31992   0.00000  Uiso   1.00
N225   N     0.56715   0.13149   0.29150   0.00000  Uiso   1.00
C226   C     0.53120   0.09908   0.21205   0.00000  Uiso   1.00
C227   C     0.55444   0.10493   0.25401   0.00000  Uiso   1.00
C228   C     0.56395   0.08438   0.25914   0.00000  Uiso   1.00
C229   C     0.55083   0.05890   0.22145   0.00000  Uiso   1.00
C230   C     0.52814   0.05358   0.17810   0.00000  Uiso   1.00
C231   C     0.51815   0.07365   0.17425   0.00000  Uiso   1.00
C232   C     0.51486   0.02683   0.06928   0.00000  Uiso   1.00
C233   C     0.51430   0.02660   0.13837   0.00000  Uiso   1.00
C234   C     0.63541   0.25097   0.46535   0.00000  Uiso   1.00
C235   C     0.64535   0.27731   0.43095   0.00000  Uiso   1.00
C236   C     0.53034   0.05304   0.03396   0.00000  Uiso   1.00
C237   C     0.65531   0.30332   0.46542   0.00000  Uiso   1.00
H238   H     0.66408   0.22161   0.43791   0.00000  Uiso   1.00
H239   H     0.64552   0.17574   0.37660   0.00000  Uiso   1.00
H240   H     0.56353   0.17372   0.34708   0.00000  Uiso   1.00
H241   H     0.58220   0.21937   0.40902   0.00000  Uiso   1.00
H242   H     0.60685   0.13474   0.31507   0.00000  Uiso   1.00
H243   H     0.52334   0.11444   0.20830   0.00000  Uiso   1.00
H244   H     0.58110   0.08755   0.29263   0.00000  Uiso   1.00
H245   H     0.55844   0.04336   0.22582   0.00000  Uiso   1.00
H246   H     0.50029   0.06961   0.14192   0.00000  Uiso   1.00
H247   H     0.64530   0.27754   0.37809   0.00000  Uiso   1.00
H248   H     0.54288   0.07384   0.05844   0.00000  Uiso   1.00
C249   C     0.77642   0.40079   0.42807   0.00000  Uiso   1.00
C250   C     0.78888   0.43096   0.41841   0.00000  Uiso   1.00
C251   C     0.81495   0.44645   0.38342   0.00000  Uiso   1.00
C252   C     0.82879   0.43194   0.35716   0.00000  Uiso   1.00
C253   C     0.81611   0.40160   0.36670   0.00000  Uiso   1.00
C254   C     0.79009   0.38616   0.40192   0.00000  Uiso   1.00
C255   C     0.85619   0.44875   0.31992   0.00000  Uiso   1.00
N256   N     0.86851   0.43566   0.29150   0.00000  Uiso   1.00
C257   C     0.90092   0.43212   0.21205   0.00000  Uiso   1.00
C258   C     0.89507   0.44951   0.25401   0.00000  Uiso   1.00
C259   C     0.91562   0.47957   0.25914   0.00000  Uiso   1.00
C260   C     0.94110   0.49193   0.22145   0.00000  Uiso   1.00
C261   C     0.94642   0.47456   0.17810   0.00000  Uiso   1.00
C262   C     0.92635   0.44450   0.17425   0.00000  Uiso   1.00
C263   C     0.97317   0.48803   0.06928   0.00000  Uiso   1.00
C264   C     0.97340   0.48770   0.13837   0.00000  Uiso   1.00
C265   C     0.74903   0.38444   0.46535   0.00000  Uiso   1.00
C266   C     0.72269   0.36804   0.43095   0.00000  Uiso   1.00
C267   C     0.94696   0.47730   0.03396   0.00000  Uiso   1.00
C268   C     0.69668   0.35199   0.46542   0.00000  Uiso   1.00
H269   H     0.77839   0.44247   0.43791   0.00000  Uiso   1.00
H270   H     0.82426   0.46978   0.37660   0.00000  Uiso   1.00
H271   H     0.82628   0.38981   0.34708   0.00000  Uiso   1.00
H272   H     0.78063   0.36283   0.40902   0.00000  Uiso   1.00
H273   H     0.86526   0.47211   0.31507   0.00000  Uiso   1.00
H274   H     0.88556   0.40890   0.20830   0.00000  Uiso   1.00
H275   H     0.91245   0.49355   0.29263   0.00000  Uiso   1.00
H276   H     0.95664   0.51508   0.22582   0.00000  Uiso   1.00
H277   H     0.93039   0.43068   0.14192   0.00000  Uiso   1.00
H278   H     0.72246   0.36776   0.37809   0.00000  Uiso   1.00
H279   H     0.92616   0.46904   0.05844   0.00000  Uiso   1.00
C280   C     0.40079   0.62437   0.42807   0.00000  Uiso   1.00
C281   C     0.43096   0.64208   0.41841   0.00000  Uiso   1.00
C282   C     0.44645   0.63150   0.38342   0.00000  Uiso   1.00
C283   C     0.43194   0.60315   0.35716   0.00000  Uiso   1.00
C284   C     0.40160   0.58549   0.36670   0.00000  Uiso   1.00
C285   C     0.38616   0.59607   0.40192   0.00000  Uiso   1.00
C286   C     0.44875   0.59256   0.31992   0.00000  Uiso   1.00
N287   N     0.43566   0.56715   0.29150   0.00000  Uiso   1.00
C288   C     0.43212   0.53120   0.21205   0.00000  Uiso   1.00
C289   C     0.44951   0.55444   0.25401   0.00000  Uiso   1.00
C290   C     0.47957   0.56395   0.25914   0.00000  Uiso   1.00
C291   C     0.49193   0.55083   0.22145   0.00000  Uiso   1.00
C292   C     0.47456   0.52814   0.17810   0.00000  Uiso   1.00
C293   C     0.44450   0.51815   0.17425   0.00000  Uiso   1.00
C294   C     0.48803   0.51486   0.06928   0.00000  Uiso   1.00
C295   C     0.48770   0.51430   0.13837   0.00000  Uiso   1.00
C296   C     0.38444   0.63541   0.46535   0.00000  Uiso   1.00
C297   C     0.36804   0.64535   0.43095   0.00000  Uiso   1.00
C298   C     0.47730   0.53034   0.03396   0.00000  Uiso   1.00
C299   C     0.35199   0.65531   0.46542   0.00000  Uiso   1.00
H300   H     0.44247   0.66408   0.43791   0.00000  Uiso   1.00
H301   H     0.46978   0.64552   0.37660   0.00000  Uiso   1.00
H302   H     0.38981   0.56353   0.34708   0.00000  Uiso   1.00
H303   H     0.36283   0.58220   0.40902   0.00000  Uiso   1.00
H304   H     0.47211   0.60685   0.31507   0.00000  Uiso   1.00
H305   H     0.40890   0.52334   0.20830   0.00000  Uiso   1.00
H306   H     0.49355   0.58110   0.29263   0.00000  Uiso   1.00
H307   H     0.51508   0.55844   0.22582   0.00000  Uiso   1.00
H308   H     0.43068   0.50029   0.14192   0.00000  Uiso   1.00
H309   H     0.36776   0.64530   0.37809   0.00000  Uiso   1.00
H310   H     0.46904   0.54288   0.05844   0.00000  Uiso   1.00
C311   C     0.37563   0.77642   0.42807   0.00000  Uiso   1.00
C312   C     0.35792   0.78888   0.41841   0.00000  Uiso   1.00
C313   C     0.36850   0.81495   0.38342   0.00000  Uiso   1.00
C314   C     0.39685   0.82879   0.35716   0.00000  Uiso   1.00
C315   C     0.41451   0.81611   0.36670   0.00000  Uiso   1.00
C316   C     0.40393   0.79009   0.40192   0.00000  Uiso   1.00
C317   C     0.40744   0.85619   0.31992   0.00000  Uiso   1.00
N318   N     0.43285   0.86851   0.29150   0.00000  Uiso   1.00
C319   C     0.46880   0.90092   0.21205   0.00000  Uiso   1.00
C320   C     0.44556   0.89507   0.25401   0.00000  Uiso   1.00
C321   C     0.43605   0.91562   0.25914   0.00000  Uiso   1.00
C322   C     0.44917   0.94110   0.22145   0.00000  Uiso   1.00
C323   C     0.47186   0.94642   0.17810   0.00000  Uiso   1.00
C324   C     0.48185   0.92635   0.17425   0.00000  Uiso   1.00
C325   C     0.48514   0.97317   0.06928   0.00000  Uiso   1.00
C326   C     0.48570   0.97340   0.13837   0.00000  Uiso   1.00
C327   C     0.36459   0.74903   0.46535   0.00000  Uiso   1.00
C328   C     0.35465   0.72269   0.43095   0.00000  Uiso   1.00
C329   C     0.46966   0.94696   0.03396   0.00000  Uiso   1.00
C330   C     0.34469   0.69668   0.46542   0.00000  Uiso   1.00
H331   H     0.33592   0.77839   0.43791   0.00000  Uiso   1.00
H332   H     0.35448   0.82426   0.37660   0.00000  Uiso   1.00
H333   H     0.43647   0.82628   0.34708   0.00000  Uiso   1.00
H334   H     0.41780   0.78063   0.40902   0.00000  Uiso   1.00
H335   H     0.39315   0.86526   0.31507   0.00000  Uiso   1.00
H336   H     0.47666   0.88556   0.20830   0.00000  Uiso   1.00
H337   H     0.41890   0.91245   0.29263   0.00000  Uiso   1.00
H338   H     0.44156   0.95664   0.22582   0.00000  Uiso   1.00
H339   H     0.49971   0.93039   0.14192   0.00000  Uiso   1.00
H340   H     0.35470   0.72246   0.37809   0.00000  Uiso   1.00
H341   H     0.45712   0.92616   0.05844   0.00000  Uiso   1.00
C342   C     0.22358   0.59921   0.42807   0.00000  Uiso   1.00
C343   C     0.21112   0.56904   0.41841   0.00000  Uiso   1.00
C344   C     0.18505   0.55355   0.38342   0.00000  Uiso   1.00
C345   C     0.17121   0.56806   0.35716   0.00000  Uiso   1.00
C346   C     0.18389   0.59840   0.36670   0.00000  Uiso   1.00
C347   C     0.20991   0.61384   0.40192   0.00000  Uiso   1.00
C348   C     0.14381   0.55125   0.31992   0.00000  Uiso   1.00
N349   N     0.13149   0.56434   0.29150   0.00000  Uiso   1.00
C350   C     0.09908   0.56788   0.21205   0.00000  Uiso   1.00
C351   C     0.10493   0.55049   0.25401   0.00000  Uiso   1.00
C352   C     0.08438   0.52043   0.25914   0.00000  Uiso   1.00
C353   C     0.05890   0.50807   0.22145   0.00000  Uiso   1.00
C354   C     0.05358   0.52544   0.17810   0.00000  Uiso   1.00
C355   C     0.07365   0.55550   0.17425   0.00000  Uiso   1.00
C356   C     0.02683   0.51197   0.06928   0.00000  Uiso   1.00
C357   C     0.02660   0.51230   0.13837   0.00000  Uiso   1.00
C358   C     0.25097   0.61556   0.46535   0.00000  Uiso   1.00
C359   C     0.27731   0.63196   0.43095   0.00000  Uiso   1.00
C360   C     0.05304   0.52270   0.03396   0.00000  Uiso   1.00
C361   C     0.30332   0.64801   0.46542   0.00000  Uiso   1.00
H362   H     0.22161   0.55753   0.43791   0.00000  Uiso   1.00
H363   H     0.17574   0.53022   0.37660   0.00000  Uiso   1.00
H364   H     0.17372   0.61019   0.34708   0.00000  Uiso   1.00
H365   H     0.21937   0.63717   0.40902   0.00000  Uiso   1.00
H366   H     0.13474   0.52789   0.31507   0.00000  Uiso   1.00
H367   H     0.11444   0.59110   0.20830   0.00000  Uiso   1.00
H368   H     0.08755   0.50645   0.29263   0.00000  Uiso   1.00
H369   H     0.04336   0.48492   0.22582   0.00000  Uiso   1.00
H370   H     0.06961   0.56932   0.14192   0.00000  Uiso   1.00
H371   H     0.27754   0.63224   0.37809   0.00000  Uiso   1.00
H372   H     0.07384   0.53096   0.05844   0.00000  Uiso   1.00
C373   C     0.50000   0.50000   0.82852   0.00000  Uiso   1.00
C374   C     0.50000   0.50000   0.03467   0.00000  Uiso   1.00
H375   H     0.50000   0.50000   0.22278   0.00000  Uiso   1.00
C376   C     0.50000   0.00000   0.82852   0.00000  Uiso   1.00
C377   C     0.50000   0.00000   0.03467   0.00000  Uiso   1.00
H378   H     0.50000   0.00000   0.22278   0.00000  Uiso   1.00
C379   C     0.00000   0.50000   0.82852   0.00000  Uiso   1.00
C380   C     0.00000   0.50000   0.03467   0.00000  Uiso   1.00
H381   H     0.00000   0.50000   0.22278   0.00000  Uiso   1.00
C382   C     0.50000   0.50000   0.17148   0.00000  Uiso   1.00
C383   C     0.50000   0.50000   0.96533   0.00000  Uiso   1.00
H384   H     0.50000   0.50000   0.77722   0.00000  Uiso   1.00
C385   C     0.50000   0.00000   0.17148   0.00000  Uiso   1.00
C386   C     0.50000   0.00000   0.96533   0.00000  Uiso   1.00
H387   H     0.50000   0.00000   0.77722   0.00000  Uiso   1.00
C388   C     0.00000   0.50000   0.17148   0.00000  Uiso   1.00
C389   C     0.00000   0.50000   0.96533   0.00000  Uiso   1.00
H390   H     0.00000   0.50000   0.77722   0.00000  Uiso   1.00
C391   C     0.33333   0.66667   0.43428   0.00000  Uiso   1.00
H392   H     0.33333   0.66667   0.62033   0.00000  Uiso   1.00
C393   C     0.66667   0.33333   0.43428   0.00000  Uiso   1.00
H394   H     0.66667   0.33333   0.62033   0.00000  Uiso   1.00
C395   C     0.66667   0.33333   0.56572   0.00000  Uiso   1.00
H396   H     0.66667   0.33333   0.37967   0.00000  Uiso   1.00
C397   C     0.33333   0.66667   0.56572   0.00000  Uiso   1.00
H398   H     0.33333   0.66667   0.37967   0.00000  Uiso   1.00
loop_
_geom_bond_atom_site_label_1
_geom_bond_atom_site_label_2
_geom_bond_distance
_geom_bond_site_symmetry_2
_ccdc_geom_bond_type
C1     C2      1.401   .     D
C1     C6      1.401   .     S
C1     C17     1.474   .     S
C2     C3      1.397   .     S
C2     H21     1.083   .     S
C3     C4      1.404   .     D
C3     H22     1.083   .     S
C4     C5      1.407   .     S
C4     C7      1.476   .     S
C5     C6      1.397   .     D
C5     H23     1.083   .     S
C6     H24     1.083   .     S
C7     N8      1.300   .     D
C7     H25     1.082   .     S
N8     C10     1.437   .     S
C9     C10     1.400   .     S
C9     C14     1.397   .     D
C9     H26     1.083   .     S
C10    C11     1.409   .     D
C11    C12     1.398   .     S
C11    H27     1.080   .     S
C12    C13     1.402   .     D
C12    H28     1.083   .     S
C13    C14     1.403   .     S
C13    C16     1.478   .     S
C14    H29     1.083   .     S
C15    C16     1.415   .     D
C15    C19     1.406   .     S
C15    C383    1.419   .     S
C16    C373    1.394   .     S
C17    C18     1.406   .     D
C17    C296    1.419   .     S
C18    C20     1.392   .     S
C18    H30     1.082   .     S
C19    H31     1.081   .     S
C19    C298    1.390   1_556 D
C20    C299    1.416   .     D
C20    C397    1.526   .     S
C32    C33     1.401   .     D
C32    C37     1.401   .     S
C32    C48     1.474   .     S
C33    C34     1.397   .     S
C33    H52     1.083   .     S
C34    C35     1.404   .     D
C34    H53     1.083   .     S
C35    C36     1.407   .     S
C35    C38     1.476   .     S
C36    C37     1.397   .     D
C36    H54     1.083   .     S
C37    H55     1.083   .     S
C38    N39     1.300   .     D
C38    H56     1.082   .     S
N39    C41     1.437   .     S
C40    C41     1.400   .     S
C40    C45     1.397   .     D
C40    H57     1.083   .     S
C41    C42     1.409   .     D
C42    C43     1.398   .     S
C42    H58     1.080   .     S
C43    C44     1.402   .     D
C43    H59     1.083   .     S
C44    C45     1.403   .     S
C44    C47     1.478   .     S
C45    H60     1.083   .     S
C46    C47     1.415   .     S
C46    C50     1.406   .     S
C46    C386    1.419   1_565 D
C47    C376    1.394   1_565 D
C48    C49     1.406   .     D
C48    C327    1.419   .     S
C49    C51     1.392   .     S
C49    H61     1.082   .     S
C50    H62     1.081   .     S
C50    C329    1.390   1_556 D
C51    C330    1.416   .     D
C51    C397    1.526   .     S
C63    C64     1.401   .     D
C63    C68     1.401   .     S
C63    C79     1.474   .     S
C64    C65     1.397   .     S
C64    H83     1.083   .     S
C65    C66     1.404   .     D
C65    H84     1.083   .     S
C66    C67     1.407   .     S
C66    C69     1.476   .     S
C67    C68     1.397   .     D
C67    H85     1.083   .     S
C68    H86     1.083   .     S
C69    N70     1.300   .     D
C69    H87     1.082   .     S
N70    C72     1.437   .     S
C71    C72     1.400   .     S
C71    C76     1.397   .     D
C71    H88     1.083   .     S
C72    C73     1.409   .     D
C73    C74     1.398   .     S
C73    H89     1.080   .     S
C74    C75     1.402   .     D
C74    H90     1.083   .     S
C75    C76     1.403   .     S
C75    C78     1.478   .     S
C76    H91     1.083   .     S
C77    C78     1.415   .     D
C77    C81     1.406   .     S
C77    C389    1.419   .     S
C78    C379    1.394   .     S
C79    C80     1.406   .     D
C79    C358    1.419   .     S
C80    C82     1.392   .     S
C80    H92     1.082   .     S
C81    H93     1.081   .     S
C81    C360    1.390   1_556 D
C82    C361    1.416   .     D
C82    C397    1.526   .     S
C94    C95     1.401   .     D
C94    C99     1.401   .     S
C94    C110    1.474   .     S
C95    C96     1.397   .     S
C95    H114    1.083   .     S
C96    C97     1.404   .     D
C96    H115    1.083   .     S
C97    C98     1.407   .     S
C97    C100    1.476   .     S
C98    C99     1.397   .     D
C98    H116    1.083   .     S
C99    H117    1.083   .     S
C100   N101    1.300   .     D
C100   H118    1.082   .     S
N101   C103    1.437   .     S
C102   C103    1.400   .     S
C102   C107    1.397   .     D
C102   H119    1.083   .     S
C103   C104    1.409   .     D
C104   C105    1.398   .     S
C104   H120    1.080   .     S
C105   C106    1.402   .     D
C105   H121    1.083   .     S
C106   C107    1.403   .     S
C106   C109    1.478   .     S
C107   H122    1.083   .     S
C108   C109    1.415   .     S
C108   C112    1.406   .     S
C108   C383    1.419   .     D
C109   C373    1.394   .     D
C110   C111    1.406   .     D
C110   C203    1.419   .     S
C111   C113    1.392   .     S
C111   H123    1.082   .     S
C112   H124    1.081   .     S
C112   C205    1.390   1_556 D
C113   C206    1.416   .     D
C113   C395    1.526   .     S
C125   C126    1.401   .     D
C125   C130    1.401   .     S
C125   C141    1.474   .     S
C126   C127    1.397   .     S
C126   H145    1.083   .     S
C127   C128    1.404   .     D
C127   H146    1.083   .     S
C128   C129    1.407   .     S
C128   C131    1.476   .     S
C129   C130    1.397   .     D
C129   H147    1.083   .     S
C130   H148    1.083   .     S
C131   N132    1.300   .     D
C131   H149    1.082   .     S
N132   C134    1.437   .     S
C133   C134    1.400   .     S
C133   C138    1.397   .     D
C133   H150    1.083   .     S
C134   C135    1.409   .     D
C135   C136    1.398   .     S
C135   H151    1.080   .     S
C136   C137    1.402   .     D
C136   H152    1.083   .     S
C137   C138    1.403   .     S
C137   C140    1.478   .     S
C138   H153    1.083   .     S
C139   C140    1.415   .     D
C139   C143    1.406   .     S
C139   C386    1.419   .     S
C140   C376    1.394   .     S
C141   C142    1.406   .     D
C141   C234    1.419   .     S
C142   C144    1.392   .     S
C142   H154    1.082   .     S
C143   H155    1.081   .     S
C143   C236    1.390   1_556 D
C144   C237    1.416   .     D
C144   C395    1.526   .     S
C156   C157    1.401   .     D
C156   C161    1.401   .     S
C156   C172    1.474   .     S
C157   C158    1.397   .     S
C157   H176    1.083   .     S
C158   C159    1.404   .     D
C158   H177    1.083   .     S
C159   C160    1.407   .     S
C159   C162    1.476   .     S
C160   C161    1.397   .     D
C160   H178    1.083   .     S
C161   H179    1.083   .     S
C162   N163    1.300   .     D
C162   H180    1.082   .     S
N163   C165    1.437   .     S
C164   C165    1.400   .     S
C164   C169    1.397   .     D
C164   H181    1.083   .     S
C165   C166    1.409   .     D
C166   C167    1.398   .     S
C166   H182    1.080   .     S
C167   C168    1.402   .     D
C167   H183    1.083   .     S
C168   C169    1.403   .     S
C168   C171    1.478   .     S
C169   H184    1.083   .     S
C170   C171    1.415   .     S
C170   C174    1.406   .     S
C170   C389    1.419   1_655 D
C171   C379    1.394   1_655 D
C172   C173    1.406   .     D
C172   C265    1.419   .     S
C173   C175    1.392   .     S
C173   H185    1.082   .     S
C174   H186    1.081   .     S
C174   C267    1.390   1_556 D
C175   C268    1.416   .     D
C175   C395    1.526   .     S
C187   C188    1.401   .     D
C187   C192    1.401   .     S
C187   C203    1.474   .     S
C188   C189    1.397   .     S
C188   H207    1.083   .     S
C189   C190    1.404   .     D
C189   H208    1.083   .     S
C190   C191    1.407   .     S
C190   C193    1.476   .     S
C191   C192    1.397   .     D
C191   H209    1.083   .     S
C192   H210    1.083   .     S
C193   N194    1.300   .     D
C193   H211    1.082   .     S
N194   C196    1.437   .     S
C195   C196    1.400   .     S
C195   C200    1.397   .     D
C195   H212    1.083   .     S
C196   C197    1.409   .     D
C197   C198    1.398   .     S
C197   H213    1.080   .     S
C198   C199    1.402   .     D
C198   H214    1.083   .     S
C199   C200    1.403   .     S
C199   C202    1.478   .     S
C200   H215    1.083   .     S
C201   C202    1.415   .     S
C201   C205    1.406   .     S
C201   C374    1.419   .     D
C202   C382    1.394   .     D
C203   C204    1.406   .     D
C204   C206    1.392   .     S
C204   H216    1.082   .     S
C205   C112    1.390   1_554 D
C205   H217    1.081   .     S
C206   C393    1.526   .     S
C218   C219    1.401   .     D
C218   C223    1.401   .     S
C218   C234    1.474   .     S
C219   C220    1.397   .     S
C219   H238    1.083   .     S
C220   C221    1.404   .     D
C220   H239    1.083   .     S
C221   C222    1.407   .     S
C221   C224    1.476   .     S
C222   C223    1.397   .     D
C222   H240    1.083   .     S
C223   H241    1.083   .     S
C224   N225    1.300   .     D
C224   H242    1.082   .     S
N225   C227    1.437   .     S
C226   C227    1.400   .     S
C226   C231    1.397   .     D
C226   H243    1.083   .     S
C227   C228    1.409   .     D
C228   C229    1.398   .     S
C228   H244    1.080   .     S
C229   C230    1.402   .     D
C229   H245    1.083   .     S
C230   C231    1.403   .     S
C230   C233    1.478   .     S
C231   H246    1.083   .     S
C232   C233    1.415   .     D
C232   C236    1.406   .     S
C232   C377    1.419   .     S
C233   C385    1.394   .     S
C234   C235    1.406   .     D
C235   C237    1.392   .     S
C235   H247    1.082   .     S
C236   C143    1.390   1_554 D
C236   H248    1.081   .     S
C237   C393    1.526   .     S
C249   C250    1.401   .     D
C249   C254    1.401   .     S
C249   C265    1.474   .     S
C250   C251    1.397   .     S
C250   H269    1.083   .     S
C251   C252    1.404   .     D
C251   H270    1.083   .     S
C252   C253    1.407   .     S
C252   C255    1.476   .     S
C253   C254    1.397   .     D
C253   H271    1.083   .     S
C254   H272    1.083   .     S
C255   N256    1.300   .     D
C255   H273    1.082   .     S
N256   C258    1.437   .     S
C257   C258    1.400   .     S
C257   C262    1.397   .     D
C257   H274    1.083   .     S
C258   C259    1.409   .     D
C259   C260    1.398   .     S
C259   H275    1.080   .     S
C260   C261    1.402   .     D
C260   H276    1.083   .     S
C261   C262    1.403   .     S
C261   C264    1.478   .     S
C262   H277    1.083   .     S
C263   C264    1.415   .     S
C263   C267    1.406   .     S
C263   C380    1.419   1_655 D
C264   C388    1.394   1_655 D
C265   C266    1.406   .     D
C266   C268    1.392   .     S
C266   H278    1.082   .     S
C267   C174    1.390   1_554 D
C267   H279    1.081   .     S
C268   C393    1.526   .     S
C280   C281    1.401   .     D
C280   C285    1.401   .     S
C280   C296    1.474   .     S
C281   C282    1.397   .     S
C281   H300    1.083   .     S
C282   C283    1.404   .     D
C282   H301    1.083   .     S
C283   C284    1.407   .     S
C283   C286    1.476   .     S
C284   C285    1.397   .     D
C284   H302    1.083   .     S
C285   H303    1.083   .     S
C286   N287    1.300   .     D
C286   H304    1.082   .     S
N287   C289    1.437   .     S
C288   C289    1.400   .     S
C288   C293    1.397   .     D
C288   H305    1.083   .     S
C289   C290    1.409   .     D
C290   C291    1.398   .     S
C290   H306    1.080   .     S
C291   C292    1.402   .     D
C291   H307    1.083   .     S
C292   C293    1.403   .     S
C292   C295    1.478   .     S
C293   H308    1.083   .     S
C294   C295    1.415   .     D
C294   C298    1.406   .     S
C294   C374    1.419   .     S
C295   C382    1.394   .     S
C296   C297    1.406   .     D
C297   C299    1.392   .     S
C297   H309    1.082   .     S
C298   C19     1.390   1_554 D
C298   H310    1.081   .     S
C299   C391    1.526   .     S
C311   C312    1.401   .     D
C311   C316    1.401   .     S
C311   C327    1.474   .     S
C312   C313    1.397   .     S
C312   H331    1.083   .     S
C313   C314    1.404   .     D
C313   H332    1.083   .     S
C314   C315    1.407   .     S
C314   C317    1.476   .     S
C315   C316    1.397   .     D
C315   H333    1.083   .     S
C316   H334    1.083   .     S
C317   N318    1.300   .     D
C317   H335    1.082   .     S
N318   C320    1.437   .     S
C319   C320    1.400   .     S
C319   C324    1.397   .     D
C319   H336    1.083   .     S
C320   C321    1.409   .     D
C321   C322    1.398   .     S
C321   H337    1.080   .     S
C322   C323    1.402   .     D
C322   H338    1.083   .     S
C323   C324    1.403   .     S
C323   C326    1.478   .     S
C324   H339    1.083   .     S
C325   C326    1.415   .     S
C325   C329    1.406   .     S
C325   C377    1.419   1_565 D
C326   C385    1.394   1_565 D
C327   C328    1.406   .     D
C328   C330    1.392   .     S
C328   H340    1.082   .     S
C329   C50     1.390   1_554 D
C329   H341    1.081   .     S
C330   C391    1.526   .     S
C342   C343    1.401   .     D
C342   C347    1.401   .     S
C342   C358    1.474   .     S
C343   C344    1.397   .     S
C343   H362    1.083   .     S
C344   C345    1.404   .     D
C344   H363    1.083   .     S
C345   C346    1.407   .     S
C345   C348    1.476   .     S
C346   C347    1.397   .     D
C346   H364    1.083   .     S
C347   H365    1.083   .     S
C348   N349    1.300   .     D
C348   H366    1.082   .     S
N349   C351    1.437   .     S
C350   C351    1.400   .     S
C350   C355    1.397   .     D
C350   H367    1.083   .     S
C351   C352    1.409   .     D
C352   C353    1.398   .     S
C352   H368    1.080   .     S
C353   C354    1.402   .     D
C353   H369    1.083   .     S
C354   C355    1.403   .     S
C354   C357    1.478   .     S
C355   H370    1.083   .     S
C356   C357    1.415   .     D
C356   C360    1.406   .     S
C356   C380    1.419   .     S
C357   C388    1.394   .     S
C358   C359    1.406   .     D
C359   C361    1.392   .     S
C359   H371    1.082   .     S
C360   C81     1.390   1_554 D
C360   H372    1.081   .     S
C361   C391    1.526   .     S
C373   H384    1.050   .     S
C374   C383    1.419   1_554 S
H375   C382    1.050   .     S
C376   C47     1.394   1_545 D
C376   H387    1.050   .     S
C377   C325    1.419   1_545 D
C377   C386    1.419   1_554 S
H378   C385    1.050   .     S
C379   C171    1.394   1_455 D
C379   H390    1.050   .     S
C380   C263    1.419   1_455 D
C380   C389    1.419   1_554 S
H381   C388    1.050   .     S
C383   C374    1.419   1_556 S
C385   C326    1.394   1_545 D
C386   C377    1.419   1_556 S
C386   C46     1.419   1_545 D
C388   C264    1.394   1_455 D
C389   C380    1.419   1_556 S
C389   C170    1.419   1_455 D
C391   H398    1.118   .     S
H392   C397    1.118   .     S
C393   H396    1.118   .     S
H394   C395    1.118   .     S
