data_290
_audit_creation_date              2023-09-08
_audit_creation_method            'Materials Studio'
_symmetry_space_group_name_H-M    'P1'
_symmetry_Int_Tables_number       1
_symmetry_cell_setting            triclinic
loop_
_symmetry_equiv_pos_as_xyz
  x,y,z
_cell_length_a                    20.3958
_cell_length_b                    20.3958
_cell_length_c                    33.7704
_cell_angle_alpha                 90.0000
_cell_angle_beta                  90.0000
_cell_angle_gamma                 120.0000
loop_
_atom_site_label
_atom_site_type_symbol
_atom_site_fract_x
_atom_site_fract_y
_atom_site_fract_z
_atom_site_U_iso_or_equiv
_atom_site_adp_type
_atom_site_occupancy
Si1    Si    0.86330   0.66280   0.46070   0.00000  Uiso   1.00
C2     C     0.76770   0.61430   0.43790   0.00000  Uiso   1.00
C3     C     0.70340   0.55030   0.45170   0.00000  Uiso   1.00
H4     H     0.70700   0.52330   0.47300   0.00000  Uiso   1.00
C5     C     0.63380   0.52650   0.43380   0.00000  Uiso   1.00
H6     H     0.59070   0.48370   0.44300   0.00000  Uiso   1.00
C7     C     0.62840   0.56680   0.40190   0.00000  Uiso   1.00
C8     C     0.69280   0.63080   0.38810   0.00000  Uiso   1.00
H9     H     0.68920   0.65780   0.36680   0.00000  Uiso   1.00
C10    C     0.76240   0.65460   0.40600   0.00000  Uiso   1.00
H11    H     0.80540   0.69740   0.39680   0.00000  Uiso   1.00
C12    C     0.55330   0.54220   0.38290   0.00000  Uiso   1.00
H13    H     0.54110   0.57290   0.36790   0.00000  Uiso   1.00
N14    N     0.50820   0.47160   0.39080   0.00000  Uiso   1.00
C15    C     0.42990   0.44040   0.37620   0.00000  Uiso   1.00
C16    C     0.39140   0.48180   0.37450   0.00000  Uiso   1.00
H17    H     0.41550   0.53170   0.38320   0.00000  Uiso   1.00
C18    C     0.31670   0.44850   0.35950   0.00000  Uiso   1.00
H19    H     0.29290   0.47710   0.35730   0.00000  Uiso   1.00
C20    C     0.27860   0.37200   0.34810   0.00000  Uiso   1.00
C21    C     0.31730   0.33440   0.34880   0.00000  Uiso   1.00
H22    H     0.29390   0.28530   0.33880   0.00000  Uiso   1.00
C23    C     0.39060   0.36550   0.36370   0.00000  Uiso   1.00
H24    H     0.41340   0.33580   0.36520   0.00000  Uiso   1.00
C25    C     0.90950   0.61010   0.44510   0.00000  Uiso   1.00
C26    C     0.86370   0.53800   0.42980   0.00000  Uiso   1.00
H27    H     0.81170   0.51850   0.42780   0.00000  Uiso   1.00
C28    C     0.89540   0.49500   0.41740   0.00000  Uiso   1.00
H29    H     0.86470   0.44670   0.40720   0.00000  Uiso   1.00
C30    C     0.97310   0.52410   0.42040   0.00000  Uiso   1.00
C31    C     0.01900   0.59620   0.43580   0.00000  Uiso   1.00
H32    H     0.07100   0.61570   0.43780   0.00000  Uiso   1.00
C33    C     0.98720   0.63920   0.44810   0.00000  Uiso   1.00
H34    H     0.01790   0.68750   0.45840   0.00000  Uiso   1.00
C35    C     0.00510   0.47810   0.40780   0.00000  Uiso   1.00
H36    H     0.98150   0.42690   0.41390   0.00000  Uiso   1.00
N37    N     0.06490   0.50890   0.38850   0.00000  Uiso   1.00
C38    C     0.09710   0.45980   0.37570   0.00000  Uiso   1.00
C39    C     0.08550   0.39370   0.39460   0.00000  Uiso   1.00
H40    H     0.05640   0.37770   0.41750   0.00000  Uiso   1.00
C41    C     0.11600   0.35140   0.38000   0.00000  Uiso   1.00
H42    H     0.10600   0.30660   0.39230   0.00000  Uiso   1.00
C43    C     0.16150   0.37700   0.34700   0.00000  Uiso   1.00
C44    C     0.17460   0.44220   0.32780   0.00000  Uiso   1.00
H45    H     0.20460   0.45790   0.30520   0.00000  Uiso   1.00
C46    C     0.14350   0.48470   0.34190   0.00000  Uiso   1.00
H47    H     0.15330   0.52900   0.32910   0.00000  Uiso   1.00
C48    C     0.91280   0.75830   0.43830   0.00000  Uiso   1.00
C49    C     0.91140   0.82300   0.45000   0.00000  Uiso   1.00
H50    H     0.88540   0.82220   0.47270   0.00000  Uiso   1.00
C51    C     0.94890   0.88880   0.42760   0.00000  Uiso   1.00
H52    H     0.94800   0.93200   0.43540   0.00000  Uiso   1.00
C53    C     0.98780   0.88990   0.39350   0.00000  Uiso   1.00
C54    C     0.98920   0.82520   0.38190   0.00000  Uiso   1.00
H55    H     0.01520   0.82600   0.35910   0.00000  Uiso   1.00
C56    C     0.95170   0.75940   0.40430   0.00000  Uiso   1.00
H57    H     0.95260   0.71620   0.39650   0.00000  Uiso   1.00
C58    C     0.01900   0.96210   0.36940   0.00000  Uiso   1.00
H59    H     0.02860   0.96540   0.34240   0.00000  Uiso   1.00
N60    N     0.03120   0.01930   0.39200   0.00000  Uiso   1.00
C61    C     0.07080   0.09630   0.37280   0.00000  Uiso   1.00
C62    C     0.11660   0.15690   0.39940   0.00000  Uiso   1.00
H63    H     0.12010   0.14700   0.42590   0.00000  Uiso   1.00
C64    C     0.15550   0.23060   0.38530   0.00000  Uiso   1.00
H65    H     0.18400   0.26950   0.40310   0.00000  Uiso   1.00
C66    C     0.15380   0.24840   0.34660   0.00000  Uiso   1.00
C67    C     0.10910   0.19130   0.32100   0.00000  Uiso   1.00
H68    H     0.10550   0.20230   0.29460   0.00000  Uiso   1.00
C69    C     0.06810   0.11490   0.33450   0.00000  Uiso   1.00
H70    H     0.03880   0.07670   0.31660   0.00000  Uiso   1.00
C71    C     0.86350   0.66860   0.51460   0.00000  Uiso   1.00
C72    C     0.81570   0.60390   0.53610   0.00000  Uiso   1.00
H73    H     0.78640   0.55810   0.52310   0.00000  Uiso   1.00
C74    C     0.81180   0.60780   0.57710   0.00000  Uiso   1.00
H75    H     0.77980   0.56450   0.59150   0.00000  Uiso   1.00
C76    C     0.85560   0.67630   0.59650   0.00000  Uiso   1.00
C77    C     0.90330   0.74100   0.57490   0.00000  Uiso   1.00
H78    H     0.93260   0.78680   0.58790   0.00000  Uiso   1.00
C79    C     0.90730   0.73710   0.53400   0.00000  Uiso   1.00
H80    H     0.93920   0.78040   0.51960   0.00000  Uiso   1.00
C81    C     0.84690   0.67980   0.63890   0.00000  Uiso   1.00
H82    H     0.89220   0.70900   0.65230   0.00000  Uiso   1.00
N83    N     0.79320   0.65230   0.65940   0.00000  Uiso   1.00
C84    C     0.79800   0.65640   0.70360   0.00000  Uiso   1.00
C85    C     0.85840   0.66660   0.72680   0.00000  Uiso   1.00
H86    H     0.90060   0.67080   0.71380   0.00000  Uiso   1.00
C87    C     0.86090   0.67080   0.76680   0.00000  Uiso   1.00
H88    H     0.90380   0.67830   0.78040   0.00000  Uiso   1.00
C89    C     0.79910   0.66390   0.78740   0.00000  Uiso   1.00
C90    C     0.73490   0.65130   0.76560   0.00000  Uiso   1.00
H91    H     0.69220   0.64430   0.77910   0.00000  Uiso   1.00
C92    C     0.73370   0.64910   0.72520   0.00000  Uiso   1.00
H93    H     0.69140   0.64290   0.71150   0.00000  Uiso   1.00
C94    C     0.80120   0.66690   0.83180   0.00000  Uiso   1.00
Si95   Si    0.33720   0.20050   0.12737   0.00000  Uiso   1.00
C96    C     0.38570   0.15340   0.10457   0.00000  Uiso   1.00
C97    C     0.44970   0.15310   0.11837   0.00000  Uiso   1.00
H98    H     0.47670   0.18370   0.13967   0.00000  Uiso   1.00
C99    C     0.47350   0.10730   0.10047   0.00000  Uiso   1.00
H100   H     0.51630   0.10700   0.10967   0.00000  Uiso   1.00
C101   C     0.43320   0.06160   0.06857   0.00000  Uiso   1.00
C102   C     0.36920   0.06200   0.05477   0.00000  Uiso   1.00
H103   H     0.34220   0.03140   0.03347   0.00000  Uiso   1.00
C104   C     0.34540   0.10780   0.07267   0.00000  Uiso   1.00
H105   H     0.30260   0.10800   0.06347   0.00000  Uiso   1.00
C106   C     0.45780   0.01110   0.04957   0.00000  Uiso   1.00
H107   H     0.42710   0.96820   0.03457   0.00000  Uiso   1.00
N108   N     0.52840   0.03660   0.05747   0.00000  Uiso   1.00
C109   C     0.55960   0.98950   0.04287   0.00000  Uiso   1.00
C110   C     0.51820   0.90960   0.04117   0.00000  Uiso   1.00
H111   H     0.46830   0.88380   0.04987   0.00000  Uiso   1.00
C112   C     0.55150   0.86820   0.02617   0.00000  Uiso   1.00
H113   H     0.52290   0.81580   0.02397   0.00000  Uiso   1.00
C114   C     0.62800   0.90660   0.01477   0.00000  Uiso   1.00
C115   C     0.66560   0.98290   0.01547   0.00000  Uiso   1.00
H116   H     0.71470   0.00860   0.00547   0.00000  Uiso   1.00
C117   C     0.63450   0.02510   0.03037   0.00000  Uiso   1.00
H118   H     0.66420   0.07760   0.03187   0.00000  Uiso   1.00
C119   C     0.38990   0.29940   0.11177   0.00000  Uiso   1.00
C120   C     0.46200   0.32570   0.09647   0.00000  Uiso   1.00
H121   H     0.48150   0.29320   0.09447   0.00000  Uiso   1.00
C122   C     0.50500   0.40040   0.08407   0.00000  Uiso   1.00
H123   H     0.55330   0.41800   0.07387   0.00000  Uiso   1.00
C124   C     0.47590   0.44900   0.08707   0.00000  Uiso   1.00
C125   C     0.40380   0.42280   0.10247   0.00000  Uiso   1.00
H126   H     0.38430   0.45530   0.10447   0.00000  Uiso   1.00
C127   C     0.36080   0.34800   0.11477   0.00000  Uiso   1.00
H128   H     0.31250   0.33040   0.12507   0.00000  Uiso   1.00
C129   C     0.52190   0.52700   0.07447   0.00000  Uiso   1.00
H130   H     0.57310   0.55460   0.08057   0.00000  Uiso   1.00
N131   N     0.49110   0.55600   0.05517   0.00000  Uiso   1.00
C132   C     0.54020   0.63730   0.04237   0.00000  Uiso   1.00
C133   C     0.60630   0.69180   0.06127   0.00000  Uiso   1.00
H134   H     0.62230   0.67870   0.08417   0.00000  Uiso   1.00
C135   C     0.64860   0.76460   0.04667   0.00000  Uiso   1.00
H136   H     0.69340   0.79940   0.05897   0.00000  Uiso   1.00
C137   C     0.62300   0.78450   0.01367   0.00000  Uiso   1.00
C138   C     0.55780   0.73240   0.99447   0.00000  Uiso   1.00
H139   H     0.54210   0.74670   0.97187   0.00000  Uiso   1.00
C140   C     0.51530   0.65880   0.00857   0.00000  Uiso   1.00
H141   H     0.47100   0.62430   0.99577   0.00000  Uiso   1.00
C142   C     0.24170   0.15450   0.10497   0.00000  Uiso   1.00
C143   C     0.17700   0.08840   0.11667   0.00000  Uiso   1.00
H144   H     0.17780   0.06320   0.13937   0.00000  Uiso   1.00
C145   C     0.11120   0.06010   0.09427   0.00000  Uiso   1.00
H146   H     0.06800   0.01600   0.10207   0.00000  Uiso   1.00
C147   C     0.11010   0.09790   0.06017   0.00000  Uiso   1.00
C148   C     0.17480   0.16400   0.04857   0.00000  Uiso   1.00
H149   H     0.17400   0.18920   0.02577   0.00000  Uiso   1.00
C150   C     0.24060   0.19230   0.07097   0.00000  Uiso   1.00
H151   H     0.28380   0.23640   0.06317   0.00000  Uiso   1.00
C152   C     0.03790   0.05690   0.03607   0.00000  Uiso   1.00
H153   H     0.03460   0.06320   0.00907   0.00000  Uiso   1.00
N154   N     0.98070   0.01190   0.05867   0.00000  Uiso   1.00
C155   C     0.90370   0.97450   0.03947   0.00000  Uiso   1.00
C156   C     0.84310   0.95970   0.06607   0.00000  Uiso   1.00
H157   H     0.85300   0.97310   0.09257   0.00000  Uiso   1.00
C158   C     0.76940   0.92490   0.05197   0.00000  Uiso   1.00
H159   H     0.73050   0.91450   0.06977   0.00000  Uiso   1.00
C160   C     0.75160   0.90540   0.01327   0.00000  Uiso   1.00
C161   C     0.80870   0.91780   0.98767   0.00000  Uiso   1.00
H162   H     0.79770   0.90320   0.96127   0.00000  Uiso   1.00
C163   C     0.88510   0.95320   0.00117   0.00000  Uiso   1.00
H164   H     0.92330   0.96210   0.98327   0.00000  Uiso   1.00
C165   C     0.33140   0.19490   0.18127   0.00000  Uiso   1.00
C166   C     0.39610   0.21180   0.20277   0.00000  Uiso   1.00
H167   H     0.44190   0.22830   0.18977   0.00000  Uiso   1.00
C168   C     0.39220   0.20400   0.24377   0.00000  Uiso   1.00
H169   H     0.43550   0.21530   0.25817   0.00000  Uiso   1.00
C170   C     0.32370   0.17930   0.26317   0.00000  Uiso   1.00
C171   C     0.25900   0.16230   0.24157   0.00000  Uiso   1.00
H172   H     0.21320   0.14580   0.25457   0.00000  Uiso   1.00
C173   C     0.26290   0.17020   0.20067   0.00000  Uiso   1.00
H174   H     0.21960   0.15880   0.18627   0.00000  Uiso   1.00
C175   C     0.32020   0.16710   0.30557   0.00000  Uiso   1.00
H176   H     0.29100   0.18320   0.31897   0.00000  Uiso   1.00
N177   N     0.34770   0.14090   0.32607   0.00000  Uiso   1.00
C178   C     0.34360   0.14160   0.37027   0.00000  Uiso   1.00
C179   C     0.33340   0.19180   0.39347   0.00000  Uiso   1.00
H180   H     0.32920   0.22980   0.38047   0.00000  Uiso   1.00
C181   C     0.32920   0.19010   0.43347   0.00000  Uiso   1.00
H182   H     0.32170   0.22550   0.44707   0.00000  Uiso   1.00
C183   C     0.33610   0.13520   0.45407   0.00000  Uiso   1.00
C184   C     0.34870   0.08360   0.43227   0.00000  Uiso   1.00
H185   H     0.35570   0.04790   0.44577   0.00000  Uiso   1.00
C186   C     0.35090   0.08460   0.39187   0.00000  Uiso   1.00
H187   H     0.35710   0.04850   0.37817   0.00000  Uiso   1.00
C188   C     0.33310   0.13430   0.49847   0.00000  Uiso   1.00
Si189  Si    0.79950   0.13670   0.79403   0.00000  Uiso   1.00
C190   C     0.84660   0.23230   0.77123   0.00000  Uiso   1.00
C191   C     0.84690   0.29660   0.78503   0.00000  Uiso   1.00
H192   H     0.81630   0.29300   0.80633   0.00000  Uiso   1.00
C193   C     0.89270   0.36620   0.76713   0.00000  Uiso   1.00
H194   H     0.89300   0.40930   0.77633   0.00000  Uiso   1.00
C195   C     0.93840   0.37160   0.73523   0.00000  Uiso   1.00
C196   C     0.93800   0.30720   0.72143   0.00000  Uiso   1.00
H197   H     0.96860   0.31080   0.70013   0.00000  Uiso   1.00
C198   C     0.89220   0.23760   0.73933   0.00000  Uiso   1.00
H199   H     0.89200   0.19460   0.73013   0.00000  Uiso   1.00
C200   C     0.98890   0.44670   0.71623   0.00000  Uiso   1.00
H201   H     0.03180   0.45890   0.70123   0.00000  Uiso   1.00
N202   N     0.96340   0.49180   0.72413   0.00000  Uiso   1.00
C203   C     0.01050   0.57010   0.70953   0.00000  Uiso   1.00
C204   C     0.09040   0.60860   0.70783   0.00000  Uiso   1.00
H205   H     0.11620   0.58450   0.71653   0.00000  Uiso   1.00
C206   C     0.13180   0.68330   0.69283   0.00000  Uiso   1.00
H207   H     0.18420   0.70710   0.69063   0.00000  Uiso   1.00
C208   C     0.09340   0.72140   0.68143   0.00000  Uiso   1.00
C209   C     0.01710   0.68270   0.68213   0.00000  Uiso   1.00
H210   H     0.99140   0.70610   0.67213   0.00000  Uiso   1.00
C211   C     0.97490   0.60940   0.69703   0.00000  Uiso   1.00
H212   H     0.92240   0.58660   0.69853   0.00000  Uiso   1.00
C213   C     0.70060   0.09050   0.77843   0.00000  Uiso   1.00
C214   C     0.67430   0.13630   0.76313   0.00000  Uiso   1.00
H215   H     0.70680   0.18830   0.76113   0.00000  Uiso   1.00
C216   C     0.59960   0.10460   0.75073   0.00000  Uiso   1.00
H217   H     0.58200   0.13530   0.74053   0.00000  Uiso   1.00
C218   C     0.55100   0.02690   0.75373   0.00000  Uiso   1.00
C219   C     0.57720   0.98100   0.76913   0.00000  Uiso   1.00
H220   H     0.54470   0.92900   0.77113   0.00000  Uiso   1.00
C221   C     0.65200   0.01280   0.78143   0.00000  Uiso   1.00
H222   H     0.66960   0.98210   0.79173   0.00000  Uiso   1.00
C223   C     0.47300   0.99490   0.74113   0.00000  Uiso   1.00
H224   H     0.44540   0.01850   0.74723   0.00000  Uiso   1.00
N225   N     0.44400   0.93510   0.72183   0.00000  Uiso   1.00
C226   C     0.36270   0.90290   0.70903   0.00000  Uiso   1.00
C227   C     0.30820   0.91450   0.72793   0.00000  Uiso   1.00
H228   H     0.32130   0.94360   0.75083   0.00000  Uiso   1.00
C229   C     0.23540   0.88400   0.71333   0.00000  Uiso   1.00
H230   H     0.20060   0.89400   0.72563   0.00000  Uiso   1.00
C231   C     0.21550   0.83850   0.68033   0.00000  Uiso   1.00
C232   C     0.26760   0.82540   0.66113   0.00000  Uiso   1.00
H233   H     0.25330   0.79540   0.63853   0.00000  Uiso   1.00
C234   C     0.34120   0.85650   0.67523   0.00000  Uiso   1.00
H235   H     0.37570   0.84670   0.66243   0.00000  Uiso   1.00
C236   C     0.84550   0.08720   0.77163   0.00000  Uiso   1.00
C237   C     0.91160   0.08860   0.78333   0.00000  Uiso   1.00
H238   H     0.93680   0.11460   0.80603   0.00000  Uiso   1.00
C239   C     0.93990   0.05110   0.76093   0.00000  Uiso   1.00
H240   H     0.98400   0.05200   0.76873   0.00000  Uiso   1.00
C241   C     0.90210   0.01220   0.72683   0.00000  Uiso   1.00
C242   C     0.83600   0.01080   0.71523   0.00000  Uiso   1.00
H243   H     0.81080   0.98480   0.69243   0.00000  Uiso   1.00
C244   C     0.80770   0.04830   0.73763   0.00000  Uiso   1.00
H245   H     0.76360   0.04740   0.72983   0.00000  Uiso   1.00
C246   C     0.94310   0.98100   0.70273   0.00000  Uiso   1.00
H247   H     0.93680   0.97140   0.67573   0.00000  Uiso   1.00
N248   N     0.98810   0.96880   0.72533   0.00000  Uiso   1.00
C249   C     0.02550   0.92920   0.70613   0.00000  Uiso   1.00
C250   C     0.04030   0.88340   0.73273   0.00000  Uiso   1.00
H251   H     0.02690   0.87990   0.75923   0.00000  Uiso   1.00
C252   C     0.07510   0.84450   0.71863   0.00000  Uiso   1.00
H253   H     0.08550   0.81600   0.73643   0.00000  Uiso   1.00
C254   C     0.09460   0.84620   0.67993   0.00000  Uiso   1.00
C255   C     0.08220   0.89090   0.65433   0.00000  Uiso   1.00
H256   H     0.09680   0.89450   0.62793   0.00000  Uiso   1.00
C257   C     0.04680   0.93190   0.66783   0.00000  Uiso   1.00
H258   H     0.03790   0.96120   0.64993   0.00000  Uiso   1.00
C259   C     0.80510   0.13650   0.84793   0.00000  Uiso   1.00
C260   C     0.78820   0.18430   0.86943   0.00000  Uiso   1.00
H261   H     0.77170   0.21360   0.85643   0.00000  Uiso   1.00
C262   C     0.79600   0.18820   0.91043   0.00000  Uiso   1.00
H263   H     0.78470   0.22020   0.92483   0.00000  Uiso   1.00
C264   C     0.82070   0.14440   0.92983   0.00000  Uiso   1.00
C265   C     0.83770   0.09670   0.90823   0.00000  Uiso   1.00
H266   H     0.85420   0.06740   0.92123   0.00000  Uiso   1.00
C267   C     0.82980   0.09270   0.86733   0.00000  Uiso   1.00
H268   H     0.84120   0.06080   0.85293   0.00000  Uiso   1.00
C269   C     0.83290   0.15310   0.97223   0.00000  Uiso   1.00
H270   H     0.81680   0.10780   0.98563   0.00000  Uiso   1.00
N271   N     0.85910   0.20680   0.99273   0.00000  Uiso   1.00
C272   C     0.85840   0.20200   0.03693   0.00000  Uiso   1.00
C273   C     0.80820   0.14160   0.06013   0.00000  Uiso   1.00
H274   H     0.77020   0.09940   0.04713   0.00000  Uiso   1.00
C275   C     0.80990   0.13910   0.10013   0.00000  Uiso   1.00
H276   H     0.77450   0.09620   0.11373   0.00000  Uiso   1.00
C277   C     0.86480   0.20090   0.12073   0.00000  Uiso   1.00
C278   C     0.91640   0.26510   0.09893   0.00000  Uiso   1.00
H279   H     0.95210   0.30780   0.11243   0.00000  Uiso   1.00
C280   C     0.91540   0.26630   0.05853   0.00000  Uiso   1.00
H281   H     0.95150   0.30860   0.04483   0.00000  Uiso   1.00
C282   C     0.86570   0.19880   0.16513   0.00000  Uiso   1.00
Si283  Si    0.13670   0.33720   0.96070   0.00000  Uiso   1.00
C284   C     0.23230   0.38570   0.93790   0.00000  Uiso   1.00
C285   C     0.29660   0.44970   0.95170   0.00000  Uiso   1.00
H286   H     0.29300   0.47670   0.97300   0.00000  Uiso   1.00
C287   C     0.36620   0.47350   0.93380   0.00000  Uiso   1.00
H288   H     0.40930   0.51630   0.94300   0.00000  Uiso   1.00
C289   C     0.37160   0.43320   0.90190   0.00000  Uiso   1.00
C290   C     0.30720   0.36920   0.88810   0.00000  Uiso   1.00
H291   H     0.31080   0.34220   0.86680   0.00000  Uiso   1.00
C292   C     0.23760   0.34540   0.90600   0.00000  Uiso   1.00
H293   H     0.19460   0.30260   0.89680   0.00000  Uiso   1.00
C294   C     0.44670   0.45780   0.88290   0.00000  Uiso   1.00
H295   H     0.45890   0.42710   0.86790   0.00000  Uiso   1.00
N296   N     0.49180   0.52840   0.89080   0.00000  Uiso   1.00
C297   C     0.57010   0.55960   0.87620   0.00000  Uiso   1.00
C298   C     0.60860   0.51820   0.87450   0.00000  Uiso   1.00
H299   H     0.58450   0.46830   0.88320   0.00000  Uiso   1.00
C300   C     0.68330   0.55150   0.85950   0.00000  Uiso   1.00
H301   H     0.70710   0.52290   0.85730   0.00000  Uiso   1.00
C302   C     0.72140   0.62800   0.84810   0.00000  Uiso   1.00
C303   C     0.68270   0.66560   0.84880   0.00000  Uiso   1.00
H304   H     0.70610   0.71470   0.83880   0.00000  Uiso   1.00
C305   C     0.60940   0.63450   0.86370   0.00000  Uiso   1.00
H306   H     0.58660   0.66420   0.86520   0.00000  Uiso   1.00
C307   C     0.09050   0.38990   0.94510   0.00000  Uiso   1.00
C308   C     0.13630   0.46200   0.92980   0.00000  Uiso   1.00
H309   H     0.18830   0.48150   0.92780   0.00000  Uiso   1.00
C310   C     0.10460   0.50500   0.91740   0.00000  Uiso   1.00
H311   H     0.13530   0.55330   0.90720   0.00000  Uiso   1.00
C312   C     0.02690   0.47590   0.92040   0.00000  Uiso   1.00
C313   C     0.98100   0.40380   0.93580   0.00000  Uiso   1.00
H314   H     0.92900   0.38430   0.93780   0.00000  Uiso   1.00
C315   C     0.01280   0.36080   0.94810   0.00000  Uiso   1.00
H316   H     0.98210   0.31250   0.95840   0.00000  Uiso   1.00
C317   C     0.99490   0.52190   0.90780   0.00000  Uiso   1.00
H318   H     0.01850   0.57310   0.91390   0.00000  Uiso   1.00
N319   N     0.93510   0.49110   0.88850   0.00000  Uiso   1.00
C320   C     0.90290   0.54020   0.87570   0.00000  Uiso   1.00
C321   C     0.91450   0.60630   0.89460   0.00000  Uiso   1.00
H322   H     0.94360   0.62230   0.91750   0.00000  Uiso   1.00
C323   C     0.88400   0.64860   0.88000   0.00000  Uiso   1.00
H324   H     0.89400   0.69340   0.89230   0.00000  Uiso   1.00
C325   C     0.83850   0.62300   0.84700   0.00000  Uiso   1.00
C326   C     0.82540   0.55780   0.82780   0.00000  Uiso   1.00
H327   H     0.79540   0.54210   0.80520   0.00000  Uiso   1.00
C328   C     0.85650   0.51530   0.84190   0.00000  Uiso   1.00
H329   H     0.84670   0.47100   0.82910   0.00000  Uiso   1.00
C330   C     0.08720   0.24170   0.93830   0.00000  Uiso   1.00
C331   C     0.08860   0.17700   0.95000   0.00000  Uiso   1.00
H332   H     0.11460   0.17780   0.97270   0.00000  Uiso   1.00
C333   C     0.05110   0.11120   0.92760   0.00000  Uiso   1.00
H334   H     0.05200   0.06800   0.93540   0.00000  Uiso   1.00
C335   C     0.01220   0.11010   0.89350   0.00000  Uiso   1.00
C336   C     0.01080   0.17480   0.88190   0.00000  Uiso   1.00
H337   H     0.98480   0.17400   0.85910   0.00000  Uiso   1.00
C338   C     0.04830   0.24060   0.90430   0.00000  Uiso   1.00
H339   H     0.04740   0.28380   0.89650   0.00000  Uiso   1.00
C340   C     0.98100   0.03790   0.86940   0.00000  Uiso   1.00
H341   H     0.97140   0.03460   0.84240   0.00000  Uiso   1.00
N342   N     0.96880   0.98070   0.89200   0.00000  Uiso   1.00
C343   C     0.92920   0.90370   0.87280   0.00000  Uiso   1.00
C344   C     0.88340   0.84310   0.89940   0.00000  Uiso   1.00
H345   H     0.87990   0.85300   0.92590   0.00000  Uiso   1.00
C346   C     0.84450   0.76940   0.88530   0.00000  Uiso   1.00
H347   H     0.81600   0.73050   0.90310   0.00000  Uiso   1.00
C348   C     0.84620   0.75160   0.84660   0.00000  Uiso   1.00
C349   C     0.89090   0.80870   0.82100   0.00000  Uiso   1.00
H350   H     0.89450   0.79770   0.79460   0.00000  Uiso   1.00
C351   C     0.93190   0.88510   0.83450   0.00000  Uiso   1.00
H352   H     0.96120   0.92330   0.81660   0.00000  Uiso   1.00
C353   C     0.13650   0.33140   0.01460   0.00000  Uiso   1.00
C354   C     0.18430   0.39610   0.03610   0.00000  Uiso   1.00
H355   H     0.21360   0.44190   0.02310   0.00000  Uiso   1.00
C356   C     0.18820   0.39220   0.07710   0.00000  Uiso   1.00
H357   H     0.22020   0.43550   0.09150   0.00000  Uiso   1.00
C358   C     0.14440   0.32370   0.09650   0.00000  Uiso   1.00
C359   C     0.09670   0.25900   0.07490   0.00000  Uiso   1.00
H360   H     0.06740   0.21320   0.08790   0.00000  Uiso   1.00
C361   C     0.09270   0.26290   0.03400   0.00000  Uiso   1.00
H362   H     0.06080   0.21960   0.01960   0.00000  Uiso   1.00
C363   C     0.15310   0.32020   0.13890   0.00000  Uiso   1.00
H364   H     0.10780   0.29100   0.15230   0.00000  Uiso   1.00
N365   N     0.20680   0.34770   0.15940   0.00000  Uiso   1.00
C366   C     0.20200   0.34360   0.20360   0.00000  Uiso   1.00
C367   C     0.14160   0.33340   0.22680   0.00000  Uiso   1.00
H368   H     0.09940   0.32920   0.21380   0.00000  Uiso   1.00
C369   C     0.13910   0.32920   0.26680   0.00000  Uiso   1.00
H370   H     0.09620   0.32170   0.28040   0.00000  Uiso   1.00
C371   C     0.20090   0.33610   0.28740   0.00000  Uiso   1.00
C372   C     0.26510   0.34870   0.26560   0.00000  Uiso   1.00
H373   H     0.30780   0.35570   0.27910   0.00000  Uiso   1.00
C374   C     0.26630   0.35090   0.22520   0.00000  Uiso   1.00
H375   H     0.30860   0.35710   0.21150   0.00000  Uiso   1.00
C376   C     0.19880   0.33310   0.33180   0.00000  Uiso   1.00
Si377  Si    0.66280   0.79950   0.62737   0.00000  Uiso   1.00
C378   C     0.61430   0.84660   0.60457   0.00000  Uiso   1.00
C379   C     0.55030   0.84690   0.61837   0.00000  Uiso   1.00
H380   H     0.52330   0.81630   0.63967   0.00000  Uiso   1.00
C381   C     0.52650   0.89270   0.60047   0.00000  Uiso   1.00
H382   H     0.48370   0.89300   0.60967   0.00000  Uiso   1.00
C383   C     0.56680   0.93840   0.56857   0.00000  Uiso   1.00
C384   C     0.63080   0.93800   0.55477   0.00000  Uiso   1.00
H385   H     0.65780   0.96860   0.53347   0.00000  Uiso   1.00
C386   C     0.65460   0.89220   0.57267   0.00000  Uiso   1.00
H387   H     0.69740   0.89200   0.56347   0.00000  Uiso   1.00
C388   C     0.54220   0.98890   0.54957   0.00000  Uiso   1.00
H389   H     0.57290   0.03180   0.53457   0.00000  Uiso   1.00
N390   N     0.47160   0.96340   0.55747   0.00000  Uiso   1.00
C391   C     0.44040   0.01050   0.54287   0.00000  Uiso   1.00
C392   C     0.48180   0.09040   0.54117   0.00000  Uiso   1.00
H393   H     0.53170   0.11620   0.54987   0.00000  Uiso   1.00
C394   C     0.44850   0.13180   0.52617   0.00000  Uiso   1.00
H395   H     0.47710   0.18420   0.52397   0.00000  Uiso   1.00
C396   C     0.37200   0.09340   0.51477   0.00000  Uiso   1.00
C397   C     0.33440   0.01710   0.51547   0.00000  Uiso   1.00
H398   H     0.28530   0.99140   0.50547   0.00000  Uiso   1.00
C399   C     0.36550   0.97490   0.53037   0.00000  Uiso   1.00
H400   H     0.33580   0.92240   0.53187   0.00000  Uiso   1.00
C401   C     0.61010   0.70060   0.61177   0.00000  Uiso   1.00
C402   C     0.53800   0.67430   0.59647   0.00000  Uiso   1.00
H403   H     0.51850   0.70680   0.59447   0.00000  Uiso   1.00
C404   C     0.49500   0.59960   0.58407   0.00000  Uiso   1.00
H405   H     0.44670   0.58200   0.57387   0.00000  Uiso   1.00
C406   C     0.52410   0.55100   0.58707   0.00000  Uiso   1.00
C407   C     0.59620   0.57720   0.60247   0.00000  Uiso   1.00
H408   H     0.61570   0.54470   0.60447   0.00000  Uiso   1.00
C409   C     0.63920   0.65200   0.61477   0.00000  Uiso   1.00
H410   H     0.68750   0.66960   0.62507   0.00000  Uiso   1.00
C411   C     0.47810   0.47300   0.57447   0.00000  Uiso   1.00
H412   H     0.42690   0.44540   0.58057   0.00000  Uiso   1.00
N413   N     0.50890   0.44400   0.55517   0.00000  Uiso   1.00
C414   C     0.45980   0.36270   0.54237   0.00000  Uiso   1.00
C415   C     0.39370   0.30820   0.56127   0.00000  Uiso   1.00
H416   H     0.37770   0.32130   0.58417   0.00000  Uiso   1.00
C417   C     0.35140   0.23540   0.54667   0.00000  Uiso   1.00
H418   H     0.30660   0.20060   0.55897   0.00000  Uiso   1.00
C419   C     0.37700   0.21550   0.51367   0.00000  Uiso   1.00
C420   C     0.44220   0.26760   0.49447   0.00000  Uiso   1.00
H421   H     0.45790   0.25330   0.47187   0.00000  Uiso   1.00
C422   C     0.48470   0.34120   0.50857   0.00000  Uiso   1.00
H423   H     0.52900   0.37570   0.49577   0.00000  Uiso   1.00
C424   C     0.75830   0.84550   0.60497   0.00000  Uiso   1.00
C425   C     0.82300   0.91160   0.61667   0.00000  Uiso   1.00
H426   H     0.82220   0.93680   0.63937   0.00000  Uiso   1.00
C427   C     0.88880   0.93990   0.59427   0.00000  Uiso   1.00
H428   H     0.93200   0.98400   0.60207   0.00000  Uiso   1.00
C429   C     0.88990   0.90210   0.56017   0.00000  Uiso   1.00
C430   C     0.82520   0.83600   0.54857   0.00000  Uiso   1.00
H431   H     0.82600   0.81080   0.52577   0.00000  Uiso   1.00
C432   C     0.75940   0.80770   0.57097   0.00000  Uiso   1.00
H433   H     0.71620   0.76360   0.56317   0.00000  Uiso   1.00
C434   C     0.96210   0.94310   0.53607   0.00000  Uiso   1.00
H435   H     0.96540   0.93680   0.50907   0.00000  Uiso   1.00
N436   N     0.01930   0.98810   0.55867   0.00000  Uiso   1.00
C437   C     0.09630   0.02550   0.53947   0.00000  Uiso   1.00
C438   C     0.15690   0.04030   0.56607   0.00000  Uiso   1.00
H439   H     0.14700   0.02690   0.59257   0.00000  Uiso   1.00
C440   C     0.23060   0.07510   0.55197   0.00000  Uiso   1.00
H441   H     0.26950   0.08550   0.56977   0.00000  Uiso   1.00
C442   C     0.24840   0.09460   0.51327   0.00000  Uiso   1.00
C443   C     0.19130   0.08220   0.48767   0.00000  Uiso   1.00
H444   H     0.20230   0.09680   0.46127   0.00000  Uiso   1.00
C445   C     0.11490   0.04680   0.50117   0.00000  Uiso   1.00
H446   H     0.07670   0.03790   0.48327   0.00000  Uiso   1.00
C447   C     0.66860   0.80510   0.68127   0.00000  Uiso   1.00
C448   C     0.60390   0.78820   0.70277   0.00000  Uiso   1.00
H449   H     0.55810   0.77170   0.68977   0.00000  Uiso   1.00
C450   C     0.60780   0.79600   0.74377   0.00000  Uiso   1.00
H451   H     0.56450   0.78470   0.75817   0.00000  Uiso   1.00
C452   C     0.67630   0.82070   0.76317   0.00000  Uiso   1.00
C453   C     0.74100   0.83770   0.74157   0.00000  Uiso   1.00
H454   H     0.78680   0.85420   0.75457   0.00000  Uiso   1.00
C455   C     0.73710   0.82980   0.70067   0.00000  Uiso   1.00
H456   H     0.78040   0.84120   0.68627   0.00000  Uiso   1.00
C457   C     0.67980   0.83290   0.80557   0.00000  Uiso   1.00
H458   H     0.70900   0.81680   0.81897   0.00000  Uiso   1.00
N459   N     0.65230   0.85910   0.82607   0.00000  Uiso   1.00
C460   C     0.65640   0.85840   0.87027   0.00000  Uiso   1.00
C461   C     0.66660   0.80820   0.89347   0.00000  Uiso   1.00
H462   H     0.67080   0.77020   0.88047   0.00000  Uiso   1.00
C463   C     0.67080   0.80990   0.93347   0.00000  Uiso   1.00
H464   H     0.67830   0.77450   0.94707   0.00000  Uiso   1.00
C465   C     0.66390   0.86480   0.95407   0.00000  Uiso   1.00
C466   C     0.65130   0.91640   0.93227   0.00000  Uiso   1.00
H467   H     0.64430   0.95210   0.94577   0.00000  Uiso   1.00
C468   C     0.64910   0.91540   0.89187   0.00000  Uiso   1.00
H469   H     0.64290   0.95150   0.87817   0.00000  Uiso   1.00
C470   C     0.66690   0.86570   0.99847   0.00000  Uiso   1.00
Si471  Si    0.20050   0.86330   0.29403   0.00000  Uiso   1.00
C472   C     0.15340   0.76770   0.27123   0.00000  Uiso   1.00
C473   C     0.15310   0.70340   0.28503   0.00000  Uiso   1.00
H474   H     0.18370   0.70700   0.30633   0.00000  Uiso   1.00
C475   C     0.10730   0.63380   0.26713   0.00000  Uiso   1.00
H476   H     0.10700   0.59070   0.27633   0.00000  Uiso   1.00
C477   C     0.06160   0.62840   0.23523   0.00000  Uiso   1.00
C478   C     0.06200   0.69280   0.22143   0.00000  Uiso   1.00
H479   H     0.03140   0.68920   0.20013   0.00000  Uiso   1.00
C480   C     0.10780   0.76240   0.23933   0.00000  Uiso   1.00
H481   H     0.10800   0.80540   0.23013   0.00000  Uiso   1.00
C482   C     0.01110   0.55330   0.21623   0.00000  Uiso   1.00
H483   H     0.96820   0.54110   0.20123   0.00000  Uiso   1.00
N484   N     0.03660   0.50820   0.22413   0.00000  Uiso   1.00
C485   C     0.98950   0.42990   0.20953   0.00000  Uiso   1.00
C486   C     0.90960   0.39140   0.20783   0.00000  Uiso   1.00
H487   H     0.88380   0.41550   0.21653   0.00000  Uiso   1.00
C488   C     0.86820   0.31670   0.19283   0.00000  Uiso   1.00
H489   H     0.81580   0.29290   0.19063   0.00000  Uiso   1.00
C490   C     0.90660   0.27860   0.18143   0.00000  Uiso   1.00
C491   C     0.98290   0.31730   0.18213   0.00000  Uiso   1.00
H492   H     0.00860   0.29390   0.17213   0.00000  Uiso   1.00
C493   C     0.02510   0.39060   0.19703   0.00000  Uiso   1.00
H494   H     0.07760   0.41340   0.19853   0.00000  Uiso   1.00
C495   C     0.29940   0.90950   0.27843   0.00000  Uiso   1.00
C496   C     0.32570   0.86370   0.26313   0.00000  Uiso   1.00
H497   H     0.29320   0.81170   0.26113   0.00000  Uiso   1.00
C498   C     0.40040   0.89540   0.25073   0.00000  Uiso   1.00
H499   H     0.41800   0.86470   0.24053   0.00000  Uiso   1.00
C500   C     0.44900   0.97310   0.25373   0.00000  Uiso   1.00
C501   C     0.42280   0.01900   0.26913   0.00000  Uiso   1.00
H502   H     0.45530   0.07100   0.27113   0.00000  Uiso   1.00
C503   C     0.34800   0.98720   0.28143   0.00000  Uiso   1.00
H504   H     0.33040   0.01790   0.29173   0.00000  Uiso   1.00
C505   C     0.52700   0.00510   0.24113   0.00000  Uiso   1.00
H506   H     0.55460   0.98150   0.24723   0.00000  Uiso   1.00
N507   N     0.55600   0.06490   0.22183   0.00000  Uiso   1.00
C508   C     0.63730   0.09710   0.20903   0.00000  Uiso   1.00
C509   C     0.69180   0.08550   0.22793   0.00000  Uiso   1.00
H510   H     0.67870   0.05640   0.25083   0.00000  Uiso   1.00
C511   C     0.76460   0.11600   0.21333   0.00000  Uiso   1.00
H512   H     0.79940   0.10600   0.22563   0.00000  Uiso   1.00
C513   C     0.78450   0.16150   0.18033   0.00000  Uiso   1.00
C514   C     0.73240   0.17460   0.16113   0.00000  Uiso   1.00
H515   H     0.74670   0.20460   0.13853   0.00000  Uiso   1.00
C516   C     0.65880   0.14350   0.17523   0.00000  Uiso   1.00
H517   H     0.62430   0.15330   0.16243   0.00000  Uiso   1.00
C518   C     0.15450   0.91280   0.27163   0.00000  Uiso   1.00
C519   C     0.08840   0.91140   0.28333   0.00000  Uiso   1.00
H520   H     0.06320   0.88540   0.30603   0.00000  Uiso   1.00
C521   C     0.06010   0.94890   0.26093   0.00000  Uiso   1.00
H522   H     0.01600   0.94800   0.26873   0.00000  Uiso   1.00
C523   C     0.09790   0.98780   0.22683   0.00000  Uiso   1.00
C524   C     0.16400   0.98920   0.21523   0.00000  Uiso   1.00
H525   H     0.18920   0.01520   0.19243   0.00000  Uiso   1.00
C526   C     0.19230   0.95170   0.23763   0.00000  Uiso   1.00
H527   H     0.23640   0.95260   0.22983   0.00000  Uiso   1.00
C528   C     0.05690   0.01900   0.20273   0.00000  Uiso   1.00
H529   H     0.06320   0.02860   0.17573   0.00000  Uiso   1.00
N530   N     0.01190   0.03120   0.22533   0.00000  Uiso   1.00
C531   C     0.97450   0.07080   0.20613   0.00000  Uiso   1.00
C532   C     0.95970   0.11660   0.23273   0.00000  Uiso   1.00
H533   H     0.97310   0.12010   0.25923   0.00000  Uiso   1.00
C534   C     0.92490   0.15550   0.21863   0.00000  Uiso   1.00
H535   H     0.91450   0.18400   0.23643   0.00000  Uiso   1.00
C536   C     0.90540   0.15380   0.17993   0.00000  Uiso   1.00
C537   C     0.91780   0.10910   0.15433   0.00000  Uiso   1.00
H538   H     0.90320   0.10550   0.12793   0.00000  Uiso   1.00
C539   C     0.95320   0.06810   0.16783   0.00000  Uiso   1.00
H540   H     0.96210   0.03880   0.14993   0.00000  Uiso   1.00
C541   C     0.19490   0.86350   0.34793   0.00000  Uiso   1.00
C542   C     0.21180   0.81570   0.36943   0.00000  Uiso   1.00
H543   H     0.22830   0.78640   0.35643   0.00000  Uiso   1.00
C544   C     0.20400   0.81180   0.41043   0.00000  Uiso   1.00
H545   H     0.21530   0.77980   0.42483   0.00000  Uiso   1.00
C546   C     0.17930   0.85560   0.42983   0.00000  Uiso   1.00
C547   C     0.16230   0.90330   0.40823   0.00000  Uiso   1.00
H548   H     0.14580   0.93260   0.42123   0.00000  Uiso   1.00
C549   C     0.17020   0.90730   0.36733   0.00000  Uiso   1.00
H550   H     0.15880   0.93920   0.35293   0.00000  Uiso   1.00
C551   C     0.16710   0.84690   0.47223   0.00000  Uiso   1.00
H552   H     0.18320   0.89220   0.48563   0.00000  Uiso   1.00
N553   N     0.14090   0.79320   0.49273   0.00000  Uiso   1.00
C554   C     0.14160   0.79800   0.53693   0.00000  Uiso   1.00
C555   C     0.19180   0.85840   0.56013   0.00000  Uiso   1.00
H556   H     0.22980   0.90060   0.54713   0.00000  Uiso   1.00
C557   C     0.19010   0.86090   0.60013   0.00000  Uiso   1.00
H558   H     0.22550   0.90380   0.61373   0.00000  Uiso   1.00
C559   C     0.13520   0.79910   0.62073   0.00000  Uiso   1.00
C560   C     0.08360   0.73490   0.59893   0.00000  Uiso   1.00
H561   H     0.04790   0.69220   0.61243   0.00000  Uiso   1.00
C562   C     0.08460   0.73370   0.55853   0.00000  Uiso   1.00
H563   H     0.04850   0.69140   0.54483   0.00000  Uiso   1.00
C564   C     0.13430   0.80120   0.66513   0.00000  Uiso   1.00
loop_
_geom_bond_atom_site_label_1
_geom_bond_atom_site_label_2
_geom_bond_distance
_geom_bond_site_symmetry_2
_ccdc_geom_bond_type
Si1    C2      1.856   .     S
Si1    C25     1.826   .     S
Si1    C48     1.849   .     S
Si1    C71     1.824   .     S
C2     C3      1.389   .     D
C2     C10     1.392   .     S
C3     H4      0.931   .     S
C3     C5      1.388   .     S
C5     H6      0.929   .     S
C5     C7      1.392   .     D
C7     C8      1.390   .     S
C7     C12     1.497   .     S
C8     H9      0.931   .     S
C8     C10     1.388   .     D
C10    H11     0.929   .     S
C12    H13     0.931   .     S
C12    N14     1.291   .     D
N14    C15     1.477   .     S
C15    C16     1.413   .     S
C15    C23     1.389   .     D
C16    H17     0.929   .     S
C16    C18     1.416   .     D
C18    H19     0.930   .     S
C18    C20     1.405   .     S
C20    C21     1.348   .     D
C20    C376    1.513   .     S
C21    H22     0.931   .     S
C21    C23     1.394   .     S
C23    H24     0.931   .     S
C25    C26     1.389   .     D
C25    C33     1.390   .     S
C26    H27     0.930   .     S
C26    C28     1.389   .     S
C28    H29     0.930   .     S
C28    C30     1.390   .     D
C30    C31     1.390   1_655 S
C30    C35     1.449   1_655 S
C31    C30     1.390   1_455 S
C31    H32     0.930   .     S
C31    C33     1.390   1_455 D
C33    C31     1.390   1_655 D
C33    H34     0.931   1_655 S
H34    C33     0.931   1_455 S
C35    C30     1.449   1_455 S
C35    H36     0.928   1_455 S
C35    N37     1.241   .     D
H36    C35     0.928   1_655 S
N37    C38     1.510   .     S
C38    C39     1.401   .     S
C38    C46     1.406   .     D
C39    H40     0.929   .     S
C39    C41     1.382   .     D
C41    H42     0.929   .     S
C41    C43     1.375   .     S
C43    C44     1.380   .     D
C43    C376    1.525   .     S
C44    H45     0.929   .     S
C44    C46     1.389   .     S
C46    H47     0.929   .     S
C48    C49     1.391   .     D
C48    C56     1.389   .     S
C49    H50     0.928   .     S
C49    C51     1.390   .     S
C51    H52     0.929   .     S
C51    C53     1.392   .     D
C53    C54     1.390   .     S
C53    C58     1.516   1_655 S
C54    H55     0.930   1_655 S
C54    C56     1.390   .     D
H55    C54     0.930   1_455 S
C56    H57     0.929   .     S
C58    C53     1.516   1_455 S
C58    H59     0.928   .     S
C58    N60     1.310   1_565 D
N60    C58     1.310   1_545 D
N60    C61     1.507   .     S
C61    C62     1.433   .     S
C61    C69     1.357   .     D
C62    H63     0.928   .     S
C62    C64     1.387   .     D
C64    H65     0.931   .     S
C64    C66     1.361   .     S
C66    C67     1.369   .     D
C66    C376    1.578   .     S
C67    H68     0.931   .     S
C67    C69     1.426   .     S
C69    H70     0.929   .     S
C71    C72     1.390   .     S
C71    C79     1.390   .     D
C72    H73     0.930   .     S
C72    C74     1.391   .     D
C74    H75     0.931   .     S
C74    C76     1.390   .     S
C76    C77     1.391   .     D
C76    C81     1.449   .     S
C77    H78     0.930   .     S
C77    C79     1.388   .     S
C79    H80     0.930   .     S
C81    H82     0.929   .     S
C81    N83     1.174   .     D
N83    C84     1.495   .     S
C84    C85     1.385   .     S
C84    C92     1.442   .     D
C85    H86     0.931   .     S
C85    C87     1.353   .     D
C87    H88     0.931   .     S
C87    C89     1.384   .     S
C89    C90     1.409   .     D
C89    C94     1.500   .     S
C90    H91     0.929   .     S
C90    C92     1.365   .     S
C92    H93     0.930   .     S
C94    C302    1.513   .     S
C94    C325    1.525   .     S
C94    C348    1.578   .     S
Si95   C96     1.856   .     S
Si95   C119    1.826   .     S
Si95   C142    1.849   .     S
Si95   C165    1.824   .     S
C96    C97     1.389   .     S
C96    C104    1.392   .     D
C97    H98     0.931   .     S
C97    C99     1.388   .     D
C99    H100    0.929   .     S
C99    C101    1.392   .     S
C101   C102    1.390   .     D
C101   C106    1.497   .     S
C102   H103    0.931   .     S
C102   C104    1.388   .     S
C104   H105    0.929   .     S
C106   H107    0.931   1_545 S
C106   N108    1.291   .     D
H107   C106    0.931   1_565 S
N108   C109    1.477   1_545 S
C109   N108    1.477   1_565 S
C109   C110    1.413   .     S
C109   C117    1.389   1_565 D
C110   H111    0.929   .     S
C110   C112    1.416   .     D
C112   H113    0.930   .     S
C112   C114    1.405   .     S
C114   C115    1.348   .     D
C114   C470    1.513   1_554 S
C115   H116    0.931   1_565 S
C115   C117    1.394   1_565 S
H116   C115    0.931   1_545 S
C117   C115    1.394   1_545 S
C117   C109    1.389   1_545 D
C117   H118    0.931   .     S
C119   C120    1.389   .     D
C119   C127    1.390   .     S
C120   H121    0.930   .     S
C120   C122    1.389   .     S
C122   H123    0.930   .     S
C122   C124    1.390   .     D
C124   C125    1.390   .     S
C124   C129    1.449   .     S
C125   H126    0.930   .     S
C125   C127    1.390   .     D
C127   H128    0.931   .     S
C129   H130    0.928   .     S
C129   N131    1.241   .     D
N131   C132    1.510   .     S
C132   C133    1.401   .     S
C132   C140    1.406   .     D
C133   H134    0.929   .     S
C133   C135    1.382   .     D
C135   H136    0.929   .     S
C135   C137    1.375   .     S
C137   C138    1.380   1_554 D
C137   C470    1.525   1_554 S
C138   C137    1.380   1_556 D
C138   H139    0.929   .     S
C138   C140    1.389   1_556 S
C140   C138    1.389   1_554 S
C140   H141    0.929   1_554 S
H141   C140    0.929   1_556 S
C142   C143    1.391   .     D
C142   C150    1.389   .     S
C143   H144    0.928   .     S
C143   C145    1.390   .     S
C145   H146    0.929   .     S
C145   C147    1.392   .     D
C147   C148    1.390   .     S
C147   C152    1.516   .     S
C148   H149    0.930   .     S
C148   C150    1.390   .     D
C150   H151    0.929   .     S
C152   H153    0.928   .     S
C152   N154    1.310   1_455 D
N154   C152    1.310   1_655 D
N154   C155    1.507   1_545 S
C155   N154    1.507   1_565 S
C155   C156    1.433   .     S
C155   C163    1.357   .     D
C156   H157    0.928   .     S
C156   C158    1.387   .     D
C158   H159    0.931   .     S
C158   C160    1.361   .     S
C160   C161    1.369   1_554 D
C160   C470    1.578   1_554 S
C161   C160    1.369   1_556 D
C161   H162    0.931   .     S
C161   C163    1.426   1_556 S
C163   C161    1.426   1_554 S
C163   H164    0.929   1_554 S
H164   C163    0.929   1_556 S
C165   C166    1.390   .     D
C165   C173    1.390   .     S
C166   H167    0.930   .     S
C166   C168    1.391   .     S
C168   H169    0.931   .     S
C168   C170    1.390   .     D
C170   C171    1.391   .     S
C170   C175    1.449   .     S
C171   H172    0.930   .     S
C171   C173    1.388   .     D
C173   H174    0.930   .     S
C175   H176    0.929   .     S
C175   N177    1.174   .     D
N177   C178    1.495   .     S
C178   C179    1.385   .     S
C178   C186    1.442   .     D
C179   H180    0.931   .     S
C179   C181    1.353   .     D
C181   H182    0.931   .     S
C181   C183    1.384   .     S
C183   C184    1.409   .     D
C183   C188    1.500   .     S
C184   H185    0.929   .     S
C184   C186    1.365   .     S
C186   H187    0.930   .     S
C188   C396    1.513   .     S
C188   C419    1.525   .     S
C188   C442    1.578   .     S
Si189  C190    1.856   .     S
Si189  C213    1.826   .     S
Si189  C236    1.849   .     S
Si189  C259    1.824   .     S
C190   C191    1.389   .     D
C190   C198    1.392   .     S
C191   H192    0.931   .     S
C191   C193    1.388   .     S
C193   H194    0.929   .     S
C193   C195    1.392   .     D
C195   C196    1.390   .     S
C195   C200    1.497   .     S
C196   H197    0.931   .     S
C196   C198    1.388   .     D
C198   H199    0.929   .     S
C200   H201    0.931   1_655 S
C200   N202    1.291   .     D
H201   C200    0.931   1_455 S
N202   C203    1.477   1_655 S
C203   N202    1.477   1_455 S
C203   C204    1.413   .     S
C203   C211    1.389   1_455 D
C204   H205    0.929   .     S
C204   C206    1.416   .     D
C206   H207    0.930   .     S
C206   C208    1.405   .     S
C208   C209    1.348   .     D
C208   C564    1.513   .     S
C209   H210    0.931   1_455 S
C209   C211    1.394   1_455 S
H210   C209    0.931   1_655 S
C211   C203    1.389   1_655 D
C211   C209    1.394   1_655 S
C211   H212    0.931   .     S
C213   C214    1.389   .     D
C213   C221    1.390   .     S
C214   H215    0.930   .     S
C214   C216    1.389   .     S
C216   H217    0.930   .     S
C216   C218    1.390   .     D
C218   C219    1.390   1_545 S
C218   C223    1.449   1_545 S
C219   C218    1.390   1_565 S
C219   H220    0.930   .     S
C219   C221    1.390   1_565 D
C221   C219    1.390   1_545 D
C221   H222    0.931   1_545 S
H222   C221    0.931   1_565 S
C223   C218    1.449   1_565 S
C223   H224    0.928   1_565 S
C223   N225    1.241   .     D
H224   C223    0.928   1_545 S
N225   C226    1.510   .     S
C226   C227    1.401   .     S
C226   C234    1.406   .     D
C227   H228    0.929   .     S
C227   C229    1.382   .     D
C229   H230    0.929   .     S
C229   C231    1.375   .     S
C231   C232    1.380   .     D
C231   C564    1.525   .     S
C232   H233    0.929   .     S
C232   C234    1.389   .     S
C234   H235    0.929   .     S
C236   C237    1.391   .     D
C236   C244    1.389   .     S
C237   H238    0.928   .     S
C237   C239    1.390   .     S
C239   H240    0.929   .     S
C239   C241    1.392   .     D
C241   C242    1.390   .     S
C241   C246    1.516   1_545 S
C242   H243    0.930   1_545 S
C242   C244    1.390   .     D
H243   C242    0.930   1_565 S
C244   H245    0.929   .     S
C246   C241    1.516   1_565 S
C246   H247    0.928   .     S
C246   N248    1.310   .     D
N248   C249    1.507   1_655 S
C249   N248    1.507   1_455 S
C249   C250    1.433   .     S
C249   C257    1.357   .     D
C250   H251    0.928   .     S
C250   C252    1.387   .     D
C252   H253    0.931   .     S
C252   C254    1.361   .     S
C254   C255    1.369   .     D
C254   C564    1.578   .     S
C255   H256    0.931   .     S
C255   C257    1.426   .     S
C257   H258    0.929   .     S
C259   C260    1.390   .     D
C259   C267    1.390   .     S
C260   H261    0.930   .     S
C260   C262    1.391   .     S
C262   H263    0.931   .     S
C262   C264    1.390   .     D
C264   C265    1.391   .     S
C264   C269    1.449   .     S
C265   H266    0.930   .     S
C265   C267    1.388   .     D
C267   H268    0.930   .     S
C269   H270    0.929   .     S
C269   N271    1.174   .     D
N271   C272    1.495   1_556 S
C272   N271    1.495   1_554 S
C272   C273    1.385   .     S
C272   C280    1.442   .     D
C273   H274    0.931   .     S
C273   C275    1.353   .     D
C275   H276    0.931   .     S
C275   C277    1.384   .     S
C277   C278    1.409   .     D
C277   C282    1.500   .     S
C278   H279    0.929   .     S
C278   C280    1.365   .     S
C280   H281    0.930   .     S
C282   C490    1.513   .     S
C282   C513    1.525   .     S
C282   C536    1.578   .     S
Si283  C284    1.856   .     S
Si283  C307    1.826   .     S
Si283  C330    1.849   .     S
Si283  C353    1.824   1_556 S
C284   C285    1.389   .     S
C284   C292    1.392   .     D
C285   H286    0.931   .     S
C285   C287    1.388   .     D
C287   H288    0.929   .     S
C287   C289    1.392   .     S
C289   C290    1.390   .     D
C289   C294    1.497   .     S
C290   H291    0.931   .     S
C290   C292    1.388   .     S
C292   H293    0.929   .     S
C294   H295    0.931   .     S
C294   N296    1.291   .     D
N296   C297    1.477   .     S
C297   C298    1.413   .     S
C297   C305    1.389   .     D
C298   H299    0.929   .     S
C298   C300    1.416   .     D
C300   H301    0.930   .     S
C300   C302    1.405   .     S
C302   C303    1.348   .     D
C303   H304    0.931   .     S
C303   C305    1.394   .     S
C305   H306    0.931   .     S
C307   C308    1.389   .     D
C307   C315    1.390   .     S
C308   H309    0.930   .     S
C308   C310    1.389   .     S
C310   H311    0.930   .     S
C310   C312    1.390   .     D
C312   C313    1.390   1_455 S
C312   C317    1.449   1_455 S
C313   C312    1.390   1_655 S
C313   H314    0.930   .     S
C313   C315    1.390   1_655 D
C315   C313    1.390   1_455 D
C315   H316    0.931   1_455 S
H316   C315    0.931   1_655 S
C317   C312    1.449   1_655 S
C317   H318    0.928   1_655 S
C317   N319    1.241   .     D
H318   C317    0.928   1_455 S
N319   C320    1.510   .     S
C320   C321    1.401   .     S
C320   C328    1.406   .     D
C321   H322    0.929   .     S
C321   C323    1.382   .     D
C323   H324    0.929   .     S
C323   C325    1.375   .     S
C325   C326    1.380   .     D
C326   H327    0.929   .     S
C326   C328    1.389   .     S
C328   H329    0.929   .     S
C330   C331    1.391   .     D
C330   C338    1.389   .     S
C331   H332    0.928   .     S
C331   C333    1.390   .     S
C333   H334    0.929   .     S
C333   C335    1.392   .     D
C335   C336    1.390   .     S
C335   C340    1.516   1_455 S
C336   H337    0.930   1_455 S
C336   C338    1.390   .     D
H337   C336    0.930   1_655 S
C338   H339    0.929   .     S
C340   C335    1.516   1_655 S
C340   H341    0.928   .     S
C340   N342    1.310   1_545 D
N342   C340    1.310   1_565 D
N342   C343    1.507   .     S
C343   C344    1.433   .     S
C343   C351    1.357   .     D
C344   H345    0.928   .     S
C344   C346    1.387   .     D
C346   H347    0.931   .     S
C346   C348    1.361   .     S
C348   C349    1.369   .     D
C349   H350    0.931   .     S
C349   C351    1.426   .     S
C351   H352    0.929   .     S
C353   Si283   1.824   1_554 S
C353   C354    1.390   .     D
C353   C361    1.390   .     S
C354   H355    0.930   .     S
C354   C356    1.391   .     S
C356   H357    0.931   .     S
C356   C358    1.390   .     D
C358   C359    1.391   .     S
C358   C363    1.449   .     S
C359   H360    0.930   .     S
C359   C361    1.388   .     D
C361   H362    0.930   .     S
C363   H364    0.929   .     S
C363   N365    1.174   .     D
N365   C366    1.495   .     S
C366   C367    1.385   .     S
C366   C374    1.442   .     D
C367   H368    0.931   .     S
C367   C369    1.353   .     D
C369   H370    0.931   .     S
C369   C371    1.384   .     S
C371   C372    1.409   .     D
C371   C376    1.500   .     S
C372   H373    0.929   .     S
C372   C374    1.365   .     S
C374   H375    0.930   .     S
Si377  C378    1.856   .     S
Si377  C401    1.826   .     S
Si377  C424    1.849   .     S
Si377  C447    1.824   .     S
C378   C379    1.389   .     S
C378   C386    1.392   .     D
C379   H380    0.931   .     S
C379   C381    1.388   .     D
C381   H382    0.929   .     S
C381   C383    1.392   .     S
C383   C384    1.390   .     D
C383   C388    1.497   .     S
C384   H385    0.931   .     S
C384   C386    1.388   .     S
C386   H387    0.929   .     S
C388   H389    0.931   1_565 S
C388   N390    1.291   .     D
H389   C388    0.931   1_545 S
N390   C391    1.477   1_565 S
C391   N390    1.477   1_545 S
C391   C392    1.413   .     S
C391   C399    1.389   1_545 D
C392   H393    0.929   .     S
C392   C394    1.416   .     D
C394   H395    0.930   .     S
C394   C396    1.405   .     S
C396   C397    1.348   .     D
C397   H398    0.931   1_545 S
C397   C399    1.394   1_545 S
H398   C397    0.931   1_565 S
C399   C397    1.394   1_565 S
C399   C391    1.389   1_565 D
C399   H400    0.931   .     S
C401   C402    1.389   .     S
C401   C409    1.390   .     D
C402   H403    0.930   .     S
C402   C404    1.389   .     D
C404   H405    0.930   .     S
C404   C406    1.390   .     S
C406   C407    1.390   .     D
C406   C411    1.449   .     S
C407   H408    0.930   .     S
C407   C409    1.390   .     S
C409   H410    0.931   .     S
C411   H412    0.928   .     S
C411   N413    1.241   .     D
N413   C414    1.510   .     S
C414   C415    1.401   .     S
C414   C422    1.406   .     D
C415   H416    0.929   .     S
C415   C417    1.382   .     D
C417   H418    0.929   .     S
C417   C419    1.375   .     S
C419   C420    1.380   .     D
C420   H421    0.929   .     S
C420   C422    1.389   .     S
C422   H423    0.929   .     S
C424   C425    1.391   .     D
C424   C432    1.389   .     S
C425   H426    0.928   .     S
C425   C427    1.390   .     S
C427   H428    0.929   .     S
C427   C429    1.392   .     D
C429   C430    1.390   .     S
C429   C434    1.516   .     S
C430   H431    0.930   .     S
C430   C432    1.390   .     D
C432   H433    0.929   .     S
C434   H435    0.928   .     S
C434   N436    1.310   1_655 D
N436   C434    1.310   1_455 D
N436   C437    1.507   1_565 S
C437   N436    1.507   1_545 S
C437   C438    1.433   .     S
C437   C445    1.357   .     D
C438   H439    0.928   .     S
C438   C440    1.387   .     D
C440   H441    0.931   .     S
C440   C442    1.361   .     S
C442   C443    1.369   .     D
C443   H444    0.931   .     S
C443   C445    1.426   .     S
C445   H446    0.929   .     S
C447   C448    1.390   .     S
C447   C455    1.390   .     D
C448   H449    0.930   .     S
C448   C450    1.391   .     D
C450   H451    0.931   .     S
C450   C452    1.390   .     S
C452   C453    1.391   .     D
C452   C457    1.449   .     S
C453   H454    0.930   .     S
C453   C455    1.388   .     S
C455   H456    0.930   .     S
C457   H458    0.929   .     S
C457   N459    1.174   .     D
N459   C460    1.495   .     S
C460   C461    1.385   .     S
C460   C468    1.442   .     D
C461   H462    0.931   .     S
C461   C463    1.353   .     D
C463   H464    0.931   .     S
C463   C465    1.384   .     S
C465   C466    1.409   .     D
C465   C470    1.500   .     S
C466   H467    0.929   .     S
C466   C468    1.365   .     S
C468   H469    0.930   .     S
C470   C114    1.513   1_556 S
C470   C160    1.578   1_556 S
C470   C137    1.525   1_556 S
Si471  C472    1.856   .     S
Si471  C495    1.826   .     S
Si471  C518    1.849   .     S
Si471  C541    1.824   .     S
C472   C473    1.389   .     S
C472   C480    1.392   .     D
C473   H474    0.931   .     S
C473   C475    1.388   .     D
C475   H476    0.929   .     S
C475   C477    1.392   .     S
C477   C478    1.390   .     D
C477   C482    1.497   .     S
C478   H479    0.931   .     S
C478   C480    1.388   .     S
C480   H481    0.929   .     S
C482   H483    0.931   1_455 S
C482   N484    1.291   .     D
H483   C482    0.931   1_655 S
N484   C485    1.477   1_455 S
C485   N484    1.477   1_655 S
C485   C486    1.413   .     S
C485   C493    1.389   1_655 D
C486   H487    0.929   .     S
C486   C488    1.416   .     D
C488   H489    0.930   .     S
C488   C490    1.405   .     S
C490   C491    1.348   .     D
C491   H492    0.931   1_655 S
C491   C493    1.394   1_655 S
H492   C491    0.931   1_455 S
C493   C491    1.394   1_455 S
C493   C485    1.389   1_455 D
C493   H494    0.931   .     S
C495   C496    1.389   .     D
C495   C503    1.390   .     S
C496   H497    0.930   .     S
C496   C498    1.389   .     S
C498   H499    0.930   .     S
C498   C500    1.390   .     D
C500   C501    1.390   1_565 S
C500   C505    1.449   1_565 S
C501   C500    1.390   1_545 S
C501   H502    0.930   .     S
C501   C503    1.390   1_545 D
C503   C501    1.390   1_565 D
C503   H504    0.931   1_565 S
H504   C503    0.931   1_545 S
C505   C500    1.449   1_545 S
C505   H506    0.928   1_545 S
C505   N507    1.241   .     D
H506   C505    0.928   1_565 S
N507   C508    1.510   .     S
C508   C509    1.401   .     S
C508   C516    1.406   .     D
C509   H510    0.929   .     S
C509   C511    1.382   .     D
C511   H512    0.929   .     S
C511   C513    1.375   .     S
C513   C514    1.380   .     D
C514   H515    0.929   .     S
C514   C516    1.389   .     S
C516   H517    0.929   .     S
C518   C519    1.391   .     D
C518   C526    1.389   .     S
C519   H520    0.928   .     S
C519   C521    1.390   .     S
C521   H522    0.929   .     S
C521   C523    1.392   .     D
C523   C524    1.390   .     S
C523   C528    1.516   1_565 S
C524   H525    0.930   1_565 S
C524   C526    1.390   .     D
H525   C524    0.930   1_545 S
C526   H527    0.929   .     S
C528   C523    1.516   1_545 S
C528   H529    0.928   .     S
C528   N530    1.310   .     D
N530   C531    1.507   1_455 S
C531   N530    1.507   1_655 S
C531   C532    1.433   .     S
C531   C539    1.357   .     D
C532   H533    0.928   .     S
C532   C534    1.387   .     D
C534   H535    0.931   .     S
C534   C536    1.361   .     S
C536   C537    1.369   .     D
C537   H538    0.931   .     S
C537   C539    1.426   .     S
C539   H540    0.929   .     S
C541   C542    1.390   .     S
C541   C549    1.390   .     D
C542   H543    0.930   .     S
C542   C544    1.391   .     D
C544   H545    0.931   .     S
C544   C546    1.390   .     S
C546   C547    1.391   .     D
C546   C551    1.449   .     S
C547   H548    0.930   .     S
C547   C549    1.388   .     S
C549   H550    0.930   .     S
C551   H552    0.929   .     S
C551   N553    1.174   .     D
N553   C554    1.495   .     S
C554   C555    1.385   .     S
C554   C562    1.442   .     D
C555   H556    0.931   .     S
C555   C557    1.353   .     D
C557   H558    0.931   .     S
C557   C559    1.384   .     S
C559   C560    1.409   .     D
C559   C564    1.500   .     S
C560   H561    0.929   .     S
C560   C562    1.365   .     S
C562   H563    0.930   .     S
