data_359
_audit_creation_date              2023-09-08
_audit_creation_method            'Materials Studio'
_symmetry_space_group_name_H-M    'P1'
_symmetry_Int_Tables_number       1
_symmetry_cell_setting            triclinic
loop_
_symmetry_equiv_pos_as_xyz
  x,y,z
_cell_length_a                    8.0352
_cell_length_b                    31.6595
_cell_length_c                    54.8359
_cell_angle_alpha                 90.0000
_cell_angle_beta                  90.0000
_cell_angle_gamma                 90.0000
loop_
_atom_site_label
_atom_site_type_symbol
_atom_site_fract_x
_atom_site_fract_y
_atom_site_fract_z
_atom_site_U_iso_or_equiv
_atom_site_adp_type
_atom_site_occupancy
C1     C     0.61293   0.53275   0.06632   0.00000  Uiso   1.00
C2     C     0.23711   0.53264   0.18753   0.00000  Uiso   1.00
C3     C     0.61293   0.54332   0.14228   0.00000  Uiso   1.00
C4     C     0.23711   0.54321   0.26349   0.00000  Uiso   1.00
C5     C     0.61293   0.42409   0.10959   0.00000  Uiso   1.00
C6     C     0.23711   0.42398   0.23079   0.00000  Uiso   1.00
C7     C     0.61356   0.53303   0.04087   0.00000  Uiso   1.00
C8     C     0.23774   0.53292   0.16208   0.00000  Uiso   1.00
C9     C     0.61356   0.58135   0.15515   0.00000  Uiso   1.00
C10    C     0.23774   0.58124   0.27635   0.00000  Uiso   1.00
C11    C     0.61356   0.38578   0.12217   0.00000  Uiso   1.00
C12    C     0.23774   0.38567   0.24338   0.00000  Uiso   1.00
C13    C     0.62288   0.46704   0.98694   0.00000  Uiso   1.00
C14    C     0.24706   0.46693   0.10815   0.00000  Uiso   1.00
C15    C     0.62288   0.69525   0.14912   0.00000  Uiso   1.00
C16    C     0.24706   0.69514   0.27032   0.00000  Uiso   1.00
C17    C     0.62288   0.33788   0.18213   0.00000  Uiso   1.00
C18    C     0.24706   0.33777   0.30334   0.00000  Uiso   1.00
C19    C     0.65071   0.48007   0.96096   0.00000  Uiso   1.00
C20    C     0.27489   0.47996   0.08217   0.00000  Uiso   1.00
C21    C     0.65071   0.72770   0.16862   0.00000  Uiso   1.00
C22    C     0.27489   0.72759   0.28983   0.00000  Uiso   1.00
C23    C     0.65071   0.29240   0.18861   0.00000  Uiso   1.00
C24    C     0.27489   0.29228   0.30981   0.00000  Uiso   1.00
C25    C     0.68791   0.53937   0.11917   0.00000  Uiso   1.00
C26    C     0.31209   0.53926   0.24038   0.00000  Uiso   1.00
C27    C     0.68791   0.61738   0.14517   0.00000  Uiso   1.00
C28    C     0.31209   0.61727   0.26638   0.00000  Uiso   1.00
C29    C     0.76461   0.54135   0.93940   0.00000  Uiso   1.00
C30    C     0.76461   0.72941   0.21004   0.00000  Uiso   1.00
C31    C     0.38879   0.72930   0.33125   0.00000  Uiso   1.00
O32    O     0.82141   0.56497   0.99442   0.00000  Uiso   1.00
O33    O     0.44558   0.56486   0.11563   0.00000  Uiso   1.00
O34    O     0.82141   0.63506   0.19434   0.00000  Uiso   1.00
O35    O     0.44558   0.63495   0.31555   0.00000  Uiso   1.00
O36    O     0.82141   0.30013   0.12943   0.00000  Uiso   1.00
O37    O     0.44558   0.30002   0.25063   0.00000  Uiso   1.00
H38    H     0.55203   0.55877   0.07574   0.00000  Uiso   1.00
H39    H     0.17621   0.55866   0.19694   0.00000  Uiso   1.00
H40    H     0.55203   0.51619   0.15058   0.00000  Uiso   1.00
H41    H     0.17621   0.51608   0.27179   0.00000  Uiso   1.00
H42    H     0.55203   0.42521   0.09187   0.00000  Uiso   1.00
H43    H     0.17621   0.42510   0.21308   0.00000  Uiso   1.00
H44    H     0.55158   0.55865   0.03115   0.00000  Uiso   1.00
H45    H     0.17576   0.55854   0.15236   0.00000  Uiso   1.00
H46    H     0.55158   0.58313   0.17282   0.00000  Uiso   1.00
H47    H     0.17576   0.58302   0.29402   0.00000  Uiso   1.00
H48    H     0.55158   0.35839   0.11422   0.00000  Uiso   1.00
H49    H     0.17576   0.35828   0.23543   0.00000  Uiso   1.00
H50    H     0.82168   0.57264   0.93940   0.00000  Uiso   1.00
H51    H     0.82168   0.71377   0.22569   0.00000  Uiso   1.00
H52    H     0.44586   0.71365   0.34689   0.00000  Uiso   1.00
N53    N     0.68791   0.65672   0.15828   0.00000  Uiso   1.00
N54    N     0.31209   0.65661   0.27949   0.00000  Uiso   1.00
C55    C     0.61293   0.03275   0.56632   0.00000  Uiso   1.00
C56    C     0.23711   0.03264   0.68753   0.00000  Uiso   1.00
C57    C     0.61293   0.04332   0.64228   0.00000  Uiso   1.00
C58    C     0.23711   0.04321   0.76349   0.00000  Uiso   1.00
C59    C     0.61293   0.92409   0.60959   0.00000  Uiso   1.00
C60    C     0.23711   0.92398   0.73079   0.00000  Uiso   1.00
C61    C     0.61356   0.03303   0.54087   0.00000  Uiso   1.00
C62    C     0.23774   0.03292   0.66208   0.00000  Uiso   1.00
C63    C     0.61356   0.08135   0.65515   0.00000  Uiso   1.00
C64    C     0.23774   0.08124   0.77635   0.00000  Uiso   1.00
C65    C     0.61356   0.88578   0.62217   0.00000  Uiso   1.00
C66    C     0.23774   0.88567   0.74338   0.00000  Uiso   1.00
C67    C     0.62288   0.96704   0.48694   0.00000  Uiso   1.00
C68    C     0.24706   0.96693   0.60815   0.00000  Uiso   1.00
C69    C     0.62288   0.19525   0.64912   0.00000  Uiso   1.00
C70    C     0.24706   0.19514   0.77032   0.00000  Uiso   1.00
C71    C     0.62288   0.83788   0.68213   0.00000  Uiso   1.00
C72    C     0.24706   0.83777   0.80334   0.00000  Uiso   1.00
C73    C     0.65071   0.98007   0.46096   0.00000  Uiso   1.00
C74    C     0.27489   0.97996   0.58217   0.00000  Uiso   1.00
C75    C     0.65071   0.22770   0.66862   0.00000  Uiso   1.00
C76    C     0.27489   0.22759   0.78983   0.00000  Uiso   1.00
C77    C     0.65071   0.79240   0.68861   0.00000  Uiso   1.00
C78    C     0.27489   0.79228   0.80981   0.00000  Uiso   1.00
C79    C     0.68791   0.03937   0.61917   0.00000  Uiso   1.00
C80    C     0.31209   0.03926   0.74038   0.00000  Uiso   1.00
C81    C     0.68791   0.11738   0.64517   0.00000  Uiso   1.00
C82    C     0.31209   0.11727   0.76638   0.00000  Uiso   1.00
C83    C     0.76461   0.04135   0.43940   0.00000  Uiso   1.00
C84    C     0.76461   0.22941   0.71004   0.00000  Uiso   1.00
C85    C     0.38879   0.22930   0.83125   0.00000  Uiso   1.00
O86    O     0.82141   0.06497   0.49442   0.00000  Uiso   1.00
O87    O     0.44558   0.06486   0.61563   0.00000  Uiso   1.00
O88    O     0.82141   0.13506   0.69434   0.00000  Uiso   1.00
O89    O     0.44558   0.13495   0.81555   0.00000  Uiso   1.00
O90    O     0.82141   0.80013   0.62943   0.00000  Uiso   1.00
O91    O     0.44558   0.80002   0.75063   0.00000  Uiso   1.00
H92    H     0.55203   0.05877   0.57574   0.00000  Uiso   1.00
H93    H     0.17621   0.05866   0.69694   0.00000  Uiso   1.00
H94    H     0.55203   0.01619   0.65058   0.00000  Uiso   1.00
H95    H     0.17621   0.01608   0.77179   0.00000  Uiso   1.00
H96    H     0.55203   0.92521   0.59187   0.00000  Uiso   1.00
H97    H     0.17621   0.92510   0.71308   0.00000  Uiso   1.00
H98    H     0.55158   0.05865   0.53115   0.00000  Uiso   1.00
H99    H     0.17576   0.05854   0.65236   0.00000  Uiso   1.00
H100   H     0.55158   0.08313   0.67282   0.00000  Uiso   1.00
H101   H     0.17576   0.08302   0.79402   0.00000  Uiso   1.00
H102   H     0.55158   0.85839   0.61422   0.00000  Uiso   1.00
H103   H     0.17576   0.85828   0.73543   0.00000  Uiso   1.00
H104   H     0.82168   0.07264   0.43940   0.00000  Uiso   1.00
H105   H     0.82168   0.21377   0.72569   0.00000  Uiso   1.00
H106   H     0.44586   0.21365   0.84689   0.00000  Uiso   1.00
N107   N     0.68791   0.15672   0.65828   0.00000  Uiso   1.00
N108   N     0.31209   0.15661   0.77949   0.00000  Uiso   1.00
C109   C     0.76289   0.46736   0.06632   0.00000  Uiso   1.00
C110   C     0.38707   0.46725   0.18753   0.00000  Uiso   1.00
C111   C     0.76289   0.45679   0.14228   0.00000  Uiso   1.00
C112   C     0.38707   0.45668   0.26349   0.00000  Uiso   1.00
C113   C     0.76289   0.57602   0.10959   0.00000  Uiso   1.00
C114   C     0.38707   0.57591   0.23079   0.00000  Uiso   1.00
C115   C     0.76226   0.46708   0.04087   0.00000  Uiso   1.00
C116   C     0.38644   0.46697   0.16208   0.00000  Uiso   1.00
C117   C     0.76226   0.41876   0.15515   0.00000  Uiso   1.00
C118   C     0.38644   0.41865   0.27635   0.00000  Uiso   1.00
C119   C     0.76226   0.61433   0.12217   0.00000  Uiso   1.00
C120   C     0.38644   0.61422   0.24338   0.00000  Uiso   1.00
C121   C     0.75294   0.53307   0.98694   0.00000  Uiso   1.00
C122   C     0.37712   0.53296   0.10815   0.00000  Uiso   1.00
C123   C     0.75294   0.30486   0.14912   0.00000  Uiso   1.00
C124   C     0.37712   0.30475   0.27032   0.00000  Uiso   1.00
C125   C     0.75294   0.66223   0.18213   0.00000  Uiso   1.00
C126   C     0.37712   0.66212   0.30334   0.00000  Uiso   1.00
C127   C     0.72511   0.52004   0.96096   0.00000  Uiso   1.00
C128   C     0.34929   0.51993   0.08217   0.00000  Uiso   1.00
C129   C     0.72511   0.27241   0.16862   0.00000  Uiso   1.00
C130   C     0.34929   0.27230   0.28983   0.00000  Uiso   1.00
C131   C     0.72511   0.70772   0.18861   0.00000  Uiso   1.00
C132   C     0.34929   0.70760   0.30981   0.00000  Uiso   1.00
C133   C     0.68791   0.46074   0.11917   0.00000  Uiso   1.00
C134   C     0.31209   0.46063   0.24038   0.00000  Uiso   1.00
C135   C     0.68791   0.38273   0.14517   0.00000  Uiso   1.00
C136   C     0.31209   0.38262   0.26638   0.00000  Uiso   1.00
C137   C     0.61121   0.45876   0.93940   0.00000  Uiso   1.00
C138   C     0.61121   0.27070   0.21004   0.00000  Uiso   1.00
C139   C     0.23539   0.27059   0.33125   0.00000  Uiso   1.00
O140   O     0.55442   0.43514   0.99442   0.00000  Uiso   1.00
O141   O     0.17859   0.43503   0.11563   0.00000  Uiso   1.00
O142   O     0.55442   0.36505   0.19434   0.00000  Uiso   1.00
O143   O     0.17859   0.36494   0.31555   0.00000  Uiso   1.00
O144   O     0.55442   0.69998   0.12943   0.00000  Uiso   1.00
O145   O     0.17859   0.69987   0.25063   0.00000  Uiso   1.00
H146   H     0.82379   0.44134   0.07574   0.00000  Uiso   1.00
H147   H     0.44797   0.44123   0.19694   0.00000  Uiso   1.00
H148   H     0.82379   0.48392   0.15058   0.00000  Uiso   1.00
H149   H     0.44797   0.48381   0.27179   0.00000  Uiso   1.00
H150   H     0.82379   0.57490   0.09187   0.00000  Uiso   1.00
H151   H     0.44797   0.57479   0.21308   0.00000  Uiso   1.00
H152   H     0.82424   0.44146   0.03115   0.00000  Uiso   1.00
H153   H     0.44842   0.44135   0.15236   0.00000  Uiso   1.00
H154   H     0.82424   0.41698   0.17282   0.00000  Uiso   1.00
H155   H     0.44842   0.41687   0.29402   0.00000  Uiso   1.00
H156   H     0.82424   0.64172   0.11422   0.00000  Uiso   1.00
H157   H     0.44842   0.64161   0.23543   0.00000  Uiso   1.00
H158   H     0.55414   0.42748   0.93940   0.00000  Uiso   1.00
H159   H     0.55414   0.28635   0.22569   0.00000  Uiso   1.00
H160   H     0.17832   0.28623   0.34689   0.00000  Uiso   1.00
N161   N     0.68791   0.34339   0.15828   0.00000  Uiso   1.00
N162   N     0.31209   0.34328   0.27949   0.00000  Uiso   1.00
C163   C     0.76289   0.96736   0.56632   0.00000  Uiso   1.00
C164   C     0.38707   0.96725   0.68753   0.00000  Uiso   1.00
C165   C     0.76289   0.95679   0.64228   0.00000  Uiso   1.00
C166   C     0.38707   0.95668   0.76349   0.00000  Uiso   1.00
C167   C     0.76289   0.07602   0.60959   0.00000  Uiso   1.00
C168   C     0.38707   0.07591   0.73079   0.00000  Uiso   1.00
C169   C     0.76226   0.96708   0.54087   0.00000  Uiso   1.00
C170   C     0.38644   0.96697   0.66208   0.00000  Uiso   1.00
C171   C     0.76226   0.91876   0.65515   0.00000  Uiso   1.00
C172   C     0.38644   0.91865   0.77635   0.00000  Uiso   1.00
C173   C     0.76226   0.11433   0.62217   0.00000  Uiso   1.00
C174   C     0.38644   0.11422   0.74338   0.00000  Uiso   1.00
C175   C     0.75294   0.03307   0.48694   0.00000  Uiso   1.00
C176   C     0.37712   0.03296   0.60815   0.00000  Uiso   1.00
C177   C     0.75294   0.80486   0.64912   0.00000  Uiso   1.00
C178   C     0.37712   0.80475   0.77032   0.00000  Uiso   1.00
C179   C     0.75294   0.16223   0.68213   0.00000  Uiso   1.00
C180   C     0.37712   0.16212   0.80334   0.00000  Uiso   1.00
C181   C     0.72511   0.02004   0.46096   0.00000  Uiso   1.00
C182   C     0.34929   0.01993   0.58217   0.00000  Uiso   1.00
C183   C     0.72511   0.77241   0.66862   0.00000  Uiso   1.00
C184   C     0.34929   0.77230   0.78983   0.00000  Uiso   1.00
C185   C     0.72511   0.20772   0.68861   0.00000  Uiso   1.00
C186   C     0.34929   0.20760   0.80981   0.00000  Uiso   1.00
C187   C     0.68791   0.96074   0.61917   0.00000  Uiso   1.00
C188   C     0.31209   0.96063   0.74038   0.00000  Uiso   1.00
C189   C     0.68791   0.88273   0.64517   0.00000  Uiso   1.00
C190   C     0.31209   0.88262   0.76638   0.00000  Uiso   1.00
C191   C     0.61121   0.95876   0.43940   0.00000  Uiso   1.00
C192   C     0.61121   0.77070   0.71004   0.00000  Uiso   1.00
C193   C     0.23539   0.77059   0.83125   0.00000  Uiso   1.00
O194   O     0.55442   0.93514   0.49442   0.00000  Uiso   1.00
O195   O     0.17859   0.93503   0.61563   0.00000  Uiso   1.00
O196   O     0.55442   0.86505   0.69434   0.00000  Uiso   1.00
O197   O     0.17859   0.86494   0.81555   0.00000  Uiso   1.00
O198   O     0.55442   0.19998   0.62943   0.00000  Uiso   1.00
O199   O     0.17859   0.19987   0.75063   0.00000  Uiso   1.00
H200   H     0.82379   0.94134   0.57574   0.00000  Uiso   1.00
H201   H     0.44797   0.94123   0.69694   0.00000  Uiso   1.00
H202   H     0.82379   0.98392   0.65058   0.00000  Uiso   1.00
H203   H     0.44797   0.98381   0.77179   0.00000  Uiso   1.00
H204   H     0.82379   0.07490   0.59187   0.00000  Uiso   1.00
H205   H     0.44797   0.07479   0.71308   0.00000  Uiso   1.00
H206   H     0.82424   0.94146   0.53115   0.00000  Uiso   1.00
H207   H     0.44842   0.94135   0.65236   0.00000  Uiso   1.00
H208   H     0.82424   0.91698   0.67282   0.00000  Uiso   1.00
H209   H     0.44842   0.91687   0.79402   0.00000  Uiso   1.00
H210   H     0.82424   0.14172   0.61422   0.00000  Uiso   1.00
H211   H     0.44842   0.14161   0.73543   0.00000  Uiso   1.00
H212   H     0.55414   0.92748   0.43940   0.00000  Uiso   1.00
H213   H     0.55414   0.78635   0.72569   0.00000  Uiso   1.00
H214   H     0.17832   0.78623   0.84689   0.00000  Uiso   1.00
N215   N     0.68791   0.84339   0.65828   0.00000  Uiso   1.00
N216   N     0.31209   0.84328   0.77949   0.00000  Uiso   1.00
C217   C     0.38707   0.46725   0.93368   0.00000  Uiso   1.00
C218   C     0.76289   0.46736   0.81247   0.00000  Uiso   1.00
C219   C     0.38707   0.45668   0.85772   0.00000  Uiso   1.00
C220   C     0.76289   0.45679   0.73651   0.00000  Uiso   1.00
C221   C     0.38707   0.57591   0.89041   0.00000  Uiso   1.00
C222   C     0.76289   0.57602   0.76921   0.00000  Uiso   1.00
C223   C     0.38644   0.46697   0.95913   0.00000  Uiso   1.00
C224   C     0.76226   0.46708   0.83792   0.00000  Uiso   1.00
C225   C     0.38644   0.41865   0.84485   0.00000  Uiso   1.00
C226   C     0.76226   0.41876   0.72365   0.00000  Uiso   1.00
C227   C     0.38644   0.61422   0.87783   0.00000  Uiso   1.00
C228   C     0.76226   0.61433   0.75662   0.00000  Uiso   1.00
C229   C     0.37712   0.53296   0.01306   0.00000  Uiso   1.00
C230   C     0.75294   0.53307   0.89185   0.00000  Uiso   1.00
C231   C     0.37712   0.30475   0.85088   0.00000  Uiso   1.00
C232   C     0.75294   0.30486   0.72968   0.00000  Uiso   1.00
C233   C     0.37712   0.66212   0.81787   0.00000  Uiso   1.00
C234   C     0.75294   0.66223   0.69666   0.00000  Uiso   1.00
C235   C     0.34929   0.51993   0.03904   0.00000  Uiso   1.00
C236   C     0.72511   0.52004   0.91783   0.00000  Uiso   1.00
C237   C     0.34929   0.27230   0.83138   0.00000  Uiso   1.00
C238   C     0.72511   0.27241   0.71017   0.00000  Uiso   1.00
C239   C     0.34929   0.70760   0.81139   0.00000  Uiso   1.00
C240   C     0.72511   0.70772   0.69019   0.00000  Uiso   1.00
C241   C     0.31209   0.46063   0.88083   0.00000  Uiso   1.00
C242   C     0.68791   0.46074   0.75962   0.00000  Uiso   1.00
C243   C     0.31209   0.38262   0.85483   0.00000  Uiso   1.00
C244   C     0.68791   0.38273   0.73362   0.00000  Uiso   1.00
C245   C     0.23539   0.45865   0.06060   0.00000  Uiso   1.00
C246   C     0.23539   0.27059   0.78996   0.00000  Uiso   1.00
C247   C     0.61121   0.27070   0.66875   0.00000  Uiso   1.00
O248   O     0.17859   0.43503   0.00558   0.00000  Uiso   1.00
O249   O     0.55442   0.43514   0.88437   0.00000  Uiso   1.00
O250   O     0.17859   0.36494   0.80566   0.00000  Uiso   1.00
O251   O     0.55442   0.36505   0.68445   0.00000  Uiso   1.00
O252   O     0.17859   0.69987   0.87057   0.00000  Uiso   1.00
O253   O     0.55442   0.69998   0.74937   0.00000  Uiso   1.00
H254   H     0.44797   0.44123   0.92426   0.00000  Uiso   1.00
H255   H     0.82379   0.44134   0.80306   0.00000  Uiso   1.00
H256   H     0.44797   0.48381   0.84942   0.00000  Uiso   1.00
H257   H     0.82379   0.48392   0.72821   0.00000  Uiso   1.00
H258   H     0.44797   0.57479   0.90813   0.00000  Uiso   1.00
H259   H     0.82379   0.57490   0.78692   0.00000  Uiso   1.00
H260   H     0.44842   0.44135   0.96885   0.00000  Uiso   1.00
H261   H     0.82424   0.44146   0.84764   0.00000  Uiso   1.00
H262   H     0.44842   0.41687   0.82718   0.00000  Uiso   1.00
H263   H     0.82424   0.41698   0.70598   0.00000  Uiso   1.00
H264   H     0.44842   0.64161   0.88578   0.00000  Uiso   1.00
H265   H     0.82424   0.64172   0.76457   0.00000  Uiso   1.00
H266   H     0.17832   0.42736   0.06060   0.00000  Uiso   1.00
H267   H     0.17832   0.28623   0.77431   0.00000  Uiso   1.00
H268   H     0.55414   0.28635   0.65311   0.00000  Uiso   1.00
N269   N     0.31209   0.34328   0.84172   0.00000  Uiso   1.00
N270   N     0.68791   0.34339   0.72051   0.00000  Uiso   1.00
C271   C     0.38707   0.96725   0.43368   0.00000  Uiso   1.00
C272   C     0.76289   0.96736   0.31247   0.00000  Uiso   1.00
C273   C     0.38707   0.95668   0.35772   0.00000  Uiso   1.00
C274   C     0.76289   0.95679   0.23651   0.00000  Uiso   1.00
C275   C     0.38707   0.07591   0.39041   0.00000  Uiso   1.00
C276   C     0.76289   0.07602   0.26921   0.00000  Uiso   1.00
C277   C     0.38644   0.96697   0.45913   0.00000  Uiso   1.00
C278   C     0.76226   0.96708   0.33792   0.00000  Uiso   1.00
C279   C     0.38644   0.91865   0.34485   0.00000  Uiso   1.00
C280   C     0.76226   0.91876   0.22365   0.00000  Uiso   1.00
C281   C     0.38644   0.11422   0.37783   0.00000  Uiso   1.00
C282   C     0.76226   0.11433   0.25662   0.00000  Uiso   1.00
C283   C     0.37712   0.03296   0.51306   0.00000  Uiso   1.00
C284   C     0.75294   0.03307   0.39185   0.00000  Uiso   1.00
C285   C     0.37712   0.80475   0.35088   0.00000  Uiso   1.00
C286   C     0.75294   0.80486   0.22968   0.00000  Uiso   1.00
C287   C     0.37712   0.16212   0.31787   0.00000  Uiso   1.00
C288   C     0.75294   0.16223   0.19666   0.00000  Uiso   1.00
C289   C     0.34929   0.01993   0.53904   0.00000  Uiso   1.00
C290   C     0.72511   0.02004   0.41783   0.00000  Uiso   1.00
C291   C     0.34929   0.77230   0.33138   0.00000  Uiso   1.00
C292   C     0.72511   0.77241   0.21017   0.00000  Uiso   1.00
C293   C     0.34929   0.20760   0.31139   0.00000  Uiso   1.00
C294   C     0.72511   0.20772   0.19019   0.00000  Uiso   1.00
C295   C     0.31209   0.96063   0.38083   0.00000  Uiso   1.00
C296   C     0.68791   0.96074   0.25962   0.00000  Uiso   1.00
C297   C     0.31209   0.88262   0.35483   0.00000  Uiso   1.00
C298   C     0.68791   0.88273   0.23362   0.00000  Uiso   1.00
C299   C     0.23539   0.95865   0.56060   0.00000  Uiso   1.00
C300   C     0.23539   0.77059   0.28996   0.00000  Uiso   1.00
C301   C     0.61121   0.77070   0.16875   0.00000  Uiso   1.00
O302   O     0.17859   0.93503   0.50558   0.00000  Uiso   1.00
O303   O     0.55442   0.93514   0.38437   0.00000  Uiso   1.00
O304   O     0.17859   0.86494   0.30566   0.00000  Uiso   1.00
O305   O     0.55442   0.86505   0.18445   0.00000  Uiso   1.00
O306   O     0.17859   0.19987   0.37057   0.00000  Uiso   1.00
O307   O     0.55442   0.19998   0.24937   0.00000  Uiso   1.00
H308   H     0.44797   0.94123   0.42426   0.00000  Uiso   1.00
H309   H     0.82379   0.94134   0.30306   0.00000  Uiso   1.00
H310   H     0.44797   0.98381   0.34942   0.00000  Uiso   1.00
H311   H     0.82379   0.98392   0.22821   0.00000  Uiso   1.00
H312   H     0.44797   0.07479   0.40813   0.00000  Uiso   1.00
H313   H     0.82379   0.07490   0.28692   0.00000  Uiso   1.00
H314   H     0.44842   0.94135   0.46885   0.00000  Uiso   1.00
H315   H     0.82424   0.94146   0.34764   0.00000  Uiso   1.00
H316   H     0.44842   0.91687   0.32718   0.00000  Uiso   1.00
H317   H     0.82424   0.91698   0.20598   0.00000  Uiso   1.00
H318   H     0.44842   0.14161   0.38578   0.00000  Uiso   1.00
H319   H     0.82424   0.14172   0.26457   0.00000  Uiso   1.00
H320   H     0.17832   0.92736   0.56060   0.00000  Uiso   1.00
H321   H     0.17832   0.78623   0.27431   0.00000  Uiso   1.00
H322   H     0.55414   0.78635   0.15311   0.00000  Uiso   1.00
N323   N     0.31209   0.84328   0.34172   0.00000  Uiso   1.00
N324   N     0.68791   0.84339   0.22051   0.00000  Uiso   1.00
C325   C     0.23711   0.53264   0.93368   0.00000  Uiso   1.00
C326   C     0.61293   0.53275   0.81247   0.00000  Uiso   1.00
C327   C     0.23711   0.54321   0.85772   0.00000  Uiso   1.00
C328   C     0.61293   0.54332   0.73651   0.00000  Uiso   1.00
C329   C     0.23711   0.42398   0.89041   0.00000  Uiso   1.00
C330   C     0.61293   0.42409   0.76921   0.00000  Uiso   1.00
C331   C     0.23774   0.53292   0.95913   0.00000  Uiso   1.00
C332   C     0.61356   0.53303   0.83792   0.00000  Uiso   1.00
C333   C     0.23774   0.58124   0.84485   0.00000  Uiso   1.00
C334   C     0.61356   0.58135   0.72365   0.00000  Uiso   1.00
C335   C     0.23774   0.38567   0.87783   0.00000  Uiso   1.00
C336   C     0.61356   0.38578   0.75662   0.00000  Uiso   1.00
C337   C     0.24706   0.46693   0.01306   0.00000  Uiso   1.00
C338   C     0.62288   0.46704   0.89185   0.00000  Uiso   1.00
C339   C     0.24706   0.69514   0.85088   0.00000  Uiso   1.00
C340   C     0.62288   0.69525   0.72968   0.00000  Uiso   1.00
C341   C     0.24706   0.33777   0.81787   0.00000  Uiso   1.00
C342   C     0.62288   0.33788   0.69666   0.00000  Uiso   1.00
C343   C     0.27489   0.47996   0.03904   0.00000  Uiso   1.00
C344   C     0.65071   0.48007   0.91783   0.00000  Uiso   1.00
C345   C     0.27489   0.72759   0.83138   0.00000  Uiso   1.00
C346   C     0.65071   0.72770   0.71017   0.00000  Uiso   1.00
C347   C     0.27489   0.29228   0.81139   0.00000  Uiso   1.00
C348   C     0.65071   0.29240   0.69019   0.00000  Uiso   1.00
C349   C     0.31209   0.53926   0.88083   0.00000  Uiso   1.00
C350   C     0.68791   0.53937   0.75962   0.00000  Uiso   1.00
C351   C     0.31209   0.61727   0.85483   0.00000  Uiso   1.00
C352   C     0.68791   0.61738   0.73362   0.00000  Uiso   1.00
C353   C     0.38879   0.54124   0.06060   0.00000  Uiso   1.00
C354   C     0.38879   0.72930   0.78996   0.00000  Uiso   1.00
C355   C     0.76461   0.72941   0.66875   0.00000  Uiso   1.00
O356   O     0.44558   0.56486   0.00558   0.00000  Uiso   1.00
O357   O     0.82141   0.56497   0.88437   0.00000  Uiso   1.00
O358   O     0.44558   0.63495   0.80566   0.00000  Uiso   1.00
O359   O     0.82141   0.63506   0.68445   0.00000  Uiso   1.00
O360   O     0.44558   0.30002   0.87057   0.00000  Uiso   1.00
O361   O     0.82141   0.30013   0.74937   0.00000  Uiso   1.00
H362   H     0.17621   0.55866   0.92426   0.00000  Uiso   1.00
H363   H     0.55203   0.55877   0.80306   0.00000  Uiso   1.00
H364   H     0.17621   0.51608   0.84942   0.00000  Uiso   1.00
H365   H     0.55203   0.51619   0.72821   0.00000  Uiso   1.00
H366   H     0.17621   0.42510   0.90813   0.00000  Uiso   1.00
H367   H     0.55203   0.42521   0.78692   0.00000  Uiso   1.00
H368   H     0.17576   0.55854   0.96885   0.00000  Uiso   1.00
H369   H     0.55158   0.55865   0.84764   0.00000  Uiso   1.00
H370   H     0.17576   0.58302   0.82718   0.00000  Uiso   1.00
H371   H     0.55158   0.58313   0.70598   0.00000  Uiso   1.00
H372   H     0.17576   0.35828   0.88578   0.00000  Uiso   1.00
H373   H     0.55158   0.35839   0.76457   0.00000  Uiso   1.00
H374   H     0.44586   0.57252   0.06060   0.00000  Uiso   1.00
H375   H     0.44586   0.71365   0.77431   0.00000  Uiso   1.00
H376   H     0.82168   0.71377   0.65311   0.00000  Uiso   1.00
N377   N     0.31209   0.65661   0.84172   0.00000  Uiso   1.00
N378   N     0.68791   0.65672   0.72051   0.00000  Uiso   1.00
C379   C     0.23711   0.03264   0.43368   0.00000  Uiso   1.00
C380   C     0.61293   0.03275   0.31247   0.00000  Uiso   1.00
C381   C     0.23711   0.04321   0.35772   0.00000  Uiso   1.00
C382   C     0.61293   0.04332   0.23651   0.00000  Uiso   1.00
C383   C     0.23711   0.92398   0.39041   0.00000  Uiso   1.00
C384   C     0.61293   0.92409   0.26921   0.00000  Uiso   1.00
C385   C     0.23774   0.03292   0.45913   0.00000  Uiso   1.00
C386   C     0.61356   0.03303   0.33792   0.00000  Uiso   1.00
C387   C     0.23774   0.08124   0.34485   0.00000  Uiso   1.00
C388   C     0.61356   0.08135   0.22365   0.00000  Uiso   1.00
C389   C     0.23774   0.88567   0.37783   0.00000  Uiso   1.00
C390   C     0.61356   0.88578   0.25662   0.00000  Uiso   1.00
C391   C     0.24706   0.96693   0.51306   0.00000  Uiso   1.00
C392   C     0.62288   0.96704   0.39185   0.00000  Uiso   1.00
C393   C     0.24706   0.19514   0.35088   0.00000  Uiso   1.00
C394   C     0.62288   0.19525   0.22968   0.00000  Uiso   1.00
C395   C     0.24706   0.83777   0.31787   0.00000  Uiso   1.00
C396   C     0.62288   0.83788   0.19666   0.00000  Uiso   1.00
C397   C     0.27489   0.97996   0.53904   0.00000  Uiso   1.00
C398   C     0.65071   0.98007   0.41783   0.00000  Uiso   1.00
C399   C     0.27489   0.22759   0.33138   0.00000  Uiso   1.00
C400   C     0.65071   0.22770   0.21017   0.00000  Uiso   1.00
C401   C     0.27489   0.79228   0.31139   0.00000  Uiso   1.00
C402   C     0.65071   0.79240   0.19019   0.00000  Uiso   1.00
C403   C     0.31209   0.03926   0.38083   0.00000  Uiso   1.00
C404   C     0.68791   0.03937   0.25962   0.00000  Uiso   1.00
C405   C     0.31209   0.11727   0.35483   0.00000  Uiso   1.00
C406   C     0.68791   0.11738   0.23362   0.00000  Uiso   1.00
C407   C     0.38879   0.04124   0.56060   0.00000  Uiso   1.00
C408   C     0.38879   0.22930   0.28996   0.00000  Uiso   1.00
C409   C     0.76461   0.22941   0.16875   0.00000  Uiso   1.00
O410   O     0.44558   0.06486   0.50558   0.00000  Uiso   1.00
O411   O     0.82141   0.06497   0.38437   0.00000  Uiso   1.00
O412   O     0.44558   0.13495   0.30566   0.00000  Uiso   1.00
O413   O     0.82141   0.13506   0.18445   0.00000  Uiso   1.00
O414   O     0.44558   0.80002   0.37057   0.00000  Uiso   1.00
O415   O     0.82141   0.80013   0.24937   0.00000  Uiso   1.00
H416   H     0.17621   0.05866   0.42426   0.00000  Uiso   1.00
H417   H     0.55203   0.05877   0.30306   0.00000  Uiso   1.00
H418   H     0.17621   0.01608   0.34942   0.00000  Uiso   1.00
H419   H     0.55203   0.01619   0.22821   0.00000  Uiso   1.00
H420   H     0.17621   0.92510   0.40813   0.00000  Uiso   1.00
H421   H     0.55203   0.92521   0.28692   0.00000  Uiso   1.00
H422   H     0.17576   0.05854   0.46885   0.00000  Uiso   1.00
H423   H     0.55158   0.05865   0.34764   0.00000  Uiso   1.00
H424   H     0.17576   0.08302   0.32718   0.00000  Uiso   1.00
H425   H     0.55158   0.08313   0.20598   0.00000  Uiso   1.00
H426   H     0.17576   0.85828   0.38578   0.00000  Uiso   1.00
H427   H     0.55158   0.85839   0.26457   0.00000  Uiso   1.00
H428   H     0.44586   0.07252   0.56060   0.00000  Uiso   1.00
H429   H     0.44586   0.21365   0.27431   0.00000  Uiso   1.00
H430   H     0.82168   0.21377   0.15311   0.00000  Uiso   1.00
N431   N     0.31209   0.15661   0.34172   0.00000  Uiso   1.00
N432   N     0.68791   0.15672   0.22051   0.00000  Uiso   1.00
C433   C     0.68791   0.50006   0.07985   0.00000  Uiso   1.00
C434   C     0.68791   0.50006   0.02785   0.00000  Uiso   1.00
N435   N     0.68791   0.50006   0.10606   0.00000  Uiso   1.00
N436   N     0.68791   0.50006   0.00162   0.00000  Uiso   1.00
C437   C     0.68791   0.00006   0.57985   0.00000  Uiso   1.00
C438   C     0.68791   0.00006   0.52785   0.00000  Uiso   1.00
N439   N     0.68791   0.00006   0.60606   0.00000  Uiso   1.00
N440   N     0.68791   0.00006   0.50162   0.00000  Uiso   1.00
C441   C     0.31209   0.49994   0.92015   0.00000  Uiso   1.00
C442   C     0.31209   0.49994   0.97215   0.00000  Uiso   1.00
N443   N     0.31209   0.49994   0.89394   0.00000  Uiso   1.00
N444   N     0.31209   0.49994   0.99838   0.00000  Uiso   1.00
C445   C     0.31209  -0.00006   0.42015   0.00000  Uiso   1.00
C446   C     0.31209  -0.00006   0.47215   0.00000  Uiso   1.00
N447   N     0.31209  -0.00006   0.39394   0.00000  Uiso   1.00
N448   N     0.31209  -0.00006   0.49838   0.00000  Uiso   1.00
C449   C     0.31209   0.49994   0.20106   0.00000  Uiso   1.00
C450   C     0.31209   0.49994   0.14906   0.00000  Uiso   1.00
N451   N     0.31209   0.49994   0.22727   0.00000  Uiso   1.00
N452   N     0.31209   0.49994   0.12283   0.00000  Uiso   1.00
C453   C     0.31209  -0.00006   0.70106   0.00000  Uiso   1.00
C454   C     0.31209  -0.00006   0.64906   0.00000  Uiso   1.00
N455   N     0.31209  -0.00006   0.72727   0.00000  Uiso   1.00
N456   N     0.31209  -0.00006   0.62283   0.00000  Uiso   1.00
C457   C     0.68791   0.50006   0.79894   0.00000  Uiso   1.00
C458   C     0.68791   0.50006   0.85094   0.00000  Uiso   1.00
N459   N     0.68791   0.50006   0.77273   0.00000  Uiso   1.00
N460   N     0.68791   0.50006   0.87717   0.00000  Uiso   1.00
C461   C     0.68791   0.00006   0.29894   0.00000  Uiso   1.00
C462   C     0.68791   0.00006   0.35094   0.00000  Uiso   1.00
N463   N     0.68791   0.00006   0.27273   0.00000  Uiso   1.00
N464   N     0.68791   0.00006   0.37717   0.00000  Uiso   1.00
loop_
_geom_bond_atom_site_label_1
_geom_bond_atom_site_label_2
_geom_bond_distance
_geom_bond_site_symmetry_2
_ccdc_geom_bond_type
C1     C7      1.396   .     D
C1     H38     1.089   .     S
C1     C433    1.409   .     S
C2     C8      1.396   .     S
C2     H39     1.088   .     S
C2     C449    1.409   .     D
C3     C9      1.396   .     S
C3     C25     1.409   .     D
C3     H40     1.088   .     S
C4     C10     1.395   .     S
C4     C26     1.409   .     D
C4     H41     1.088   .     S
C5     C11     1.395   .     D
C5     H42     1.089   .     S
C5     C133    1.409   .     S
C6     C12     1.396   .     D
C6     H43     1.088   .     S
C6     C134    1.409   .     S
C7     H44     1.091   .     S
C7     C434    1.399   .     S
C8     H45     1.091   .     S
C8     C450    1.399   .     D
C9     C27     1.399   .     D
C9     H46     1.091   .     S
C10    C28     1.399   .     D
C10    H47     1.091   .     S
C11    H48     1.091   .     S
C11    C135    1.399   .     S
C12    H49     1.091   .     S
C12    C136    1.399   .     S
C13    C19     1.500   .     S
C13    O140    1.221   .     D
C13    N436    1.419   1_556 S
C14    C20     1.500   .     S
C14    O141    1.221   .     D
C14    N452    1.419   .     S
C15    C21     1.500   .     S
C15    N53     1.419   .     S
C15    O144    1.221   .     D
C16    C22     1.500   .     S
C16    N54     1.419   .     S
C16    O145    1.221   .     D
C17    C23     1.500   .     S
C17    O142    1.221   .     D
C17    N161    1.419   .     S
C18    C24     1.500   .     S
C18    O143    1.221   .     D
C18    N162    1.419   .     S
C19    C127    1.400   .     S
C19    C137    1.398   .     D
C20    C128    1.400   .     S
C20    C245    1.398   .     D
C21    C131    1.400   .     S
C21    C301    1.398   .     D
C22    C132    1.399   .     S
C22    C300    1.398   .     D
C23    C129    1.400   .     D
C23    C138    1.398   .     S
C24    C130    1.399   .     D
C24    C139    1.398   .     S
C25    C113    1.409   .     S
C25    N435    1.437   .     S
C26    C114    1.409   .     S
C26    N451    1.438   .     S
C27    N53     1.438   .     S
C27    C119    1.399   .     S
C28    N54     1.438   .     S
C28    C120    1.399   .     S
C29    H50     1.092   .     S
C29    C127    1.398   .     D
C29    C236    1.398   .     S
C30    H51     1.092   .     S
C30    C131    1.398   .     D
C30    C292    1.398   .     S
C31    H52     1.091   .     S
C31    C132    1.398   .     D
C31    C291    1.398   .     S
O32    C121    1.221   .     D
O33    C122    1.221   .     D
O34    C125    1.221   .     D
O35    C126    1.221   .     D
O36    C123    1.221   .     D
O37    C124    1.221   .     D
N53    C125    1.419   .     S
N54    C126    1.419   .     S
C55    C61     1.396   .     S
C55    H92     1.089   .     S
C55    C437    1.409   .     D
C56    C62     1.396   .     D
C56    H93     1.088   .     S
C56    C453    1.409   .     S
C57    C63     1.396   .     S
C57    C79     1.409   .     D
C57    H94     1.088   .     S
C58    C64     1.395   .     S
C58    C80     1.409   .     D
C58    H95     1.088   .     S
C59    C65     1.395   .     D
C59    H96     1.089   .     S
C59    C187    1.409   .     S
C60    C66     1.396   .     S
C60    H97     1.088   .     S
C60    C188    1.409   .     D
C61    H98     1.091   .     S
C61    C438    1.399   .     D
C62    H99     1.091   .     S
C62    C454    1.399   .     S
C63    C81     1.399   .     D
C63    H100    1.091   .     S
C64    C82     1.399   .     D
C64    H101    1.091   .     S
C65    H102    1.091   .     S
C65    C189    1.399   .     S
C66    H103    1.091   .     S
C66    C190    1.399   .     D
C67    C73     1.500   .     S
C67    O194    1.221   .     D
C67    N440    1.419   1_565 S
C68    C74     1.500   .     S
C68    O195    1.221   .     D
C68    N456    1.419   1_565 S
C69    C75     1.500   .     S
C69    N107    1.419   .     S
C69    O198    1.221   .     D
C70    C76     1.500   .     S
C70    N108    1.419   .     S
C70    O199    1.221   .     D
C71    C77     1.500   .     S
C71    O196    1.221   .     D
C71    N215    1.419   .     S
C72    C78     1.500   .     S
C72    O197    1.221   .     D
C72    N216    1.419   .     S
C73    C181    1.400   1_565 S
C73    C191    1.398   .     D
C74    C182    1.400   1_565 D
C74    C299    1.398   .     S
C75    C185    1.400   .     S
C75    C247    1.398   .     D
C76    C186    1.399   .     S
C76    C246    1.398   .     D
C77    C183    1.400   .     S
C77    C192    1.398   .     D
C78    C184    1.399   .     S
C78    C193    1.398   .     D
C79    C167    1.409   .     S
C79    N439    1.437   .     S
C80    C168    1.409   .     S
C80    N455    1.438   .     S
C81    N107    1.438   .     S
C81    C173    1.399   .     S
C82    N108    1.438   .     S
C82    C174    1.399   .     S
C83    H104    1.092   .     S
C83    C181    1.398   .     D
C83    C290    1.398   .     S
C84    H105    1.092   .     S
C84    C185    1.398   .     D
C84    C238    1.398   .     S
C85    H106    1.091   .     S
C85    C186    1.398   .     D
C85    C237    1.398   .     S
O86    C175    1.221   .     D
O87    C176    1.221   .     D
O88    C179    1.221   .     D
O89    C180    1.221   .     D
O90    C177    1.221   .     D
O91    C178    1.221   .     D
N107   C179    1.419   .     S
N108   C180    1.419   .     S
C109   C115    1.396   .     S
C109   H146    1.089   .     S
C109   C433    1.409   .     D
C110   C116    1.396   .     D
C110   H147    1.088   .     S
C110   C449    1.409   .     S
C111   C117    1.396   .     S
C111   C133    1.409   .     D
C111   H148    1.088   .     S
C112   C118    1.395   .     S
C112   C134    1.409   .     D
C112   H149    1.088   .     S
C113   C119    1.395   .     D
C113   H150    1.089   .     S
C114   C120    1.396   .     D
C114   H151    1.088   .     S
C115   H152    1.091   .     S
C115   C434    1.399   .     D
C116   H153    1.091   .     S
C116   C450    1.399   .     S
C117   C135    1.399   .     D
C117   H154    1.091   .     S
C118   C136    1.399   .     D
C118   H155    1.091   .     S
C119   H156    1.091   .     S
C120   H157    1.091   .     S
C121   C127    1.500   .     S
C121   N436    1.419   1_556 S
C122   C128    1.500   .     S
C122   N452    1.419   .     S
C123   C129    1.500   .     S
C123   N161    1.419   .     S
C124   C130    1.500   .     S
C124   N162    1.419   .     S
C125   C131    1.500   .     S
C126   C132    1.500   .     S
C128   C353    1.398   .     D
C129   C409    1.398   .     S
C130   C408    1.398   .     S
C133   N435    1.438   .     S
C134   N451    1.437   .     S
C135   N161    1.438   .     S
C136   N162    1.438   .     S
C137   H158    1.091   .     S
C137   C344    1.398   .     S
C138   H159    1.092   .     S
C138   C400    1.398   .     D
C139   H160    1.091   .     S
C139   C399    1.398   .     D
C163   C169    1.396   .     D
C163   H200    1.089   .     S
C163   C437    1.409   1_565 S
C164   C170    1.396   .     S
C164   H201    1.088   .     S
C164   C453    1.409   1_565 D
C165   C171    1.396   .     S
C165   C187    1.409   .     D
C165   H202    1.088   .     S
C166   C172    1.395   .     D
C166   C188    1.409   .     S
C166   H203    1.088   .     S
C167   C173    1.395   .     D
C167   H204    1.089   .     S
C168   C174    1.396   .     D
C168   H205    1.088   .     S
C169   H206    1.091   .     S
C169   C438    1.399   1_565 S
C170   H207    1.091   .     S
C170   C454    1.399   1_565 D
C171   C189    1.399   .     D
C171   H208    1.091   .     S
C172   C190    1.399   .     S
C172   H209    1.091   .     S
C173   H210    1.091   .     S
C174   H211    1.091   .     S
C175   C181    1.500   .     S
C175   N440    1.419   .     S
C176   C182    1.500   .     S
C176   N456    1.419   .     S
C177   C183    1.500   .     S
C177   N215    1.419   .     S
C178   C184    1.500   .     S
C178   N216    1.419   .     S
C179   C185    1.500   .     S
C180   C186    1.500   .     S
C181   C73     1.400   1_545 S
C182   C74     1.400   1_545 D
C182   C407    1.398   .     S
C183   C355    1.398   .     D
C184   C354    1.398   .     D
C187   N439    1.438   1_565 S
C188   N455    1.437   1_565 S
C189   N215    1.438   .     S
C190   N216    1.438   .     S
C191   H212    1.091   .     S
C191   C398    1.398   .     S
C192   H213    1.092   .     S
C192   C346    1.398   .     S
C193   H214    1.091   .     S
C193   C345    1.398   .     S
C217   C223    1.396   .     D
C217   H254    1.089   .     S
C217   C441    1.409   .     S
C218   C224    1.396   .     D
C218   H255    1.088   .     S
C218   C457    1.409   .     S
C219   C225    1.396   .     S
C219   C241    1.409   .     D
C219   H256    1.088   .     S
C220   C226    1.395   .     S
C220   C242    1.409   .     D
C220   H257    1.088   .     S
C221   C227    1.395   .     D
C221   H258    1.089   .     S
C221   C349    1.409   .     S
C222   C228    1.396   .     D
C222   H259    1.088   .     S
C222   C350    1.409   .     S
C223   H260    1.091   .     S
C223   C442    1.399   .     S
C224   H261    1.091   .     S
C224   C458    1.399   .     S
C225   C243    1.399   .     D
C225   H262    1.091   .     S
C226   C244    1.399   .     D
C226   H263    1.091   .     S
C227   H264    1.091   .     S
C227   C351    1.399   .     S
C228   H265    1.091   .     S
C228   C352    1.399   .     S
C229   C235    1.500   .     S
C229   O356    1.221   .     D
C229   N444    1.419   1_554 S
C230   C236    1.500   .     S
C230   O357    1.221   .     D
C230   N460    1.419   .     S
C231   C237    1.500   .     S
C231   N269    1.419   .     S
C231   O360    1.221   .     D
C232   C238    1.500   .     S
C232   N270    1.419   .     S
C232   O361    1.221   .     D
C233   C239    1.500   .     S
C233   O358    1.221   .     D
C233   N377    1.419   .     S
C234   C240    1.500   .     S
C234   O359    1.221   .     D
C234   N378    1.419   .     S
C235   C343    1.400   .     D
C235   C353    1.398   .     S
C236   C344    1.400   .     D
C237   C347    1.400   .     D
C238   C348    1.399   .     D
C239   C345    1.400   .     D
C239   C354    1.398   .     S
C240   C346    1.399   .     D
C240   C355    1.398   .     S
C241   C329    1.409   .     S
C241   N443    1.437   .     S
C242   C330    1.409   .     S
C242   N459    1.438   .     S
C243   N269    1.438   .     S
C243   C335    1.399   .     S
C244   N270    1.438   .     S
C244   C336    1.399   .     S
C245   H266    1.092   .     S
C245   C343    1.398   .     S
C246   H267    1.092   .     S
C246   C347    1.398   .     S
C247   H268    1.091   .     S
C247   C348    1.398   .     S
O248   C337    1.221   .     D
O249   C338    1.221   .     D
O250   C341    1.221   .     D
O251   C342    1.221   .     D
O252   C339    1.221   .     D
O253   C340    1.221   .     D
N269   C341    1.419   .     S
N270   C342    1.419   .     S
C271   C277    1.396   .     S
C271   H308    1.089   .     S
C271   C445    1.409   1_565 D
C272   C278    1.396   .     D
C272   H309    1.088   .     S
C272   C461    1.409   1_565 S
C273   C279    1.396   .     S
C273   C295    1.409   .     D
C273   H310    1.088   .     S
C274   C280    1.395   .     S
C274   C296    1.409   .     D
C274   H311    1.088   .     S
C275   C281    1.395   .     D
C275   H312    1.089   .     S
C275   C403    1.409   .     S
C276   C282    1.396   .     S
C276   H313    1.088   .     S
C276   C404    1.409   .     D
C277   H314    1.091   .     S
C277   C446    1.399   1_565 D
C278   H315    1.091   .     S
C278   C462    1.399   1_565 S
C279   C297    1.399   .     D
C279   H316    1.091   .     S
C280   C298    1.399   .     D
C280   H317    1.091   .     S
C281   H318    1.091   .     S
C281   C405    1.399   .     S
C282   H319    1.091   .     S
C282   C406    1.399   .     D
C283   C289    1.500   .     S
C283   O410    1.221   .     D
C283   N448    1.419   .     S
C284   C290    1.500   .     S
C284   O411    1.221   .     D
C284   N464    1.419   .     S
C285   C291    1.500   .     S
C285   N323    1.419   .     S
C285   O414    1.221   .     D
C286   C292    1.500   .     S
C286   N324    1.419   .     S
C286   O415    1.221   .     D
C287   C293    1.500   .     S
C287   O412    1.221   .     D
C287   N431    1.419   .     S
C288   C294    1.500   .     S
C288   O413    1.221   .     D
C288   N432    1.419   .     S
C289   C397    1.400   1_545 S
C289   C407    1.398   .     D
C290   C398    1.400   1_545 D
C291   C401    1.400   .     D
C292   C402    1.399   .     D
C293   C399    1.400   .     S
C293   C408    1.398   .     D
C294   C400    1.399   .     S
C294   C409    1.398   .     D
C295   C383    1.409   .     S
C295   N447    1.437   1_565 S
C296   C384    1.409   .     S
C296   N463    1.438   1_565 S
C297   N323    1.438   .     S
C297   C389    1.399   .     S
C298   N324    1.438   .     S
C298   C390    1.399   .     S
C299   H320    1.092   .     S
C299   C397    1.398   .     D
C300   H321    1.092   .     S
C300   C401    1.398   .     S
C301   H322    1.091   .     S
C301   C402    1.398   .     S
O302   C391    1.221   .     D
O303   C392    1.221   .     D
O304   C395    1.221   .     D
O305   C396    1.221   .     D
O306   C393    1.221   .     D
O307   C394    1.221   .     D
N323   C395    1.419   .     S
N324   C396    1.419   .     S
C325   C331    1.396   .     S
C325   H362    1.089   .     S
C325   C441    1.409   .     D
C326   C332    1.396   .     S
C326   H363    1.088   .     S
C326   C457    1.409   .     D
C327   C333    1.396   .     S
C327   C349    1.409   .     D
C327   H364    1.088   .     S
C328   C334    1.395   .     S
C328   C350    1.409   .     D
C328   H365    1.088   .     S
C329   C335    1.395   .     D
C329   H366    1.089   .     S
C330   C336    1.396   .     D
C330   H367    1.088   .     S
C331   H368    1.091   .     S
C331   C442    1.399   .     D
C332   H369    1.091   .     S
C332   C458    1.399   .     D
C333   C351    1.399   .     D
C333   H370    1.091   .     S
C334   C352    1.399   .     D
C334   H371    1.091   .     S
C335   H372    1.091   .     S
C336   H373    1.091   .     S
C337   C343    1.500   .     S
C337   N444    1.419   1_554 S
C338   C344    1.500   .     S
C338   N460    1.419   .     S
C339   C345    1.500   .     S
C339   N377    1.419   .     S
C340   C346    1.500   .     S
C340   N378    1.419   .     S
C341   C347    1.500   .     S
C342   C348    1.500   .     S
C349   N443    1.438   .     S
C350   N459    1.437   .     S
C351   N377    1.438   .     S
C352   N378    1.438   .     S
C353   H374    1.091   .     S
C354   H375    1.092   .     S
C355   H376    1.091   .     S
C379   C385    1.396   .     D
C379   H416    1.089   .     S
C379   C445    1.409   .     S
C380   C386    1.396   .     S
C380   H417    1.088   .     S
C380   C461    1.409   .     D
C381   C387    1.396   .     S
C381   C403    1.409   .     D
C381   H418    1.088   .     S
C382   C388    1.395   .     D
C382   C404    1.409   .     S
C382   H419    1.088   .     S
C383   C389    1.395   .     D
C383   H420    1.089   .     S
C384   C390    1.396   .     D
C384   H421    1.088   .     S
C385   H422    1.091   .     S
C385   C446    1.399   .     S
C386   H423    1.091   .     S
C386   C462    1.399   .     D
C387   C405    1.399   .     D
C387   H424    1.091   .     S
C388   C406    1.399   .     S
C388   H425    1.091   .     S
C389   H426    1.091   .     S
C390   H427    1.091   .     S
C391   C397    1.500   .     S
C391   N448    1.419   1_565 S
C392   C398    1.500   .     S
C392   N464    1.419   1_565 S
C393   C399    1.500   .     S
C393   N431    1.419   .     S
C394   C400    1.500   .     S
C394   N432    1.419   .     S
C395   C401    1.500   .     S
C396   C402    1.500   .     S
C397   C289    1.400   1_565 S
C398   C290    1.400   1_565 D
C403   N447    1.438   .     S
C404   N463    1.437   .     S
C405   N431    1.438   .     S
C406   N432    1.438   .     S
C407   H428    1.091   .     S
C408   H429    1.092   .     S
C409   H430    1.091   .     S
C433   N435    1.437   .     S
C434   N436    1.438   .     S
N436   C121    1.419   1_554 S
N436   C13     1.419   1_554 S
C437   C163    1.409   1_545 S
C437   N439    1.437   .     S
C438   C169    1.399   1_545 S
C438   N440    1.438   .     S
N439   C187    1.438   1_545 S
N440   C67     1.419   1_545 S
C441   N443    1.437   .     S
C442   N444    1.438   .     S
N444   C229    1.419   1_556 S
N444   C337    1.419   1_556 S
C445   C271    1.409   1_545 D
C445   N447    1.437   .     S
C446   C277    1.399   1_545 D
C446   N448    1.438   .     S
N447   C295    1.437   1_545 S
N448   C391    1.419   1_545 S
C449   N451    1.437   .     S
C450   N452    1.438   .     S
C453   C164    1.409   1_545 D
C453   N455    1.437   .     S
C454   C170    1.399   1_545 D
C454   N456    1.438   .     S
N455   C188    1.437   1_545 S
N456   C68     1.419   1_545 S
C457   N459    1.437   .     S
C458   N460    1.438   .     S
C461   C272    1.409   1_545 S
C461   N463    1.437   .     S
C462   C278    1.399   1_545 S
C462   N464    1.438   .     S
N463   C296    1.438   1_545 S
N464   C392    1.419   1_545 S
