data_360
_audit_creation_date              2023-09-08
_audit_creation_method            'Materials Studio'
_symmetry_space_group_name_H-M    'P1'
_symmetry_Int_Tables_number       1
_symmetry_cell_setting            triclinic
loop_
_symmetry_equiv_pos_as_xyz
  x,y,z
_cell_length_a                    37.2373
_cell_length_b                    64.4969
_cell_length_c                    6.2482
_cell_angle_alpha                 90.0000
_cell_angle_beta                  90.0000
_cell_angle_gamma                 90.0000
loop_
_atom_site_label
_atom_site_type_symbol
_atom_site_fract_x
_atom_site_fract_y
_atom_site_fract_z
_atom_site_U_iso_or_equiv
_atom_site_adp_type
_atom_site_occupancy
C1     C     0.53327   0.23885   0.75000   0.00000  Uiso   1.00
C2     C     0.03327   0.73885   0.75000   0.00000  Uiso   1.00
C3     C     0.46673   0.76115   0.25000   0.00000  Uiso   1.00
C4     C     0.96673   0.26115   0.25000   0.00000  Uiso   1.00
C5     C     0.46673   0.23885   0.75000   0.00000  Uiso   1.00
C6     C     0.96673   0.73885   0.75000   0.00000  Uiso   1.00
C7     C     0.53327   0.76115   0.25000   0.00000  Uiso   1.00
C8     C     0.03327   0.26115   0.25000   0.00000  Uiso   1.00
C9     C     0.56878   0.22701   0.75000   0.00000  Uiso   1.00
C10    C     0.06878   0.72701   0.75000   0.00000  Uiso   1.00
C11    C     0.43122   0.77299   0.25000   0.00000  Uiso   1.00
C12    C     0.93122   0.27299   0.25000   0.00000  Uiso   1.00
C13    C     0.43122   0.22701   0.75000   0.00000  Uiso   1.00
C14    C     0.93122   0.72701   0.75000   0.00000  Uiso   1.00
C15    C     0.56878   0.77299   0.25000   0.00000  Uiso   1.00
C16    C     0.06878   0.27299   0.25000   0.00000  Uiso   1.00
C17    C     0.93123   0.10615   0.75000   0.00000  Uiso   1.00
C18    C     0.43123   0.60615   0.75000   0.00000  Uiso   1.00
C19    C     0.06877   0.89385   0.25000   0.00000  Uiso   1.00
C20    C     0.56877   0.39385   0.25000   0.00000  Uiso   1.00
C21    C     0.06877   0.10615   0.75000   0.00000  Uiso   1.00
C22    C     0.56877   0.60615   0.75000   0.00000  Uiso   1.00
C23    C     0.93123   0.89385   0.25000   0.00000  Uiso   1.00
C24    C     0.43123   0.39385   0.25000   0.00000  Uiso   1.00
C25    C     0.96669   0.09428   0.75000   0.00000  Uiso   1.00
C26    C     0.46669   0.59428   0.75000   0.00000  Uiso   1.00
C27    C     0.03331   0.90572   0.25000   0.00000  Uiso   1.00
C28    C     0.53331   0.40572   0.25000   0.00000  Uiso   1.00
C29    C     0.03331   0.09428   0.75000   0.00000  Uiso   1.00
C30    C     0.53331   0.59428   0.75000   0.00000  Uiso   1.00
C31    C     0.96669   0.90572   0.25000   0.00000  Uiso   1.00
C32    C     0.46669   0.40572   0.25000   0.00000  Uiso   1.00
C33    C     0.53232   0.26073   0.75000   0.00000  Uiso   1.00
C34    C     0.03232   0.76073   0.75000   0.00000  Uiso   1.00
C35    C     0.46768   0.73927   0.25000   0.00000  Uiso   1.00
C36    C     0.96768   0.23927   0.25000   0.00000  Uiso   1.00
C37    C     0.46768   0.26073   0.75000   0.00000  Uiso   1.00
C38    C     0.96768   0.76073   0.75000   0.00000  Uiso   1.00
C39    C     0.53232   0.73927   0.25000   0.00000  Uiso   1.00
C40    C     0.03232   0.23927   0.25000   0.00000  Uiso   1.00
C41    C     0.57010   0.20509   0.75000   0.00000  Uiso   1.00
C42    C     0.07010   0.70509   0.75000   0.00000  Uiso   1.00
C43    C     0.42990   0.79491   0.25000   0.00000  Uiso   1.00
C44    C     0.92990   0.29491   0.25000   0.00000  Uiso   1.00
C45    C     0.42990   0.20509   0.75000   0.00000  Uiso   1.00
C46    C     0.92990   0.70509   0.75000   0.00000  Uiso   1.00
C47    C     0.57010   0.79491   0.25000   0.00000  Uiso   1.00
C48    C     0.07010   0.29491   0.25000   0.00000  Uiso   1.00
C49    C     0.60261   0.19429   0.75000   0.00000  Uiso   1.00
C50    C     0.10261   0.69429   0.75000   0.00000  Uiso   1.00
C51    C     0.39739   0.80571   0.25000   0.00000  Uiso   1.00
C52    C     0.89739   0.30571   0.25000   0.00000  Uiso   1.00
C53    C     0.39739   0.19429   0.75000   0.00000  Uiso   1.00
C54    C     0.89739   0.69429   0.75000   0.00000  Uiso   1.00
C55    C     0.60261   0.80571   0.25000   0.00000  Uiso   1.00
C56    C     0.10261   0.30571   0.25000   0.00000  Uiso   1.00
C57    C     0.73254   0.18557   0.75000   0.00000  Uiso   1.00
C58    C     0.23254   0.68558   0.75000   0.00000  Uiso   1.00
C59    C     0.26746   0.81443   0.25000   0.00000  Uiso   1.00
C60    C     0.76746   0.31443   0.25000   0.00000  Uiso   1.00
C61    C     0.26746   0.18557   0.75000   0.00000  Uiso   1.00
C62    C     0.76746   0.68558   0.75000   0.00000  Uiso   1.00
C63    C     0.73254   0.81443   0.25000   0.00000  Uiso   1.00
C64    C     0.23254   0.31443   0.25000   0.00000  Uiso   1.00
C65    C     0.73122   0.14784   0.75000   0.00000  Uiso   1.00
C66    C     0.23122   0.64784   0.75000   0.00000  Uiso   1.00
C67    C     0.26878   0.85216   0.25000   0.00000  Uiso   1.00
C68    C     0.76878   0.35216   0.25000   0.00000  Uiso   1.00
C69    C     0.26878   0.14784   0.75000   0.00000  Uiso   1.00
C70    C     0.76878   0.64784   0.75000   0.00000  Uiso   1.00
C71    C     0.73122   0.85216   0.25000   0.00000  Uiso   1.00
C72    C     0.23122   0.35216   0.25000   0.00000  Uiso   1.00
C73    C     0.76884   0.14855   0.75000   0.00000  Uiso   1.00
C74    C     0.26884   0.64855   0.75000   0.00000  Uiso   1.00
C75    C     0.23116   0.85145   0.25000   0.00000  Uiso   1.00
C76    C     0.73116   0.35145   0.25000   0.00000  Uiso   1.00
C77    C     0.23116   0.14855   0.75000   0.00000  Uiso   1.00
C78    C     0.73116   0.64855   0.75000   0.00000  Uiso   1.00
C79    C     0.76884   0.85145   0.25000   0.00000  Uiso   1.00
C80    C     0.26884   0.35145   0.25000   0.00000  Uiso   1.00
C81    C     0.79569   0.13221   0.75000   0.00000  Uiso   1.00
C82    C     0.29569   0.63221   0.75000   0.00000  Uiso   1.00
C83    C     0.20431   0.86779   0.25000   0.00000  Uiso   1.00
C84    C     0.70431   0.36779   0.25000   0.00000  Uiso   1.00
C85    C     0.20431   0.13221   0.75000   0.00000  Uiso   1.00
C86    C     0.70431   0.63221   0.75000   0.00000  Uiso   1.00
C87    C     0.79569   0.86779   0.25000   0.00000  Uiso   1.00
C88    C     0.29569   0.36779   0.25000   0.00000  Uiso   1.00
C89    C     0.86524   0.10683   0.75000   0.00000  Uiso   1.00
C90    C     0.36524   0.60683   0.75000   0.00000  Uiso   1.00
C91    C     0.13476   0.89317   0.25000   0.00000  Uiso   1.00
C92    C     0.63476   0.39317   0.25000   0.00000  Uiso   1.00
C93    C     0.13476   0.10683   0.75000   0.00000  Uiso   1.00
C94    C     0.63476   0.60683   0.75000   0.00000  Uiso   1.00
C95    C     0.86524   0.89317   0.25000   0.00000  Uiso   1.00
C96    C     0.36524   0.39317   0.25000   0.00000  Uiso   1.00
C97    C     0.89766   0.09591   0.75000   0.00000  Uiso   1.00
C98    C     0.39766   0.59591   0.75000   0.00000  Uiso   1.00
C99    C     0.10234   0.90409   0.25000   0.00000  Uiso   1.00
C100   C     0.60234   0.40409   0.25000   0.00000  Uiso   1.00
C101   C     0.10234   0.09591   0.75000   0.00000  Uiso   1.00
C102   C     0.60234   0.59591   0.75000   0.00000  Uiso   1.00
C103   C     0.89766   0.90409   0.25000   0.00000  Uiso   1.00
C104   C     0.39766   0.40409   0.25000   0.00000  Uiso   1.00
C105   C     0.53220   0.32911   0.75000   0.00000  Uiso   1.00
C106   C     0.03220   0.82911   0.75000   0.00000  Uiso   1.00
C107   C     0.46781   0.67089   0.25000   0.00000  Uiso   1.00
C108   C     0.96781   0.17089   0.25000   0.00000  Uiso   1.00
C109   C     0.46781   0.32911   0.75000   0.00000  Uiso   1.00
C110   C     0.96781   0.82911   0.75000   0.00000  Uiso   1.00
C111   C     0.53220   0.67089   0.25000   0.00000  Uiso   1.00
C112   C     0.03220   0.17089   0.25000   0.00000  Uiso   1.00
C113   C     0.47064   0.37659   0.75000   0.00000  Uiso   1.00
C114   C     0.97064   0.87659   0.75000   0.00000  Uiso   1.00
C115   C     0.52936   0.62341   0.25000   0.00000  Uiso   1.00
C116   C     0.02936   0.12341   0.25000   0.00000  Uiso   1.00
C117   C     0.52936   0.37659   0.75000   0.00000  Uiso   1.00
C118   C     0.02936   0.87659   0.75000   0.00000  Uiso   1.00
C119   C     0.47064   0.62341   0.25000   0.00000  Uiso   1.00
C120   C     0.97064   0.12341   0.25000   0.00000  Uiso   1.00
C121   C     0.51848   0.43502   0.75000   0.00000  Uiso   1.00
C122   C     0.01848   0.93502   0.75000   0.00000  Uiso   1.00
C123   C     0.48152   0.56498   0.25000   0.00000  Uiso   1.00
C124   C     0.98152   0.06498   0.25000   0.00000  Uiso   1.00
C125   C     0.48152   0.43502   0.75000   0.00000  Uiso   1.00
C126   C     0.98152   0.93502   0.75000   0.00000  Uiso   1.00
C127   C     0.51848   0.56498   0.25000   0.00000  Uiso   1.00
C128   C     0.01848   0.06498   0.25000   0.00000  Uiso   1.00
C129   C     0.52936   0.45664   0.75000   0.00000  Uiso   1.00
C130   C     0.02936   0.95664   0.75000   0.00000  Uiso   1.00
C131   C     0.47064   0.54336   0.25000   0.00000  Uiso   1.00
C132   C     0.97064   0.04336   0.25000   0.00000  Uiso   1.00
C133   C     0.47064   0.45664   0.75000   0.00000  Uiso   1.00
C134   C     0.97064   0.95664   0.75000   0.00000  Uiso   1.00
C135   C     0.52936   0.54336   0.25000   0.00000  Uiso   1.00
C136   C     0.02936   0.04336   0.25000   0.00000  Uiso   1.00
C137   C     0.53219   0.50407   0.75000   0.00000  Uiso   1.00
C138   C     0.03219   0.00407   0.75000   0.00000  Uiso   1.00
C139   C     0.46781   0.49593   0.25000   0.00000  Uiso   1.00
C140   C     0.96781   0.99593   0.25000   0.00000  Uiso   1.00
C141   C     0.46781   0.50407   0.75000   0.00000  Uiso   1.00
C142   C     0.96781   0.00407   0.75000   0.00000  Uiso   1.00
C143   C     0.53219   0.49593   0.25000   0.00000  Uiso   1.00
C144   C     0.03219   0.99593   0.25000   0.00000  Uiso   1.00
C145   C     0.53222   0.52572   0.75000   0.00000  Uiso   1.00
C146   C     0.03222   0.02572   0.75000   0.00000  Uiso   1.00
C147   C     0.46778   0.47428   0.25000   0.00000  Uiso   1.00
C148   C     0.96778   0.97428   0.25000   0.00000  Uiso   1.00
C149   C     0.46778   0.52572   0.75000   0.00000  Uiso   1.00
C150   C     0.96778   0.02572   0.75000   0.00000  Uiso   1.00
C151   C     0.53222   0.47428   0.25000   0.00000  Uiso   1.00
C152   C     0.03222   0.97428   0.25000   0.00000  Uiso   1.00
C153   C     0.36522   0.22649   0.75000   0.00000  Uiso   1.00
C154   C     0.86522   0.72649   0.75000   0.00000  Uiso   1.00
C155   C     0.63478   0.77351   0.25000   0.00000  Uiso   1.00
C156   C     0.13478   0.27352   0.25000   0.00000  Uiso   1.00
C157   C     0.63478   0.22649   0.75000   0.00000  Uiso   1.00
C158   C     0.13478   0.72649   0.75000   0.00000  Uiso   1.00
C159   C     0.36522   0.77351   0.25000   0.00000  Uiso   1.00
C160   C     0.86522   0.27352   0.25000   0.00000  Uiso   1.00
C161   C     0.32432   0.17227   0.75000   0.00000  Uiso   1.00
C162   C     0.82432   0.67227   0.75000   0.00000  Uiso   1.00
C163   C     0.67568   0.82773   0.25000   0.00000  Uiso   1.00
C164   C     0.17568   0.32773   0.25000   0.00000  Uiso   1.00
C165   C     0.67568   0.17227   0.75000   0.00000  Uiso   1.00
C166   C     0.17568   0.67227   0.75000   0.00000  Uiso   1.00
C167   C     0.32432   0.82773   0.25000   0.00000  Uiso   1.00
C168   C     0.82432   0.32773   0.25000   0.00000  Uiso   1.00
C169   C     0.28625   0.16711   0.75000   0.00000  Uiso   1.00
C170   C     0.78625   0.66711   0.75000   0.00000  Uiso   1.00
C171   C     0.71375   0.83289   0.25000   0.00000  Uiso   1.00
C172   C     0.21375   0.33289   0.25000   0.00000  Uiso   1.00
C173   C     0.71375   0.16711   0.75000   0.00000  Uiso   1.00
C174   C     0.21375   0.66711   0.75000   0.00000  Uiso   1.00
C175   C     0.28625   0.83289   0.25000   0.00000  Uiso   1.00
C176   C     0.78625   0.33289   0.25000   0.00000  Uiso   1.00
C177   C     0.22984   0.18626   0.75000   0.00000  Uiso   1.00
C178   C     0.72984   0.68626   0.75000   0.00000  Uiso   1.00
C179   C     0.77016   0.81374   0.25000   0.00000  Uiso   1.00
C180   C     0.27016   0.31374   0.25000   0.00000  Uiso   1.00
C181   C     0.77016   0.18626   0.75000   0.00000  Uiso   1.00
C182   C     0.27016   0.68626   0.75000   0.00000  Uiso   1.00
C183   C     0.22984   0.81374   0.25000   0.00000  Uiso   1.00
C184   C     0.72984   0.31374   0.25000   0.00000  Uiso   1.00
C185   C     0.21249   0.16697   0.75000   0.00000  Uiso   1.00
C186   C     0.71249   0.66697   0.75000   0.00000  Uiso   1.00
C187   C     0.78751   0.83303   0.25000   0.00000  Uiso   1.00
C188   C     0.28751   0.33303   0.25000   0.00000  Uiso   1.00
C189   C     0.78751   0.16697   0.75000   0.00000  Uiso   1.00
C190   C     0.28751   0.66697   0.75000   0.00000  Uiso   1.00
C191   C     0.21249   0.83303   0.25000   0.00000  Uiso   1.00
C192   C     0.71249   0.33303   0.25000   0.00000  Uiso   1.00
C193   C     0.17467   0.16146   0.75000   0.00000  Uiso   1.00
C194   C     0.67467   0.66146   0.75000   0.00000  Uiso   1.00
C195   C     0.82533   0.83854   0.25000   0.00000  Uiso   1.00
C196   C     0.32533   0.33854   0.25000   0.00000  Uiso   1.00
C197   C     0.82533   0.16146   0.75000   0.00000  Uiso   1.00
C198   C     0.32533   0.66146   0.75000   0.00000  Uiso   1.00
C199   C     0.17467   0.83854   0.25000   0.00000  Uiso   1.00
C200   C     0.67467   0.33854   0.25000   0.00000  Uiso   1.00
C201   C     0.10236   0.13895   0.75000   0.00000  Uiso   1.00
C202   C     0.60236   0.63895   0.75000   0.00000  Uiso   1.00
C203   C     0.89764   0.86105   0.25000   0.00000  Uiso   1.00
C204   C     0.39764   0.36105   0.25000   0.00000  Uiso   1.00
C205   C     0.89764   0.13895   0.75000   0.00000  Uiso   1.00
C206   C     0.39764   0.63895   0.75000   0.00000  Uiso   1.00
C207   C     0.10236   0.86105   0.25000   0.00000  Uiso   1.00
C208   C     0.60236   0.36105   0.25000   0.00000  Uiso   1.00
C209   C     0.06995   0.12806   0.75000   0.00000  Uiso   1.00
C210   C     0.56995   0.62806   0.75000   0.00000  Uiso   1.00
C211   C     0.93005   0.87194   0.25000   0.00000  Uiso   1.00
C212   C     0.43005   0.37194   0.25000   0.00000  Uiso   1.00
C213   C     0.93005   0.12806   0.75000   0.00000  Uiso   1.00
C214   C     0.43005   0.62806   0.75000   0.00000  Uiso   1.00
C215   C     0.06995   0.87194   0.25000   0.00000  Uiso   1.00
C216   C     0.56995   0.37194   0.25000   0.00000  Uiso   1.00
C217   C     0.96764   0.07242   0.75000   0.00000  Uiso   1.00
C218   C     0.46764   0.57242   0.75000   0.00000  Uiso   1.00
C219   C     0.03236   0.92758   0.25000   0.00000  Uiso   1.00
C220   C     0.53236   0.42758   0.25000   0.00000  Uiso   1.00
C221   C     0.03236   0.07242   0.75000   0.00000  Uiso   1.00
C222   C     0.53236   0.57242   0.75000   0.00000  Uiso   1.00
C223   C     0.96764   0.92758   0.25000   0.00000  Uiso   1.00
C224   C     0.46764   0.42758   0.25000   0.00000  Uiso   1.00
O225   O     0.71338   0.22036   0.75000   0.00000  Uiso   1.00
O226   O     0.21338   0.72036   0.75000   0.00000  Uiso   1.00
O227   O     0.28662   0.77964   0.25000   0.00000  Uiso   1.00
O228   O     0.78662   0.27964   0.25000   0.00000  Uiso   1.00
O229   O     0.28662   0.22036   0.75000   0.00000  Uiso   1.00
O230   O     0.78662   0.72036   0.75000   0.00000  Uiso   1.00
O231   O     0.71338   0.77964   0.25000   0.00000  Uiso   1.00
O232   O     0.21338   0.27964   0.25000   0.00000  Uiso   1.00
O233   O     0.78815   0.11386   0.75000   0.00000  Uiso   1.00
O234   O     0.28815   0.61386   0.75000   0.00000  Uiso   1.00
O235   O     0.21185   0.88614   0.25000   0.00000  Uiso   1.00
O236   O     0.71185   0.38614   0.25000   0.00000  Uiso   1.00
O237   O     0.21185   0.11386   0.75000   0.00000  Uiso   1.00
O238   O     0.71185   0.61386   0.75000   0.00000  Uiso   1.00
O239   O     0.78815   0.88614   0.25000   0.00000  Uiso   1.00
O240   O     0.28815   0.38614   0.25000   0.00000  Uiso   1.00
O241   O     0.43940   0.37109   0.75000   0.00000  Uiso   1.00
O242   O     0.93940   0.87109   0.75000   0.00000  Uiso   1.00
O243   O     0.56060   0.62891   0.25000   0.00000  Uiso   1.00
O244   O     0.06060   0.12891   0.25000   0.00000  Uiso   1.00
O245   O     0.56060   0.37109   0.75000   0.00000  Uiso   1.00
O246   O     0.06060   0.87109   0.75000   0.00000  Uiso   1.00
O247   O     0.43940   0.62891   0.25000   0.00000  Uiso   1.00
O248   O     0.93940   0.12891   0.25000   0.00000  Uiso   1.00
O249   O     0.56060   0.46214   0.75000   0.00000  Uiso   1.00
O250   O     0.06060   0.96214   0.75000   0.00000  Uiso   1.00
O251   O     0.43940   0.53786   0.25000   0.00000  Uiso   1.00
O252   O     0.93940   0.03786   0.25000   0.00000  Uiso   1.00
O253   O     0.43940   0.46214   0.75000   0.00000  Uiso   1.00
O254   O     0.93940   0.96214   0.75000   0.00000  Uiso   1.00
O255   O     0.56060   0.53786   0.25000   0.00000  Uiso   1.00
O256   O     0.06060   0.03786   0.25000   0.00000  Uiso   1.00
O257   O     0.34793   0.15924   0.75000   0.00000  Uiso   1.00
O258   O     0.84793   0.65924   0.75000   0.00000  Uiso   1.00
O259   O     0.65207   0.84076   0.25000   0.00000  Uiso   1.00
O260   O     0.15207   0.34076   0.25000   0.00000  Uiso   1.00
O261   O     0.65207   0.15924   0.75000   0.00000  Uiso   1.00
O262   O     0.15207   0.65924   0.75000   0.00000  Uiso   1.00
O263   O     0.34793   0.84076   0.25000   0.00000  Uiso   1.00
O264   O     0.84793   0.34076   0.25000   0.00000  Uiso   1.00
O265   O     0.15068   0.17426   0.75000   0.00000  Uiso   1.00
O266   O     0.65068   0.67426   0.75000   0.00000  Uiso   1.00
O267   O     0.84932   0.82574   0.25000   0.00000  Uiso   1.00
O268   O     0.34932   0.32574   0.25000   0.00000  Uiso   1.00
O269   O     0.84932   0.17426   0.75000   0.00000  Uiso   1.00
O270   O     0.34932   0.67426   0.75000   0.00000  Uiso   1.00
O271   O     0.15068   0.82574   0.25000   0.00000  Uiso   1.00
O272   O     0.65068   0.32574   0.25000   0.00000  Uiso   1.00
N273   N     0.83017   0.14019   0.75000   0.00000  Uiso   1.00
N274   N     0.33017   0.64019   0.75000   0.00000  Uiso   1.00
N275   N     0.16983   0.85981   0.25000   0.00000  Uiso   1.00
N276   N     0.66983   0.35981   0.25000   0.00000  Uiso   1.00
N277   N     0.16983   0.14019   0.75000   0.00000  Uiso   1.00
N278   N     0.66983   0.64019   0.75000   0.00000  Uiso   1.00
N279   N     0.83017   0.85981   0.25000   0.00000  Uiso   1.00
N280   N     0.33017   0.35981   0.25000   0.00000  Uiso   1.00
H281   H     0.54650   0.19551   0.75000   0.00000  Uiso   1.00
H282   H     0.04650   0.69551   0.75000   0.00000  Uiso   1.00
H283   H     0.45350   0.80449   0.25000   0.00000  Uiso   1.00
H284   H     0.95350   0.30449   0.25000   0.00000  Uiso   1.00
H285   H     0.45350   0.19551   0.75000   0.00000  Uiso   1.00
H286   H     0.95350   0.69551   0.75000   0.00000  Uiso   1.00
H287   H     0.54650   0.80449   0.25000   0.00000  Uiso   1.00
H288   H     0.04650   0.30449   0.25000   0.00000  Uiso   1.00
H289   H     0.60052   0.17769   0.75000   0.00000  Uiso   1.00
H290   H     0.10052   0.67769   0.75000   0.00000  Uiso   1.00
H291   H     0.39948   0.82231   0.25000   0.00000  Uiso   1.00
H292   H     0.89948   0.32231   0.25000   0.00000  Uiso   1.00
H293   H     0.39948   0.17769   0.75000   0.00000  Uiso   1.00
H294   H     0.89948   0.67769   0.75000   0.00000  Uiso   1.00
H295   H     0.60052   0.82231   0.25000   0.00000  Uiso   1.00
H296   H     0.10052   0.32231   0.25000   0.00000  Uiso   1.00
H297   H     0.71659   0.13336   0.75000   0.00000  Uiso   1.00
H298   H     0.21659   0.63336   0.75000   0.00000  Uiso   1.00
H299   H     0.28341   0.86665   0.25000   0.00000  Uiso   1.00
H300   H     0.78341   0.36665   0.25000   0.00000  Uiso   1.00
H301   H     0.28341   0.13336   0.75000   0.00000  Uiso   1.00
H302   H     0.78341   0.63336   0.75000   0.00000  Uiso   1.00
H303   H     0.71659   0.86665   0.25000   0.00000  Uiso   1.00
H304   H     0.21659   0.36665   0.25000   0.00000  Uiso   1.00
H305   H     0.84144   0.09746   0.75000   0.00000  Uiso   1.00
H306   H     0.34144   0.59746   0.75000   0.00000  Uiso   1.00
H307   H     0.15856   0.90254   0.25000   0.00000  Uiso   1.00
H308   H     0.65856   0.40254   0.25000   0.00000  Uiso   1.00
H309   H     0.15856   0.09746   0.75000   0.00000  Uiso   1.00
H310   H     0.65856   0.59746   0.75000   0.00000  Uiso   1.00
H311   H     0.84144   0.90254   0.25000   0.00000  Uiso   1.00
H312   H     0.34144   0.40254   0.25000   0.00000  Uiso   1.00
H313   H     0.89504   0.07932   0.75000   0.00000  Uiso   1.00
H314   H     0.39504   0.57932   0.75000   0.00000  Uiso   1.00
H315   H     0.10496   0.92068   0.25000   0.00000  Uiso   1.00
H316   H     0.60496   0.42068   0.25000   0.00000  Uiso   1.00
H317   H     0.10496   0.07932   0.75000   0.00000  Uiso   1.00
H318   H     0.60496   0.57932   0.75000   0.00000  Uiso   1.00
H319   H     0.89504   0.92068   0.25000   0.00000  Uiso   1.00
H320   H     0.39504   0.42068   0.25000   0.00000  Uiso   1.00
H321   H     0.55820   0.33627   0.75000   0.00000  Uiso   1.00
H322   H     0.05820   0.83627   0.75000   0.00000  Uiso   1.00
H323   H     0.44180   0.66374   0.25000   0.00000  Uiso   1.00
H324   H     0.94180   0.16374   0.25000   0.00000  Uiso   1.00
H325   H     0.44180   0.33627   0.75000   0.00000  Uiso   1.00
H326   H     0.94180   0.83627   0.75000   0.00000  Uiso   1.00
H327   H     0.55820   0.66374   0.25000   0.00000  Uiso   1.00
H328   H     0.05820   0.16374   0.25000   0.00000  Uiso   1.00
H329   H     0.55820   0.49693   0.75000   0.00000  Uiso   1.00
H330   H     0.05820   0.99693   0.75000   0.00000  Uiso   1.00
H331   H     0.44180   0.50307   0.25000   0.00000  Uiso   1.00
H332   H     0.94180   0.00307   0.25000   0.00000  Uiso   1.00
H333   H     0.44180   0.49693   0.75000   0.00000  Uiso   1.00
H334   H     0.94180   0.99693   0.75000   0.00000  Uiso   1.00
H335   H     0.55820   0.50307   0.25000   0.00000  Uiso   1.00
H336   H     0.05820   0.00307   0.25000   0.00000  Uiso   1.00
H337   H     0.05839   0.03273   0.75000   0.00000  Uiso   1.00
H338   H     0.55839   0.53273   0.75000   0.00000  Uiso   1.00
H339   H     0.94161   0.96727   0.25000   0.00000  Uiso   1.00
H340   H     0.44161   0.46727   0.25000   0.00000  Uiso   1.00
H341   H     0.94161   0.03273   0.75000   0.00000  Uiso   1.00
H342   H     0.44161   0.53273   0.75000   0.00000  Uiso   1.00
H343   H     0.05839   0.96727   0.25000   0.00000  Uiso   1.00
H344   H     0.55839   0.46727   0.25000   0.00000  Uiso   1.00
H345   H     0.34133   0.23580   0.75000   0.00000  Uiso   1.00
H346   H     0.84133   0.73580   0.75000   0.00000  Uiso   1.00
H347   H     0.65867   0.76420   0.25000   0.00000  Uiso   1.00
H348   H     0.15867   0.26420   0.25000   0.00000  Uiso   1.00
H349   H     0.65867   0.23580   0.75000   0.00000  Uiso   1.00
H350   H     0.15867   0.73580   0.75000   0.00000  Uiso   1.00
H351   H     0.34133   0.76420   0.25000   0.00000  Uiso   1.00
H352   H     0.84133   0.26420   0.25000   0.00000  Uiso   1.00
H353   H     0.21514   0.20073   0.75000   0.00000  Uiso   1.00
H354   H     0.71514   0.70073   0.75000   0.00000  Uiso   1.00
H355   H     0.78486   0.79927   0.25000   0.00000  Uiso   1.00
H356   H     0.28486   0.29927   0.25000   0.00000  Uiso   1.00
H357   H     0.78486   0.20073   0.75000   0.00000  Uiso   1.00
H358   H     0.28486   0.70073   0.75000   0.00000  Uiso   1.00
H359   H     0.21514   0.79927   0.25000   0.00000  Uiso   1.00
H360   H     0.71514   0.29927   0.25000   0.00000  Uiso   1.00
H361   H     0.09992   0.15552   0.75000   0.00000  Uiso   1.00
H362   H     0.59992   0.65552   0.75000   0.00000  Uiso   1.00
H363   H     0.90008   0.84448   0.25000   0.00000  Uiso   1.00
H364   H     0.40008   0.34448   0.25000   0.00000  Uiso   1.00
H365   H     0.90008   0.15552   0.75000   0.00000  Uiso   1.00
H366   H     0.40008   0.65552   0.75000   0.00000  Uiso   1.00
H367   H     0.09992   0.84448   0.25000   0.00000  Uiso   1.00
H368   H     0.59992   0.34448   0.25000   0.00000  Uiso   1.00
H369   H     0.55695   0.26894   0.75000   0.00000  Uiso   1.00
H370   H     0.05695   0.76894   0.75000   0.00000  Uiso   1.00
H371   H     0.44305   0.73106   0.25000   0.00000  Uiso   1.00
H372   H     0.94305   0.23106   0.25000   0.00000  Uiso   1.00
H373   H     0.44305   0.26894   0.75000   0.00000  Uiso   1.00
H374   H     0.94305   0.76894   0.75000   0.00000  Uiso   1.00
H375   H     0.55695   0.73106   0.25000   0.00000  Uiso   1.00
H376   H     0.05695   0.23106   0.25000   0.00000  Uiso   1.00
H377   H     0.04632   0.13762   0.75000   0.00000  Uiso   1.00
H378   H     0.54632   0.63762   0.75000   0.00000  Uiso   1.00
H379   H     0.95368   0.86238   0.25000   0.00000  Uiso   1.00
H380   H     0.45368   0.36238   0.25000   0.00000  Uiso   1.00
H381   H     0.95368   0.13762   0.75000   0.00000  Uiso   1.00
H382   H     0.45368   0.63762   0.75000   0.00000  Uiso   1.00
H383   H     0.04632   0.86238   0.25000   0.00000  Uiso   1.00
H384   H     0.54632   0.36238   0.25000   0.00000  Uiso   1.00
H385   H     0.94300   0.06422   0.75000   0.00000  Uiso   1.00
H386   H     0.44300   0.56422   0.75000   0.00000  Uiso   1.00
H387   H     0.05700   0.93578   0.25000   0.00000  Uiso   1.00
H388   H     0.55700   0.43578   0.25000   0.00000  Uiso   1.00
H389   H     0.05700   0.06422   0.75000   0.00000  Uiso   1.00
H390   H     0.55700   0.56422   0.75000   0.00000  Uiso   1.00
H391   H     0.94300   0.93578   0.25000   0.00000  Uiso   1.00
H392   H     0.44300   0.43578   0.25000   0.00000  Uiso   1.00
C393   C     0.50000   0.27216   0.75000   0.00000  Uiso   1.00
C394   C     0.00000   0.77216   0.75000   0.00000  Uiso   1.00
C395   C     0.50000   0.72784   0.25000   0.00000  Uiso   1.00
C396   C     0.00000   0.22784   0.25000   0.00000  Uiso   1.00
C397   C     0.50000   0.34064   0.75000   0.00000  Uiso   1.00
C398   C     0.00000   0.84064   0.75000   0.00000  Uiso   1.00
C399   C     0.50000   0.65936   0.25000   0.00000  Uiso   1.00
C400   C     0.00000   0.15936   0.25000   0.00000  Uiso   1.00
C401   C     0.50000   0.49256   0.75000   0.00000  Uiso   1.00
C402   C     0.00000   0.99256   0.75000   0.00000  Uiso   1.00
C403   C     0.50000   0.50744   0.25000   0.00000  Uiso   1.00
C404   C     0.00000   0.00744   0.25000   0.00000  Uiso   1.00
C405   C     0.50000   0.53733   0.75000   0.00000  Uiso   1.00
C406   C     0.00000   0.03733   0.75000   0.00000  Uiso   1.00
C407   C     0.50000   0.46267   0.25000   0.00000  Uiso   1.00
C408   C     0.00000   0.96267   0.25000   0.00000  Uiso   1.00
C409   C     0.50000   0.56100   0.75000   0.00000  Uiso   1.00
C410   C     0.00000   0.06100   0.75000   0.00000  Uiso   1.00
C411   C     0.50000   0.43900   0.25000   0.00000  Uiso   1.00
C412   C     0.00000   0.93900   0.25000   0.00000  Uiso   1.00
N413   N     0.50000   0.36342   0.75000   0.00000  Uiso   1.00
N414   N     0.00000   0.86342   0.75000   0.00000  Uiso   1.00
N415   N     0.50000   0.63658   0.25000   0.00000  Uiso   1.00
N416   N     0.00000   0.13658   0.25000   0.00000  Uiso   1.00
N417   N     0.50000   0.46980   0.75000   0.00000  Uiso   1.00
N418   N     0.00000   0.96980   0.75000   0.00000  Uiso   1.00
N419   N     0.50000   0.53020   0.25000   0.00000  Uiso   1.00
N420   N     0.00000   0.03020   0.25000   0.00000  Uiso   1.00
C421   C     0.50000   0.22840   0.75000   0.00000  Uiso   1.00
C422   C     0.00000   0.72840   0.75000   0.00000  Uiso   1.00
C423   C     0.50000   0.77160   0.25000   0.00000  Uiso   1.00
C424   C     0.00000   0.27160   0.25000   0.00000  Uiso   1.00
H425   H     0.50000   0.21198   0.75000   0.00000  Uiso   1.00
H426   H     0.00000   0.71198   0.75000   0.00000  Uiso   1.00
H427   H     0.50000   0.78802   0.25000   0.00000  Uiso   1.00
H428   H     0.00000   0.28802   0.25000   0.00000  Uiso   1.00
C429   C     0.50000   0.39528   0.25000   0.00000  Uiso   1.00
C430   C     0.00000   0.89528   0.25000   0.00000  Uiso   1.00
C431   C     0.50000   0.60472   0.75000   0.00000  Uiso   1.00
C432   C     0.00000   0.10472   0.75000   0.00000  Uiso   1.00
C433   C     0.50000   0.70416   0.25000   0.00000  Uiso   1.00
C434   C     0.00000   0.20416   0.25000   0.00000  Uiso   1.00
C435   C     0.50000   0.29584   0.75000   0.00000  Uiso   1.00
C436   C     0.00000   0.79584   0.75000   0.00000  Uiso   1.00
H437   H     0.50000   0.37888   0.25000   0.00000  Uiso   1.00
H438   H     0.00000   0.87888   0.25000   0.00000  Uiso   1.00
H439   H     0.50000   0.62112   0.75000   0.00000  Uiso   1.00
H440   H     0.00000   0.12112   0.75000   0.00000  Uiso   1.00
C441   C     0.13580   0.87131   0.25000   0.00000  Uiso   1.00
C442   C     0.63580   0.37131   0.25000   0.00000  Uiso   1.00
C443   C     0.86420   0.12869   0.75000   0.00000  Uiso   1.00
C444   C     0.36420   0.62869   0.75000   0.00000  Uiso   1.00
C445   C     0.86420   0.87131   0.25000   0.00000  Uiso   1.00
C446   C     0.36420   0.37131   0.25000   0.00000  Uiso   1.00
C447   C     0.13580   0.12869   0.75000   0.00000  Uiso   1.00
C448   C     0.63580   0.62869   0.75000   0.00000  Uiso   1.00
N449   N     0.32998   0.80655   0.25000   0.00000  Uiso   1.00
N450   N     0.82998   0.30655   0.25000   0.00000  Uiso   1.00
N451   N     0.67002   0.19345   0.75000   0.00000  Uiso   1.00
N452   N     0.17002   0.69345   0.75000   0.00000  Uiso   1.00
N453   N     0.67002   0.80655   0.25000   0.00000  Uiso   1.00
N454   N     0.17002   0.30655   0.25000   0.00000  Uiso   1.00
N455   N     0.32998   0.19345   0.75000   0.00000  Uiso   1.00
N456   N     0.82998   0.69345   0.75000   0.00000  Uiso   1.00
C457   C     0.29405   0.79801   0.25000   0.00000  Uiso   1.00
C458   C     0.79405   0.29801   0.25000   0.00000  Uiso   1.00
C459   C     0.70595   0.20199   0.75000   0.00000  Uiso   1.00
C460   C     0.20595   0.70199   0.75000   0.00000  Uiso   1.00
C461   C     0.70595   0.79801   0.25000   0.00000  Uiso   1.00
C462   C     0.20595   0.29801   0.25000   0.00000  Uiso   1.00
C463   C     0.29405   0.20199   0.75000   0.00000  Uiso   1.00
C464   C     0.79405   0.70199   0.75000   0.00000  Uiso   1.00
C465   C     0.36412   0.79532   0.25000   0.00000  Uiso   1.00
C466   C     0.86412   0.29532   0.25000   0.00000  Uiso   1.00
C467   C     0.63588   0.20468   0.75000   0.00000  Uiso   1.00
C468   C     0.13588   0.70468   0.75000   0.00000  Uiso   1.00
C469   C     0.63588   0.79532   0.25000   0.00000  Uiso   1.00
C470   C     0.13588   0.29532   0.25000   0.00000  Uiso   1.00
C471   C     0.36412   0.20468   0.75000   0.00000  Uiso   1.00
C472   C     0.86412   0.70468   0.75000   0.00000  Uiso   1.00
C473   C     0.39768   0.76266   0.25000   0.00000  Uiso   1.00
C474   C     0.89768   0.26266   0.25000   0.00000  Uiso   1.00
C475   C     0.60232   0.23734   0.75000   0.00000  Uiso   1.00
C476   C     0.10232   0.73734   0.75000   0.00000  Uiso   1.00
C477   C     0.60232   0.76266   0.25000   0.00000  Uiso   1.00
C478   C     0.10232   0.26266   0.25000   0.00000  Uiso   1.00
C479   C     0.39768   0.23734   0.75000   0.00000  Uiso   1.00
C480   C     0.89768   0.73734   0.75000   0.00000  Uiso   1.00
H481   H     0.39510   0.74607   0.25000   0.00000  Uiso   1.00
H482   H     0.89510   0.24607   0.25000   0.00000  Uiso   1.00
H483   H     0.60490   0.25393   0.75000   0.00000  Uiso   1.00
H484   H     0.10490   0.75393   0.75000   0.00000  Uiso   1.00
H485   H     0.60490   0.74607   0.25000   0.00000  Uiso   1.00
H486   H     0.10490   0.24607   0.25000   0.00000  Uiso   1.00
H487   H     0.39510   0.25393   0.75000   0.00000  Uiso   1.00
H488   H     0.89510   0.75393   0.75000   0.00000  Uiso   1.00
C489   C     0.46777   0.69255   0.25000   0.00000  Uiso   1.00
C490   C     0.96777   0.19255   0.25000   0.00000  Uiso   1.00
C491   C     0.53223   0.30746   0.75000   0.00000  Uiso   1.00
C492   C     0.03223   0.80746   0.75000   0.00000  Uiso   1.00
C493   C     0.53223   0.69255   0.25000   0.00000  Uiso   1.00
C494   C     0.03223   0.19255   0.25000   0.00000  Uiso   1.00
C495   C     0.46777   0.30746   0.75000   0.00000  Uiso   1.00
C496   C     0.96777   0.80746   0.75000   0.00000  Uiso   1.00
C497   C     0.46144   0.58338   0.25000   0.00000  Uiso   1.00
C498   C     0.96144   0.08338   0.25000   0.00000  Uiso   1.00
C499   C     0.53856   0.41662   0.75000   0.00000  Uiso   1.00
C500   C     0.03856   0.91662   0.75000   0.00000  Uiso   1.00
C501   C     0.53856   0.58338   0.25000   0.00000  Uiso   1.00
C502   C     0.03856   0.08338   0.25000   0.00000  Uiso   1.00
C503   C     0.46144   0.41662   0.75000   0.00000  Uiso   1.00
C504   C     0.96144   0.91662   0.75000   0.00000  Uiso   1.00
C505   C     0.48152   0.60179   0.25000   0.00000  Uiso   1.00
C506   C     0.98152   0.10179   0.25000   0.00000  Uiso   1.00
C507   C     0.51848   0.39821   0.75000   0.00000  Uiso   1.00
C508   C     0.01848   0.89821   0.75000   0.00000  Uiso   1.00
C509   C     0.51848   0.60179   0.25000   0.00000  Uiso   1.00
C510   C     0.01848   0.10179   0.25000   0.00000  Uiso   1.00
C511   C     0.48152   0.39821   0.75000   0.00000  Uiso   1.00
C512   C     0.98152   0.89821   0.75000   0.00000  Uiso   1.00
H513   H     0.44161   0.69957   0.25000   0.00000  Uiso   1.00
H514   H     0.94161   0.19957   0.25000   0.00000  Uiso   1.00
H515   H     0.55839   0.30043   0.75000   0.00000  Uiso   1.00
H516   H     0.05839   0.80043   0.75000   0.00000  Uiso   1.00
H517   H     0.55839   0.69957   0.25000   0.00000  Uiso   1.00
H518   H     0.05839   0.19957   0.25000   0.00000  Uiso   1.00
H519   H     0.44161   0.30043   0.75000   0.00000  Uiso   1.00
H520   H     0.94161   0.80043   0.75000   0.00000  Uiso   1.00
H521   H     0.43240   0.58338   0.25000   0.00000  Uiso   1.00
H522   H     0.93240   0.08338   0.25000   0.00000  Uiso   1.00
H523   H     0.56760   0.41662   0.75000   0.00000  Uiso   1.00
H524   H     0.06760   0.91662   0.75000   0.00000  Uiso   1.00
H525   H     0.56760   0.58338   0.25000   0.00000  Uiso   1.00
H526   H     0.06760   0.08338   0.25000   0.00000  Uiso   1.00
H527   H     0.43240   0.41662   0.75000   0.00000  Uiso   1.00
H528   H     0.93240   0.91662   0.75000   0.00000  Uiso   1.00
loop_
_geom_bond_atom_site_label_1
_geom_bond_atom_site_label_2
_geom_bond_distance
_geom_bond_site_symmetry_2
_ccdc_geom_bond_type
C1     C9      1.527   .     S
C1     C33     1.411   .     S
C1     C421    1.411   .     D
C2     C10     1.527   .     S
C2     C34     1.411   .     D
C2     C422    1.411   .     S
C3     C11     1.527   .     S
C3     C35     1.411   .     D
C3     C423    1.411   .     S
C4     C12     1.527   .     S
C4     C36     1.411   .     S
C4     C424    1.411   1_655 D
C5     C13     1.527   .     S
C5     C37     1.411   .     D
C5     C421    1.411   .     S
C6     C14     1.527   .     S
C6     C38     1.411   .     S
C6     C422    1.411   1_655 D
C7     C15     1.527   .     S
C7     C39     1.411   .     S
C7     C423    1.411   .     D
C8     C16     1.527   .     S
C8     C40     1.411   .     D
C8     C424    1.411   .     S
C9     C41     1.415   .     D
C9     C475    1.415   .     S
C10    C42     1.415   .     S
C10    C476    1.415   .     D
C11    C43     1.415   .     S
C11    C473    1.415   .     D
C12    C44     1.415   .     D
C12    C474    1.415   .     S
C13    C45     1.415   .     D
C13    C479    1.415   .     S
C14    C46     1.415   .     D
C14    C480    1.415   .     S
C15    C47     1.415   .     S
C15    C477    1.415   .     D
C16    C48     1.415   .     S
C16    C478    1.415   .     D
C17    C25     1.527   .     S
C17    C97     1.414   .     D
C17    C213    1.414   .     S
C18    C26     1.526   .     S
C18    C98     1.414   .     D
C18    C214    1.414   .     S
C19    C27     1.527   .     S
C19    C99     1.414   .     S
C19    C215    1.414   .     D
C20    C28     1.527   .     S
C20    C100    1.414   .     S
C20    C216    1.414   .     D
C21    C29     1.527   .     S
C21    C101    1.414   .     S
C21    C209    1.414   .     D
C22    C30     1.526   .     S
C22    C102    1.414   .     D
C22    C210    1.414   .     S
C23    C31     1.527   .     S
C23    C103    1.414   .     D
C23    C211    1.414   .     S
C24    C32     1.527   .     S
C24    C104    1.414   .     S
C24    C212    1.414   .     D
C25    C217    1.410   .     S
C25    C432    1.411   1_655 D
C26    C218    1.410   .     D
C26    C431    1.411   .     S
C27    C219    1.410   .     D
C27    C430    1.411   .     S
C28    C220    1.410   .     S
C28    C429    1.411   .     D
C29    C221    1.410   .     D
C29    C432    1.411   .     S
C30    C222    1.410   .     S
C30    C431    1.411   .     D
C31    C223    1.410   .     S
C31    C430    1.411   1_655 D
C32    C224    1.410   .     D
C32    C429    1.411   .     S
C33    H369    1.059   .     S
C33    C393    1.411   .     D
C34    H370    1.059   .     S
C34    C394    1.411   .     S
C35    H371    1.059   .     S
C35    C395    1.411   .     S
C36    H372    1.059   .     S
C36    C396    1.411   1_655 D
C37    H373    1.059   .     S
C37    C393    1.411   .     S
C38    H374    1.059   .     S
C38    C394    1.411   1_655 D
C39    H375    1.059   .     S
C39    C395    1.411   .     D
C40    H376    1.059   .     S
C40    C396    1.411   .     S
C41    C49     1.397   .     S
C41    H281    1.074   .     S
C42    C50     1.397   .     D
C42    H282    1.074   .     S
C43    C51     1.397   .     D
C43    H283    1.074   .     S
C44    C52     1.397   .     S
C44    H284    1.074   .     S
C45    C53     1.397   .     S
C45    H285    1.074   .     S
C46    C54     1.397   .     S
C46    H286    1.074   .     S
C47    C55     1.397   .     D
C47    H287    1.074   .     S
C48    C56     1.397   .     D
C48    H288    1.074   .     S
C49    H289    1.073   .     S
C49    C467    1.408   .     D
C50    H290    1.073   .     S
C50    C468    1.408   .     S
C51    H291    1.073   .     S
C51    C465    1.408   .     S
C52    H292    1.073   .     S
C52    C466    1.408   .     D
C53    H293    1.073   .     S
C53    C471    1.408   .     D
C54    H294    1.073   .     S
C54    C472    1.408   .     D
C55    H295    1.073   .     S
C55    C469    1.408   .     S
C56    H296    1.073   .     S
C56    C470    1.408   .     S
C57    C173    1.381   .     S
C57    C181    1.402   .     D
C57    C459    1.450   .     S
C58    C174    1.381   .     S
C58    C182    1.402   .     D
C58    C460    1.450   .     S
C59    C175    1.381   .     S
C59    C183    1.402   .     D
C59    C457    1.450   .     S
C60    C176    1.381   .     D
C60    C184    1.402   .     S
C60    C458    1.450   .     S
C61    C169    1.381   .     S
C61    C177    1.402   .     D
C61    C463    1.450   .     S
C62    C170    1.381   .     S
C62    C178    1.402   .     D
C62    C464    1.450   .     S
C63    C171    1.381   .     S
C63    C179    1.402   .     D
C63    C461    1.450   .     S
C64    C172    1.381   .     D
C64    C180    1.402   .     S
C64    C462    1.450   .     S
C65    C73     1.402   .     S
C65    C173    1.403   .     D
C65    H297    1.082   .     S
C66    C74     1.402   .     S
C66    C174    1.403   .     D
C66    H298    1.082   .     S
C67    C75     1.402   .     S
C67    C175    1.403   .     D
C67    H299    1.082   .     S
C68    C76     1.402   .     D
C68    C176    1.403   .     S
C68    H300    1.082   .     S
C69    C77     1.402   .     S
C69    C169    1.403   .     D
C69    H301    1.082   .     S
C70    C78     1.402   .     S
C70    C170    1.403   .     D
C70    H302    1.082   .     S
C71    C79     1.402   .     S
C71    C171    1.403   .     D
C71    H303    1.082   .     S
C72    C80     1.402   .     D
C72    C172    1.403   .     S
C72    H304    1.082   .     S
C73    C81     1.453   .     S
C73    C189    1.376   .     D
C74    C82     1.453   .     S
C74    C190    1.376   .     D
C75    C83     1.453   .     S
C75    C191    1.376   .     D
C76    C84     1.453   .     S
C76    C192    1.376   .     S
C77    C85     1.453   .     S
C77    C185    1.376   .     D
C78    C86     1.453   .     S
C78    C186    1.376   .     D
C79    C87     1.453   .     S
C79    C187    1.376   .     D
C80    C88     1.453   .     S
C80    C188    1.376   .     S
C81    O233    1.216   .     D
C81    N273    1.383   .     S
C82    O234    1.216   .     D
C82    N274    1.383   .     S
C83    O235    1.216   .     D
C83    N275    1.383   .     S
C84    O236    1.216   .     D
C84    N276    1.383   .     S
C85    O237    1.216   .     D
C85    N277    1.383   .     S
C86    O238    1.216   .     D
C86    N278    1.383   .     S
C87    O239    1.216   .     D
C87    N279    1.383   .     S
C88    O240    1.216   .     D
C88    N280    1.383   .     S
C89    C97     1.398   .     S
C89    H305    1.073   .     S
C89    C443    1.411   .     D
C90    C98     1.398   .     S
C90    H306    1.073   .     S
C90    C444    1.411   .     D
C91    C99     1.397   .     D
C91    H307    1.073   .     S
C91    C441    1.411   .     S
C92    C100    1.397   .     D
C92    H308    1.073   .     S
C92    C442    1.411   .     S
C93    C101    1.398   .     D
C93    H309    1.073   .     S
C93    C447    1.411   .     S
C94    C102    1.398   .     S
C94    H310    1.073   .     S
C94    C448    1.411   .     D
C95    C103    1.397   .     S
C95    H311    1.073   .     S
C95    C445    1.411   .     D
C96    C104    1.397   .     D
C96    H312    1.073   .     S
C96    C446    1.411   .     S
C97    H313    1.075   .     S
C98    H314    1.075   .     S
C99    H315    1.075   .     S
C100   H316    1.075   .     S
C101   H317    1.075   .     S
C102   H318    1.075   .     S
C103   H319    1.075   .     S
C104   H320    1.075   .     S
C105   H321    1.073   .     S
C105   C397    1.411   .     S
C105   C491    1.397   .     D
C106   H322    1.073   .     S
C106   C398    1.411   .     D
C106   C492    1.397   .     S
C107   H323    1.073   .     S
C107   C399    1.411   .     S
C107   C489    1.397   .     D
C108   H324    1.073   .     S
C108   C400    1.411   1_655 S
C108   C490    1.397   .     D
C109   H325    1.073   .     S
C109   C397    1.411   .     D
C109   C495    1.397   .     S
C110   H326    1.073   .     S
C110   C398    1.411   1_655 S
C110   C496    1.397   .     D
C111   H327    1.073   .     S
C111   C399    1.411   .     D
C111   C493    1.397   .     S
C112   H328    1.073   .     S
C112   C400    1.411   .     D
C112   C494    1.397   .     S
C113   O241    1.216   .     D
C113   N413    1.384   .     S
C113   C511    1.452   .     S
C114   O242    1.216   .     D
C114   N414    1.384   1_655 S
C114   C512    1.452   .     S
C115   O243    1.216   .     D
C115   N415    1.384   .     S
C115   C509    1.452   .     S
C116   O244    1.216   .     D
C116   N416    1.384   .     S
C116   C510    1.452   .     S
C117   O245    1.216   .     D
C117   N413    1.384   .     S
C117   C507    1.452   .     S
C118   O246    1.216   .     D
C118   N414    1.384   .     S
C118   C508    1.452   .     S
C119   O247    1.216   .     D
C119   N415    1.384   .     S
C119   C505    1.452   .     S
C120   O248    1.216   .     D
C120   N416    1.384   1_655 S
C120   C506    1.452   .     S
C121   C125    1.376   .     S
C121   C129    1.452   .     S
C121   C499    1.403   .     D
C122   C126    1.376   1_455 S
C122   C130    1.452   .     S
C122   C500    1.403   .     D
C123   C127    1.376   .     S
C123   C131    1.452   .     S
C123   C497    1.403   .     D
C124   C128    1.376   1_655 D
C124   C132    1.452   .     S
C124   C498    1.403   .     S
C125   C133    1.452   .     S
C125   C503    1.403   .     D
C126   C122    1.376   1_655 S
C126   C134    1.452   .     S
C126   C504    1.403   .     D
C127   C135    1.452   .     S
C127   C501    1.403   .     D
C128   C124    1.376   1_455 D
C128   C136    1.452   .     S
C128   C502    1.403   .     S
C129   O249    1.216   .     D
C129   N417    1.384   .     S
C130   O250    1.216   .     D
C130   N418    1.384   .     S
C131   O251    1.216   .     D
C131   N419    1.384   .     S
C132   O252    1.216   .     D
C132   N420    1.384   1_655 S
C133   O253    1.216   .     D
C133   N417    1.384   .     S
C134   O254    1.216   .     D
C134   N418    1.384   1_655 S
C135   O255    1.216   .     D
C135   N419    1.384   .     S
C136   O256    1.216   .     D
C136   N420    1.384   .     S
C137   C145    1.396   .     S
C137   H329    1.073   .     S
C137   C401    1.410   .     D
C138   C146    1.396   .     S
C138   H330    1.073   1_545 S
C138   C402    1.410   1_545 D
C139   C147    1.396   .     D
C139   H331    1.073   .     S
C139   C403    1.410   .     S
C140   C148    1.396   .     D
C140   H332    1.073   1_565 S
C140   C404    1.410   1_665 S
C141   C149    1.396   .     D
C141   H333    1.073   .     S
C141   C401    1.410   .     S
C142   C150    1.396   .     D
C142   H334    1.073   1_545 S
C142   C402    1.410   1_645 S
C143   C151    1.396   .     S
C143   H335    1.073   .     S
C143   C403    1.410   .     D
C144   C152    1.396   .     S
C144   H336    1.073   1_565 S
C144   C404    1.410   1_565 D
C145   H338    1.074   .     S
C145   C405    1.415   .     D
C146   H337    1.074   .     S
C146   C406    1.415   .     D
C147   H340    1.074   .     S
C147   C407    1.415   .     S
C148   H339    1.074   .     S
C148   C408    1.415   1_655 S
C149   H342    1.074   .     S
C149   C405    1.415   .     S
C150   H341    1.074   .     S
C150   C406    1.415   1_655 S
C151   H344    1.074   .     S
C151   C407    1.415   .     D
C152   H343    1.074   .     S
C152   C408    1.415   .     D
C153   H345    1.073   .     S
C153   C471    1.407   .     S
C153   C479    1.397   .     D
C154   H346    1.073   .     S
C154   C472    1.407   .     S
C154   C480    1.397   .     D
C155   H347    1.073   .     S
C155   C469    1.407   .     D
C155   C477    1.397   .     S
C156   H348    1.073   .     S
C156   C470    1.407   .     D
C156   C478    1.397   .     S
C157   H349    1.073   .     S
C157   C467    1.407   .     S
C157   C475    1.397   .     D
C158   H350    1.073   .     S
C158   C468    1.407   .     D
C158   C476    1.397   .     S
C159   H351    1.073   .     S
C159   C465    1.407   .     D
C159   C473    1.397   .     S
C160   H352    1.073   .     S
C160   C466    1.407   .     S
C160   C474    1.397   .     D
C161   C169    1.456   .     S
C161   O257    1.216   .     D
C161   N455    1.382   .     S
C162   C170    1.456   .     S
C162   O258    1.216   .     D
C162   N456    1.382   .     S
C163   C171    1.456   .     S
C163   O259    1.216   .     D
C163   N453    1.382   .     S
C164   C172    1.456   .     S
C164   O260    1.216   .     D
C164   N454    1.382   .     S
C165   C173    1.456   .     S
C165   O261    1.216   .     D
C165   N451    1.382   .     S
C166   C174    1.456   .     S
C166   O262    1.216   .     D
C166   N452    1.382   .     S
C167   C175    1.456   .     S
C167   O263    1.216   .     D
C167   N449    1.382   .     S
C168   C176    1.456   .     S
C168   O264    1.216   .     D
C168   N450    1.382   .     S
C177   C185    1.402   .     S
C177   H353    1.082   .     S
C178   C186    1.402   .     S
C178   H354    1.082   .     S
C179   C187    1.402   .     S
C179   H355    1.082   .     S
C180   C188    1.402   .     D
C180   H356    1.082   .     S
C181   C189    1.402   .     S
C181   H357    1.082   .     S
C182   C190    1.402   .     S
C182   H358    1.082   .     S
C183   C191    1.402   .     S
C183   H359    1.082   .     S
C184   C192    1.402   .     D
C184   H360    1.082   .     S
C185   C193    1.452   .     S
C186   C194    1.452   .     S
C187   C195    1.452   .     S
C188   C196    1.452   .     S
C189   C197    1.452   .     S
C190   C198    1.452   .     S
C191   C199    1.452   .     S
C192   C200    1.452   .     S
C193   O265    1.216   .     D
C193   N277    1.384   .     S
C194   O266    1.216   .     D
C194   N278    1.384   .     S
C195   O267    1.216   .     D
C195   N279    1.384   .     S
C196   O268    1.216   .     D
C196   N280    1.384   .     S
C197   O269    1.216   .     D
C197   N273    1.384   .     S
C198   O270    1.216   .     D
C198   N274    1.384   .     S
C199   O271    1.216   .     D
C199   N275    1.384   .     S
C200   O272    1.216   .     D
C200   N276    1.384   .     S
C201   C209    1.396   .     S
C201   H361    1.073   .     S
C201   C447    1.410   .     D
C202   C210    1.396   .     D
C202   H362    1.073   .     S
C202   C448    1.410   .     S
C203   C211    1.396   .     D
C203   H363    1.073   .     S
C203   C445    1.410   .     S
C204   C212    1.396   .     S
C204   H364    1.073   .     S
C204   C446    1.410   .     D
C205   C213    1.396   .     D
C205   H365    1.073   .     S
C205   C443    1.410   .     S
C206   C214    1.396   .     D
C206   H366    1.073   .     S
C206   C444    1.410   .     S
C207   C215    1.396   .     S
C207   H367    1.073   .     S
C207   C441    1.410   .     D
C208   C216    1.396   .     S
C208   H368    1.073   .     S
C208   C442    1.410   .     D
C209   H377    1.074   .     S
C210   H378    1.074   .     S
C211   H379    1.074   .     S
C212   H380    1.074   .     S
C213   H381    1.074   .     S
C214   H382    1.074   .     S
C215   H383    1.074   .     S
C216   H384    1.074   .     S
C217   H385    1.059   .     S
C217   C410    1.412   1_655 D
C218   H386    1.059   .     S
C218   C409    1.412   .     S
C219   H387    1.059   .     S
C219   C412    1.412   .     S
C220   H388    1.059   .     S
C220   C411    1.412   .     D
C221   H389    1.059   .     S
C221   C410    1.412   .     S
C222   H390    1.059   .     S
C222   C409    1.412   .     D
C223   H391    1.059   .     S
C223   C412    1.412   1_655 D
C224   H392    1.059   .     S
C224   C411    1.412   .     S
O225   C459    1.216   .     D
O226   C460    1.216   .     D
O227   C457    1.216   .     D
O228   C458    1.216   .     D
O229   C463    1.216   .     D
O230   C464    1.216   .     D
O231   C461    1.216   .     D
O232   C462    1.216   .     D
N273   C443    1.468   .     S
N274   C444    1.468   .     S
N275   C441    1.468   .     S
N276   C442    1.468   .     S
N277   C447    1.468   .     S
N278   C448    1.468   .     S
N279   C445    1.468   .     S
N280   C446    1.468   .     S
H330   C138    1.073   1_565 S
H332   C140    1.073   1_545 S
H334   C142    1.073   1_565 S
H336   C144    1.073   1_545 S
C393   C435    1.527   .     S
C394   C38     1.411   1_455 D
C394   C436    1.527   .     S
C395   C433    1.527   .     S
C396   C36     1.411   1_455 D
C396   C434    1.527   .     S
C397   N413    1.469   .     S
C398   C110    1.411   1_455 S
C398   N414    1.469   .     S
C399   N415    1.469   .     S
C400   C108    1.411   1_455 S
C400   N416    1.469   .     S
C401   N417    1.468   .     S
C402   C138    1.410   1_565 D
C402   C142    1.410   1_465 S
C402   N418    1.468   .     S
C403   N419    1.468   .     S
C404   C144    1.410   1_545 D
C404   C140    1.410   1_445 S
C404   N420    1.468   .     S
C405   C409    1.527   .     S
C406   C150    1.415   1_455 S
C406   C410    1.527   .     S
C407   C411    1.527   .     S
C408   C148    1.415   1_455 S
C408   C412    1.527   .     S
C410   C217    1.412   1_455 D
C412   C223    1.412   1_455 D
N414   C114    1.384   1_455 S
N416   C120    1.384   1_455 S
N418   C134    1.384   1_455 S
N420   C132    1.384   1_455 S
C421   H425    1.059   .     S
C422   C6      1.411   1_455 D
C422   H426    1.059   .     S
C423   H427    1.059   .     S
C424   C4      1.411   1_455 D
C424   H428    1.059   .     S
C429   H437    1.058   .     S
C430   C31     1.411   1_455 D
C430   H438    1.058   .     S
C431   H439    1.058   .     S
C432   C25     1.411   1_455 D
C432   H440    1.058   .     S
C433   C489    1.415   .     S
C433   C493    1.415   .     D
C434   C490    1.415   1_455 S
C434   C494    1.415   .     D
C435   C491    1.415   .     S
C435   C495    1.415   .     D
C436   C492    1.415   .     D
C436   C496    1.415   1_455 S
N449   C457    1.447   .     S
N449   C465    1.463   .     S
N450   C458    1.447   .     S
N450   C466    1.463   .     S
N451   C459    1.447   .     S
N451   C467    1.463   .     S
N452   C460    1.447   .     S
N452   C468    1.463   .     S
N453   C461    1.447   .     S
N453   C469    1.463   .     S
N454   C462    1.447   .     S
N454   C470    1.463   .     S
N455   C463    1.447   .     S
N455   C471    1.463   .     S
N456   C464    1.447   .     S
N456   C472    1.463   .     S
C473   H481    1.074   .     S
C474   H482    1.074   .     S
C475   H483    1.074   .     S
C476   H484    1.074   .     S
C477   H485    1.074   .     S
C478   H486    1.074   .     S
C479   H487    1.074   .     S
C480   H488    1.074   .     S
C489   H513    1.074   .     S
C490   C434    1.415   1_655 S
C490   H514    1.074   .     S
C491   H515    1.074   .     S
C492   H516    1.074   .     S
C493   H517    1.074   .     S
C494   H518    1.074   .     S
C495   H519    1.074   .     S
C496   C436    1.415   1_655 S
C496   H520    1.074   .     S
C497   C505    1.403   .     S
C497   H521    1.082   .     S
C498   C506    1.403   .     D
C498   H522    1.082   .     S
C499   C507    1.403   .     S
C499   H523    1.082   .     S
C500   C508    1.403   .     S
C500   H524    1.082   .     S
C501   C509    1.403   .     S
C501   H525    1.082   .     S
C502   C510    1.403   .     D
C502   H526    1.082   .     S
C503   C511    1.403   .     S
C503   H527    1.082   .     S
C504   C512    1.403   .     S
C504   H528    1.082   .     S
C505   C509    1.377   .     D
C506   C510    1.377   1_655 S
C507   C511    1.377   .     D
C508   C512    1.377   1_455 D
C510   C506    1.377   1_455 S
C512   C508    1.377   1_655 D
