data_361
_audit_creation_date              2023-09-08
_audit_creation_method            'Materials Studio'
_symmetry_space_group_name_H-M    'P1'
_symmetry_Int_Tables_number       1
_symmetry_cell_setting            triclinic
loop_
_symmetry_equiv_pos_as_xyz
  x,y,z
_cell_length_a                    7.2624
_cell_length_b                    36.6977
_cell_length_c                    63.5623
_cell_angle_alpha                 90.0000
_cell_angle_beta                  90.0000
_cell_angle_gamma                 90.0000
loop_
_atom_site_label
_atom_site_type_symbol
_atom_site_fract_x
_atom_site_fract_y
_atom_site_fract_z
_atom_site_U_iso_or_equiv
_atom_site_adp_type
_atom_site_occupancy
C1     C     0.76689   0.59922   0.87555   0.00000  Uiso   1.00
C2     C     0.64347   0.39643   0.23612   0.00000  Uiso   1.00
C3     C     0.76696   0.46756   0.94668   0.00000  Uiso   1.00
C4     C     0.64340   0.52809   0.16499   0.00000  Uiso   1.00
C5     C     0.76701   0.42671   0.84529   0.00000  Uiso   1.00
C6     C     0.64335   0.56894   0.26638   0.00000  Uiso   1.00
C7     C     0.76732   0.63225   0.86473   0.00000  Uiso   1.00
C8     C     0.64304   0.36340   0.24694   0.00000  Uiso   1.00
C9     C     0.76734   0.46726   0.96860   0.00000  Uiso   1.00
C10    C     0.64302   0.52839   0.14307   0.00000  Uiso   1.00
C11    C     0.76736   0.39398   0.83417   0.00000  Uiso   1.00
C12    C     0.64300   0.60167   0.27750   0.00000  Uiso   1.00
C13    C     0.76352   0.67163   0.81141   0.00000  Uiso   1.00
C14    C     0.64684   0.32402   0.30026   0.00000  Uiso   1.00
C15    C     0.76349   0.52755   0.01495   0.00000  Uiso   1.00
C16    C     0.64687   0.46810   0.09672   0.00000  Uiso   1.00
C17    C     0.76352   0.29431   0.84113   0.00000  Uiso   1.00
C18    C     0.64684   0.70135   0.27054   0.00000  Uiso   1.00
C19    C     0.73789   0.71102   0.80613   0.00000  Uiso   1.00
C20    C     0.67246   0.28463   0.30554   0.00000  Uiso   1.00
C21    C     0.73787   0.51578   0.03728   0.00000  Uiso   1.00
C22    C     0.67249   0.47987   0.07439   0.00000  Uiso   1.00
C23    C     0.73791   0.26669   0.82408   0.00000  Uiso   1.00
C24    C     0.67245   0.72896   0.28759   0.00000  Uiso   1.00
C25    C     0.70515   0.53063   0.90011   0.00000  Uiso   1.00
C26    C     0.70521   0.46502   0.21156   0.00000  Uiso   1.00
C27    C     0.70514   0.53138   0.87799   0.00000  Uiso   1.00
C28    C     0.70522   0.46427   0.23368   0.00000  Uiso   1.00
C29    C     0.70511   0.56659   0.86625   0.00000  Uiso   1.00
C30    C     0.70525   0.42906   0.24542   0.00000  Uiso   1.00
C31    C     0.70519   0.63363   0.84389   0.00000  Uiso   1.00
C32    C     0.70517   0.36202   0.26778   0.00000  Uiso   1.00
C33    C     0.63788   0.76639   0.82440   0.00000  Uiso   1.00
C34    C     0.77248   0.22926   0.28727   0.00000  Uiso   1.00
C35    C     0.63793   0.46069   0.05584   0.00000  Uiso   1.00
O36    O     0.58311   0.70618   0.85869   0.00000  Uiso   1.00
O37    O     0.82725   0.28947   0.25299   0.00000  Uiso   1.00
O38    O     0.58318   0.43934   0.00860   0.00000  Uiso   1.00
O39    O     0.82718   0.55631   0.10307   0.00000  Uiso   1.00
O40    O     0.58317   0.34793   0.80021   0.00000  Uiso   1.00
O41    O     0.82719   0.64773   0.31147   0.00000  Uiso   1.00
H42    H     0.82146   0.59897   0.89154   0.00000  Uiso   1.00
H43    H     0.58890   0.39668   0.22013   0.00000  Uiso   1.00
H44    H     0.82156   0.44370   0.93855   0.00000  Uiso   1.00
H45    H     0.58880   0.55195   0.17312   0.00000  Uiso   1.00
H46    H     0.82160   0.45082   0.83743   0.00000  Uiso   1.00
H47    H     0.58876   0.54483   0.27425   0.00000  Uiso   1.00
H48    H     0.81948   0.65677   0.87233   0.00000  Uiso   1.00
H49    H     0.59088   0.33888   0.23934   0.00000  Uiso   1.00
H50    H     0.81949   0.44359   0.97706   0.00000  Uiso   1.00
H51    H     0.59087   0.55206   0.13461   0.00000  Uiso   1.00
H52    H     0.81948   0.39314   0.81811   0.00000  Uiso   1.00
H53    H     0.59088   0.60252   0.29357   0.00000  Uiso   1.00
H54    H     0.70514   0.55636   0.90869   0.00000  Uiso   1.00
H55    H     0.70522   0.43929   0.20298   0.00000  Uiso   1.00
H56    H     0.58786   0.78040   0.83843   0.00000  Uiso   1.00
H57    H     0.82250   0.21525   0.27325   0.00000  Uiso   1.00
H58    H     0.58793   0.43264   0.05584   0.00000  Uiso   1.00
N59    N     0.70520   0.66744   0.83262   0.00000  Uiso   1.00
N60    N     0.70515   0.32821   0.27905   0.00000  Uiso   1.00
C61    C     0.76689   0.09922   0.37555   0.00000  Uiso   1.00
C62    C     0.64347   0.89643   0.73612   0.00000  Uiso   1.00
C63    C     0.76696   0.96756   0.44668   0.00000  Uiso   1.00
C64    C     0.64340   0.02809   0.66499   0.00000  Uiso   1.00
C65    C     0.76701   0.92671   0.34529   0.00000  Uiso   1.00
C66    C     0.64335   0.06894   0.76638   0.00000  Uiso   1.00
C67    C     0.76732   0.13225   0.36473   0.00000  Uiso   1.00
C68    C     0.64304   0.86340   0.74694   0.00000  Uiso   1.00
C69    C     0.76734   0.96726   0.46860   0.00000  Uiso   1.00
C70    C     0.64302   0.02839   0.64307   0.00000  Uiso   1.00
C71    C     0.76736   0.89398   0.33417   0.00000  Uiso   1.00
C72    C     0.64300   0.10167   0.77755   0.00000  Uiso   1.00
C73    C     0.76352   0.17163   0.31141   0.00000  Uiso   1.00
C74    C     0.64684   0.82402   0.80026   0.00000  Uiso   1.00
C75    C     0.76349   0.02755   0.51495   0.00000  Uiso   1.00
C76    C     0.64687   0.96810   0.59672   0.00000  Uiso   1.00
C77    C     0.76352   0.79431   0.34113   0.00000  Uiso   1.00
C78    C     0.64684   0.20135   0.77054   0.00000  Uiso   1.00
C79    C     0.73789   0.21102   0.30613   0.00000  Uiso   1.00
C80    C     0.67246   0.78463   0.80554   0.00000  Uiso   1.00
C81    C     0.73787   0.01578   0.53728   0.00000  Uiso   1.00
C82    C     0.67249   0.97987   0.57439   0.00000  Uiso   1.00
C83    C     0.73791   0.76669   0.32408   0.00000  Uiso   1.00
C84    C     0.67245   0.22896   0.78759   0.00000  Uiso   1.00
C85    C     0.70515   0.03063   0.40011   0.00000  Uiso   1.00
C86    C     0.70521   0.96502   0.71156   0.00000  Uiso   1.00
C87    C     0.70514   0.03138   0.37799   0.00000  Uiso   1.00
C88    C     0.70522   0.96427   0.73368   0.00000  Uiso   1.00
C89    C     0.70511   0.06659   0.36625   0.00000  Uiso   1.00
C90    C     0.70525   0.92906   0.74542   0.00000  Uiso   1.00
C91    C     0.70519   0.13363   0.34389   0.00000  Uiso   1.00
C92    C     0.70517   0.86202   0.76778   0.00000  Uiso   1.00
C93    C     0.63788   0.26639   0.32440   0.00000  Uiso   1.00
C94    C     0.77248   0.72926   0.78727   0.00000  Uiso   1.00
C95    C     0.63793   0.96069   0.55584   0.00000  Uiso   1.00
O96    O     0.58311   0.20618   0.35869   0.00000  Uiso   1.00
O97    O     0.82725   0.78947   0.75299   0.00000  Uiso   1.00
O98    O     0.58318   0.93934   0.50860   0.00000  Uiso   1.00
O99    O     0.82718   0.05631   0.60307   0.00000  Uiso   1.00
O100   O     0.58317   0.84793   0.30021   0.00000  Uiso   1.00
O101   O     0.82719   0.14773   0.81147   0.00000  Uiso   1.00
H102   H     0.82146   0.09897   0.39154   0.00000  Uiso   1.00
H103   H     0.58890   0.89668   0.72013   0.00000  Uiso   1.00
H104   H     0.82156   0.94370   0.43855   0.00000  Uiso   1.00
H105   H     0.58880   0.05195   0.67312   0.00000  Uiso   1.00
H106   H     0.82160   0.95082   0.33743   0.00000  Uiso   1.00
H107   H     0.58876   0.04483   0.77425   0.00000  Uiso   1.00
H108   H     0.81948   0.15677   0.37233   0.00000  Uiso   1.00
H109   H     0.59088   0.83888   0.73934   0.00000  Uiso   1.00
H110   H     0.81949   0.94359   0.47706   0.00000  Uiso   1.00
H111   H     0.59087   0.05206   0.63461   0.00000  Uiso   1.00
H112   H     0.81948   0.89314   0.31811   0.00000  Uiso   1.00
H113   H     0.59088   0.10252   0.79357   0.00000  Uiso   1.00
H114   H     0.70514   0.05636   0.40869   0.00000  Uiso   1.00
H115   H     0.70522   0.93929   0.70298   0.00000  Uiso   1.00
H116   H     0.58786   0.28040   0.33843   0.00000  Uiso   1.00
H117   H     0.82250   0.71525   0.77325   0.00000  Uiso   1.00
H118   H     0.58793   0.93264   0.55584   0.00000  Uiso   1.00
N119   N     0.70520   0.16744   0.33262   0.00000  Uiso   1.00
N120   N     0.70515   0.82821   0.77905   0.00000  Uiso   1.00
C121   C     0.64347   0.39643   0.87555   0.00000  Uiso   1.00
C122   C     0.76689   0.59922   0.23612   0.00000  Uiso   1.00
C123   C     0.64340   0.52809   0.94668   0.00000  Uiso   1.00
C124   C     0.76696   0.46756   0.16499   0.00000  Uiso   1.00
C125   C     0.64335   0.56894   0.84529   0.00000  Uiso   1.00
C126   C     0.76701   0.42671   0.26638   0.00000  Uiso   1.00
C127   C     0.64304   0.36340   0.86473   0.00000  Uiso   1.00
C128   C     0.76732   0.63225   0.24694   0.00000  Uiso   1.00
C129   C     0.64302   0.52839   0.96860   0.00000  Uiso   1.00
C130   C     0.76734   0.46726   0.14307   0.00000  Uiso   1.00
C131   C     0.64300   0.60167   0.83417   0.00000  Uiso   1.00
C132   C     0.76736   0.39398   0.27750   0.00000  Uiso   1.00
C133   C     0.64684   0.32402   0.81141   0.00000  Uiso   1.00
C134   C     0.76352   0.67163   0.30026   0.00000  Uiso   1.00
C135   C     0.64687   0.46810   0.01495   0.00000  Uiso   1.00
C136   C     0.76349   0.52755   0.09672   0.00000  Uiso   1.00
C137   C     0.64684   0.70135   0.84113   0.00000  Uiso   1.00
C138   C     0.76352   0.29431   0.27054   0.00000  Uiso   1.00
C139   C     0.67246   0.28463   0.80613   0.00000  Uiso   1.00
C140   C     0.73789   0.71102   0.30554   0.00000  Uiso   1.00
C141   C     0.67249   0.47987   0.03728   0.00000  Uiso   1.00
C142   C     0.73787   0.51578   0.07439   0.00000  Uiso   1.00
C143   C     0.67245   0.72896   0.82408   0.00000  Uiso   1.00
C144   C     0.73791   0.26669   0.28759   0.00000  Uiso   1.00
C145   C     0.70521   0.46502   0.90011   0.00000  Uiso   1.00
C146   C     0.70515   0.53063   0.21156   0.00000  Uiso   1.00
C147   C     0.70522   0.46427   0.87799   0.00000  Uiso   1.00
C148   C     0.70514   0.53138   0.23368   0.00000  Uiso   1.00
C149   C     0.70525   0.42906   0.86625   0.00000  Uiso   1.00
C150   C     0.70511   0.56659   0.24542   0.00000  Uiso   1.00
C151   C     0.70517   0.36202   0.84389   0.00000  Uiso   1.00
C152   C     0.70519   0.63363   0.26778   0.00000  Uiso   1.00
C153   C     0.77248   0.22926   0.82440   0.00000  Uiso   1.00
C154   C     0.63788   0.76639   0.28727   0.00000  Uiso   1.00
C155   C     0.77243   0.53497   0.05584   0.00000  Uiso   1.00
O156   O     0.82725   0.28947   0.85869   0.00000  Uiso   1.00
O157   O     0.58311   0.70618   0.25299   0.00000  Uiso   1.00
O158   O     0.82718   0.55631   0.00860   0.00000  Uiso   1.00
O159   O     0.58318   0.43934   0.10307   0.00000  Uiso   1.00
O160   O     0.82719   0.64773   0.80021   0.00000  Uiso   1.00
O161   O     0.58317   0.34793   0.31147   0.00000  Uiso   1.00
H162   H     0.58890   0.39668   0.89154   0.00000  Uiso   1.00
H163   H     0.82146   0.59897   0.22013   0.00000  Uiso   1.00
H164   H     0.58880   0.55195   0.93855   0.00000  Uiso   1.00
H165   H     0.82156   0.44370   0.17312   0.00000  Uiso   1.00
H166   H     0.58876   0.54483   0.83743   0.00000  Uiso   1.00
H167   H     0.82160   0.45082   0.27425   0.00000  Uiso   1.00
H168   H     0.59088   0.33888   0.87233   0.00000  Uiso   1.00
H169   H     0.81948   0.65677   0.23934   0.00000  Uiso   1.00
H170   H     0.59087   0.55206   0.97706   0.00000  Uiso   1.00
H171   H     0.81949   0.44359   0.13461   0.00000  Uiso   1.00
H172   H     0.59088   0.60252   0.81811   0.00000  Uiso   1.00
H173   H     0.81948   0.39314   0.29357   0.00000  Uiso   1.00
H174   H     0.70522   0.43929   0.90869   0.00000  Uiso   1.00
H175   H     0.70514   0.55636   0.20298   0.00000  Uiso   1.00
H176   H     0.82250   0.21525   0.83843   0.00000  Uiso   1.00
H177   H     0.58786   0.78040   0.27325   0.00000  Uiso   1.00
H178   H     0.82243   0.56301   0.05584   0.00000  Uiso   1.00
N179   N     0.70515   0.32821   0.83262   0.00000  Uiso   1.00
N180   N     0.70520   0.66744   0.27905   0.00000  Uiso   1.00
C181   C     0.64347   0.89643   0.37555   0.00000  Uiso   1.00
C182   C     0.76689   0.09922   0.73612   0.00000  Uiso   1.00
C183   C     0.64340   0.02809   0.44668   0.00000  Uiso   1.00
C184   C     0.76696   0.96756   0.66499   0.00000  Uiso   1.00
C185   C     0.64335   0.06894   0.34529   0.00000  Uiso   1.00
C186   C     0.76701   0.92671   0.76638   0.00000  Uiso   1.00
C187   C     0.64304   0.86340   0.36473   0.00000  Uiso   1.00
C188   C     0.76732   0.13225   0.74694   0.00000  Uiso   1.00
C189   C     0.64302   0.02839   0.46860   0.00000  Uiso   1.00
C190   C     0.76734   0.96726   0.64307   0.00000  Uiso   1.00
C191   C     0.64300   0.10167   0.33417   0.00000  Uiso   1.00
C192   C     0.76736   0.89398   0.77750   0.00000  Uiso   1.00
C193   C     0.64684   0.82402   0.31141   0.00000  Uiso   1.00
C194   C     0.76352   0.17163   0.80026   0.00000  Uiso   1.00
C195   C     0.64687   0.96810   0.51495   0.00000  Uiso   1.00
C196   C     0.76349   0.02755   0.59672   0.00000  Uiso   1.00
C197   C     0.64684   0.20135   0.34113   0.00000  Uiso   1.00
C198   C     0.76352   0.79431   0.77054   0.00000  Uiso   1.00
C199   C     0.67246   0.78463   0.30613   0.00000  Uiso   1.00
C200   C     0.73789   0.21102   0.80554   0.00000  Uiso   1.00
C201   C     0.67249   0.97987   0.53728   0.00000  Uiso   1.00
C202   C     0.73787   0.01578   0.57439   0.00000  Uiso   1.00
C203   C     0.67245   0.22896   0.32408   0.00000  Uiso   1.00
C204   C     0.73791   0.76669   0.78759   0.00000  Uiso   1.00
C205   C     0.70521   0.96502   0.40011   0.00000  Uiso   1.00
C206   C     0.70515   0.03063   0.71156   0.00000  Uiso   1.00
C207   C     0.70522   0.96427   0.37799   0.00000  Uiso   1.00
C208   C     0.70514   0.03138   0.73368   0.00000  Uiso   1.00
C209   C     0.70525   0.92906   0.36625   0.00000  Uiso   1.00
C210   C     0.70511   0.06659   0.74542   0.00000  Uiso   1.00
C211   C     0.70517   0.86202   0.34389   0.00000  Uiso   1.00
C212   C     0.70519   0.13363   0.76778   0.00000  Uiso   1.00
C213   C     0.77248   0.72926   0.32440   0.00000  Uiso   1.00
C214   C     0.63788   0.26639   0.78727   0.00000  Uiso   1.00
C215   C     0.77243   0.03497   0.55584   0.00000  Uiso   1.00
O216   O     0.82725   0.78947   0.35869   0.00000  Uiso   1.00
O217   O     0.58311   0.20618   0.75299   0.00000  Uiso   1.00
O218   O     0.82718   0.05631   0.50860   0.00000  Uiso   1.00
O219   O     0.58318   0.93934   0.60307   0.00000  Uiso   1.00
O220   O     0.82719   0.14773   0.30021   0.00000  Uiso   1.00
O221   O     0.58317   0.84793   0.81147   0.00000  Uiso   1.00
H222   H     0.58890   0.89668   0.39154   0.00000  Uiso   1.00
H223   H     0.82146   0.09897   0.72013   0.00000  Uiso   1.00
H224   H     0.58880   0.05195   0.43855   0.00000  Uiso   1.00
H225   H     0.82156   0.94370   0.67312   0.00000  Uiso   1.00
H226   H     0.58876   0.04483   0.33743   0.00000  Uiso   1.00
H227   H     0.82160   0.95082   0.77425   0.00000  Uiso   1.00
H228   H     0.59088   0.83888   0.37233   0.00000  Uiso   1.00
H229   H     0.81948   0.15677   0.73934   0.00000  Uiso   1.00
H230   H     0.59087   0.05206   0.47706   0.00000  Uiso   1.00
H231   H     0.81949   0.94359   0.63461   0.00000  Uiso   1.00
H232   H     0.59088   0.10252   0.31811   0.00000  Uiso   1.00
H233   H     0.81948   0.89314   0.79357   0.00000  Uiso   1.00
H234   H     0.70522   0.93929   0.40869   0.00000  Uiso   1.00
H235   H     0.70514   0.05636   0.70298   0.00000  Uiso   1.00
H236   H     0.82250   0.71525   0.33843   0.00000  Uiso   1.00
H237   H     0.58786   0.28040   0.77325   0.00000  Uiso   1.00
H238   H     0.82243   0.06301   0.55584   0.00000  Uiso   1.00
N239   N     0.70515   0.82821   0.33262   0.00000  Uiso   1.00
N240   N     0.70520   0.16744   0.77905   0.00000  Uiso   1.00
C241   C     0.29028   0.39895   0.12155   0.00000  Uiso   1.00
C242   C     0.41370   0.60175   0.76098   0.00000  Uiso   1.00
C243   C     0.29020   0.53062   0.05042   0.00000  Uiso   1.00
C244   C     0.41377   0.47009   0.83211   0.00000  Uiso   1.00
C245   C     0.29015   0.57147   0.15181   0.00000  Uiso   1.00
C246   C     0.41382   0.42923   0.73072   0.00000  Uiso   1.00
C247   C     0.28985   0.36593   0.13237   0.00000  Uiso   1.00
C248   C     0.41413   0.63477   0.75016   0.00000  Uiso   1.00
C249   C     0.28982   0.53092   0.02850   0.00000  Uiso   1.00
C250   C     0.41415   0.46978   0.85403   0.00000  Uiso   1.00
C251   C     0.28981   0.60419   0.16293   0.00000  Uiso   1.00
C252   C     0.41416   0.39651   0.71960   0.00000  Uiso   1.00
C253   C     0.29365   0.32655   0.18569   0.00000  Uiso   1.00
C254   C     0.41032   0.67416   0.69684   0.00000  Uiso   1.00
C255   C     0.29367   0.47063   0.98215   0.00000  Uiso   1.00
C256   C     0.41030   0.53008   0.90038   0.00000  Uiso   1.00
C257   C     0.29364   0.70387   0.15597   0.00000  Uiso   1.00
C258   C     0.41033   0.29683   0.72656   0.00000  Uiso   1.00
C259   C     0.31927   0.28716   0.19097   0.00000  Uiso   1.00
C260   C     0.38470   0.71355   0.69156   0.00000  Uiso   1.00
C261   C     0.31929   0.48240   0.95982   0.00000  Uiso   1.00
C262   C     0.38468   0.51830   0.92271   0.00000  Uiso   1.00
C263   C     0.31926   0.73149   0.17302   0.00000  Uiso   1.00
C264   C     0.38472   0.26921   0.70951   0.00000  Uiso   1.00
C265   C     0.35201   0.46755   0.09699   0.00000  Uiso   1.00
C266   C     0.35196   0.53316   0.78554   0.00000  Uiso   1.00
C267   C     0.35202   0.46680   0.11911   0.00000  Uiso   1.00
C268   C     0.35195   0.53390   0.76342   0.00000  Uiso   1.00
C269   C     0.35205   0.43159   0.13085   0.00000  Uiso   1.00
C270   C     0.35192   0.56912   0.75168   0.00000  Uiso   1.00
C271   C     0.35198   0.36454   0.15321   0.00000  Uiso   1.00
C272   C     0.35200   0.63616   0.72932   0.00000  Uiso   1.00
C273   C     0.41929   0.23179   0.17270   0.00000  Uiso   1.00
C274   C     0.28468   0.76891   0.70983   0.00000  Uiso   1.00
C275   C     0.41924   0.53749   0.94126   0.00000  Uiso   1.00
O276   O     0.47406   0.29199   0.13841   0.00000  Uiso   1.00
O277   O     0.22992   0.70871   0.74412   0.00000  Uiso   1.00
O278   O     0.47398   0.55883   0.98850   0.00000  Uiso   1.00
O279   O     0.22999   0.44187   0.89403   0.00000  Uiso   1.00
O280   O     0.47399   0.65025   0.19689   0.00000  Uiso   1.00
O281   O     0.22998   0.35045   0.68563   0.00000  Uiso   1.00
H282   H     0.23570   0.39920   0.10556   0.00000  Uiso   1.00
H283   H     0.46827   0.60150   0.77697   0.00000  Uiso   1.00
H284   H     0.23561   0.55447   0.05855   0.00000  Uiso   1.00
H285   H     0.46836   0.44623   0.82398   0.00000  Uiso   1.00
H286   H     0.23557   0.54735   0.15967   0.00000  Uiso   1.00
H287   H     0.46840   0.45335   0.72285   0.00000  Uiso   1.00
H288   H     0.23769   0.34141   0.12477   0.00000  Uiso   1.00
H289   H     0.46629   0.65930   0.75776   0.00000  Uiso   1.00
H290   H     0.23768   0.55458   0.02004   0.00000  Uiso   1.00
H291   H     0.46630   0.44612   0.86249   0.00000  Uiso   1.00
H292   H     0.23769   0.60504   0.17899   0.00000  Uiso   1.00
H293   H     0.46628   0.39566   0.70353   0.00000  Uiso   1.00
H294   H     0.35202   0.44182   0.08841   0.00000  Uiso   1.00
H295   H     0.35195   0.55888   0.79412   0.00000  Uiso   1.00
H296   H     0.46931   0.21778   0.15867   0.00000  Uiso   1.00
H297   H     0.23466   0.78293   0.72386   0.00000  Uiso   1.00
H298   H     0.46923   0.56553   0.94126   0.00000  Uiso   1.00
N299   N     0.35196   0.33073   0.16448   0.00000  Uiso   1.00
N300   N     0.35201   0.66997   0.71805   0.00000  Uiso   1.00
C301   C     0.29028   0.89895   0.62155   0.00000  Uiso   1.00
C302   C     0.41370   0.10175   0.26098   0.00000  Uiso   1.00
C303   C     0.29020   0.03062   0.55042   0.00000  Uiso   1.00
C304   C     0.41377   0.97009   0.33211   0.00000  Uiso   1.00
C305   C     0.29015   0.07147   0.65181   0.00000  Uiso   1.00
C306   C     0.41382   0.92923   0.23072   0.00000  Uiso   1.00
C307   C     0.28985   0.86593   0.63237   0.00000  Uiso   1.00
C308   C     0.41413   0.13477   0.25016   0.00000  Uiso   1.00
C309   C     0.28982   0.03092   0.52850   0.00000  Uiso   1.00
C310   C     0.41415   0.96978   0.35403   0.00000  Uiso   1.00
C311   C     0.28981   0.10419   0.66293   0.00000  Uiso   1.00
C312   C     0.41416   0.89651   0.21960   0.00000  Uiso   1.00
C313   C     0.29365   0.82655   0.68569   0.00000  Uiso   1.00
C314   C     0.41032   0.17416   0.19684   0.00000  Uiso   1.00
C315   C     0.29367   0.97063   0.48215   0.00000  Uiso   1.00
C316   C     0.41030   0.03008   0.40038   0.00000  Uiso   1.00
C317   C     0.29364   0.20387   0.65597   0.00000  Uiso   1.00
C318   C     0.41033   0.79683   0.22656   0.00000  Uiso   1.00
C319   C     0.31927   0.78716   0.69097   0.00000  Uiso   1.00
C320   C     0.38470   0.21355   0.19156   0.00000  Uiso   1.00
C321   C     0.31929   0.98240   0.45982   0.00000  Uiso   1.00
C322   C     0.38468   0.01830   0.42271   0.00000  Uiso   1.00
C323   C     0.31926   0.23149   0.67302   0.00000  Uiso   1.00
C324   C     0.38472   0.76921   0.20951   0.00000  Uiso   1.00
C325   C     0.35201   0.96755   0.59699   0.00000  Uiso   1.00
C326   C     0.35196   0.03316   0.28554   0.00000  Uiso   1.00
C327   C     0.35202   0.96680   0.61911   0.00000  Uiso   1.00
C328   C     0.35195   0.03390   0.26342   0.00000  Uiso   1.00
C329   C     0.35205   0.93159   0.63085   0.00000  Uiso   1.00
C330   C     0.35192   0.06912   0.25168   0.00000  Uiso   1.00
C331   C     0.35198   0.86454   0.65321   0.00000  Uiso   1.00
C332   C     0.35200   0.13616   0.22932   0.00000  Uiso   1.00
C333   C     0.41929   0.73179   0.67270   0.00000  Uiso   1.00
C334   C     0.28468   0.26891   0.20983   0.00000  Uiso   1.00
C335   C     0.41924   0.03749   0.44126   0.00000  Uiso   1.00
O336   O     0.47406   0.79199   0.63841   0.00000  Uiso   1.00
O337   O     0.22992   0.20871   0.24412   0.00000  Uiso   1.00
O338   O     0.47398   0.05883   0.48850   0.00000  Uiso   1.00
O339   O     0.22999   0.94187   0.39403   0.00000  Uiso   1.00
O340   O     0.47399   0.15025   0.69689   0.00000  Uiso   1.00
O341   O     0.22998   0.85045   0.18563   0.00000  Uiso   1.00
H342   H     0.23570   0.89920   0.60556   0.00000  Uiso   1.00
H343   H     0.46827   0.10150   0.27697   0.00000  Uiso   1.00
H344   H     0.23561   0.05447   0.55855   0.00000  Uiso   1.00
H345   H     0.46836   0.94623   0.32398   0.00000  Uiso   1.00
H346   H     0.23557   0.04735   0.65967   0.00000  Uiso   1.00
H347   H     0.46840   0.95335   0.22285   0.00000  Uiso   1.00
H348   H     0.23769   0.84141   0.62477   0.00000  Uiso   1.00
H349   H     0.46629   0.15930   0.25776   0.00000  Uiso   1.00
H350   H     0.23768   0.05458   0.52004   0.00000  Uiso   1.00
H351   H     0.46630   0.94612   0.36249   0.00000  Uiso   1.00
H352   H     0.23769   0.10504   0.67899   0.00000  Uiso   1.00
H353   H     0.46628   0.89566   0.20353   0.00000  Uiso   1.00
H354   H     0.35202   0.94182   0.58841   0.00000  Uiso   1.00
H355   H     0.35195   0.05888   0.29412   0.00000  Uiso   1.00
H356   H     0.46931   0.71778   0.65867   0.00000  Uiso   1.00
H357   H     0.23466   0.28293   0.22386   0.00000  Uiso   1.00
H358   H     0.46923   0.06553   0.44126   0.00000  Uiso   1.00
N359   N     0.35196   0.83073   0.66448   0.00000  Uiso   1.00
N360   N     0.35201   0.16997   0.21805   0.00000  Uiso   1.00
C361   C     0.41370   0.60175   0.12155   0.00000  Uiso   1.00
C362   C     0.29028   0.39895   0.76098   0.00000  Uiso   1.00
C363   C     0.41377   0.47009   0.05042   0.00000  Uiso   1.00
C364   C     0.29020   0.53062   0.83211   0.00000  Uiso   1.00
C365   C     0.41382   0.42923   0.15181   0.00000  Uiso   1.00
C366   C     0.29015   0.57147   0.73072   0.00000  Uiso   1.00
C367   C     0.41413   0.63477   0.13237   0.00000  Uiso   1.00
C368   C     0.28985   0.36593   0.75016   0.00000  Uiso   1.00
C369   C     0.41415   0.46978   0.02850   0.00000  Uiso   1.00
C370   C     0.28982   0.53092   0.85403   0.00000  Uiso   1.00
C371   C     0.41416   0.39651   0.16293   0.00000  Uiso   1.00
C372   C     0.28981   0.60419   0.71960   0.00000  Uiso   1.00
C373   C     0.41032   0.67416   0.18569   0.00000  Uiso   1.00
C374   C     0.29365   0.32655   0.69684   0.00000  Uiso   1.00
C375   C     0.41030   0.53008   0.98215   0.00000  Uiso   1.00
C376   C     0.29367   0.47063   0.90038   0.00000  Uiso   1.00
C377   C     0.41033   0.29683   0.15597   0.00000  Uiso   1.00
C378   C     0.29364   0.70387   0.72656   0.00000  Uiso   1.00
C379   C     0.38470   0.71355   0.19097   0.00000  Uiso   1.00
C380   C     0.31927   0.28716   0.69156   0.00000  Uiso   1.00
C381   C     0.38468   0.51830   0.95982   0.00000  Uiso   1.00
C382   C     0.31929   0.48240   0.92271   0.00000  Uiso   1.00
C383   C     0.38472   0.26921   0.17302   0.00000  Uiso   1.00
C384   C     0.31926   0.73149   0.70951   0.00000  Uiso   1.00
C385   C     0.35196   0.53316   0.09699   0.00000  Uiso   1.00
C386   C     0.35201   0.46755   0.78554   0.00000  Uiso   1.00
C387   C     0.35195   0.53390   0.11911   0.00000  Uiso   1.00
C388   C     0.35202   0.46680   0.76342   0.00000  Uiso   1.00
C389   C     0.35192   0.56912   0.13085   0.00000  Uiso   1.00
C390   C     0.35205   0.43159   0.75168   0.00000  Uiso   1.00
C391   C     0.35200   0.63616   0.15321   0.00000  Uiso   1.00
C392   C     0.35198   0.36454   0.72932   0.00000  Uiso   1.00
C393   C     0.28468   0.76891   0.17270   0.00000  Uiso   1.00
C394   C     0.41929   0.23179   0.70983   0.00000  Uiso   1.00
C395   C     0.28473   0.46321   0.94126   0.00000  Uiso   1.00
O396   O     0.22992   0.70871   0.13841   0.00000  Uiso   1.00
O397   O     0.47406   0.29199   0.74412   0.00000  Uiso   1.00
O398   O     0.22999   0.44187   0.98850   0.00000  Uiso   1.00
O399   O     0.47398   0.55883   0.89403   0.00000  Uiso   1.00
O400   O     0.22998   0.35045   0.19689   0.00000  Uiso   1.00
O401   O     0.47399   0.65025   0.68563   0.00000  Uiso   1.00
H402   H     0.46827   0.60150   0.10556   0.00000  Uiso   1.00
H403   H     0.23570   0.39920   0.77697   0.00000  Uiso   1.00
H404   H     0.46836   0.44623   0.05855   0.00000  Uiso   1.00
H405   H     0.23561   0.55447   0.82398   0.00000  Uiso   1.00
H406   H     0.46840   0.45335   0.15967   0.00000  Uiso   1.00
H407   H     0.23557   0.54735   0.72285   0.00000  Uiso   1.00
H408   H     0.46629   0.65930   0.12477   0.00000  Uiso   1.00
H409   H     0.23769   0.34141   0.75776   0.00000  Uiso   1.00
H410   H     0.46630   0.44612   0.02004   0.00000  Uiso   1.00
H411   H     0.23768   0.55458   0.86249   0.00000  Uiso   1.00
H412   H     0.46628   0.39566   0.17899   0.00000  Uiso   1.00
H413   H     0.23769   0.60504   0.70353   0.00000  Uiso   1.00
H414   H     0.35195   0.55888   0.08841   0.00000  Uiso   1.00
H415   H     0.35202   0.44182   0.79412   0.00000  Uiso   1.00
H416   H     0.23466   0.78293   0.15867   0.00000  Uiso   1.00
H417   H     0.46931   0.21778   0.72386   0.00000  Uiso   1.00
H418   H     0.23474   0.43517   0.94126   0.00000  Uiso   1.00
N419   N     0.35201   0.66997   0.16448   0.00000  Uiso   1.00
N420   N     0.35196   0.33073   0.71805   0.00000  Uiso   1.00
C421   C     0.41370   0.10175   0.62155   0.00000  Uiso   1.00
C422   C     0.29028   0.89895   0.26098   0.00000  Uiso   1.00
C423   C     0.41377   0.97009   0.55042   0.00000  Uiso   1.00
C424   C     0.29020   0.03062   0.33211   0.00000  Uiso   1.00
C425   C     0.41382   0.92923   0.65181   0.00000  Uiso   1.00
C426   C     0.29015   0.07147   0.23072   0.00000  Uiso   1.00
C427   C     0.41413   0.13477   0.63237   0.00000  Uiso   1.00
C428   C     0.28985   0.86593   0.25016   0.00000  Uiso   1.00
C429   C     0.41415   0.96978   0.52850   0.00000  Uiso   1.00
C430   C     0.28982   0.03092   0.35403   0.00000  Uiso   1.00
C431   C     0.41416   0.89651   0.66293   0.00000  Uiso   1.00
C432   C     0.28981   0.10419   0.21960   0.00000  Uiso   1.00
C433   C     0.41032   0.17416   0.68569   0.00000  Uiso   1.00
C434   C     0.29365   0.82655   0.19684   0.00000  Uiso   1.00
C435   C     0.41030   0.03008   0.48215   0.00000  Uiso   1.00
C436   C     0.29367   0.97063   0.40038   0.00000  Uiso   1.00
C437   C     0.41033   0.79683   0.65597   0.00000  Uiso   1.00
C438   C     0.29364   0.20387   0.22656   0.00000  Uiso   1.00
C439   C     0.38470   0.21355   0.69097   0.00000  Uiso   1.00
C440   C     0.31927   0.78716   0.19156   0.00000  Uiso   1.00
C441   C     0.38468   0.01830   0.45982   0.00000  Uiso   1.00
C442   C     0.31929   0.98240   0.42271   0.00000  Uiso   1.00
C443   C     0.38472   0.76921   0.67302   0.00000  Uiso   1.00
C444   C     0.31926   0.23149   0.20951   0.00000  Uiso   1.00
C445   C     0.35196   0.03316   0.59699   0.00000  Uiso   1.00
C446   C     0.35201   0.96755   0.28554   0.00000  Uiso   1.00
C447   C     0.35195   0.03390   0.61911   0.00000  Uiso   1.00
C448   C     0.35202   0.96680   0.26342   0.00000  Uiso   1.00
C449   C     0.35192   0.06912   0.63085   0.00000  Uiso   1.00
C450   C     0.35205   0.93159   0.25168   0.00000  Uiso   1.00
C451   C     0.35200   0.13616   0.65321   0.00000  Uiso   1.00
C452   C     0.35198   0.86454   0.22932   0.00000  Uiso   1.00
C453   C     0.28468   0.26891   0.67270   0.00000  Uiso   1.00
C454   C     0.41929   0.73179   0.20983   0.00000  Uiso   1.00
C455   C     0.28473   0.96321   0.44126   0.00000  Uiso   1.00
O456   O     0.22992   0.20871   0.63841   0.00000  Uiso   1.00
O457   O     0.47406   0.79199   0.24412   0.00000  Uiso   1.00
O458   O     0.22999   0.94187   0.48850   0.00000  Uiso   1.00
O459   O     0.47398   0.05883   0.39403   0.00000  Uiso   1.00
O460   O     0.22998   0.85045   0.69689   0.00000  Uiso   1.00
O461   O     0.47399   0.15025   0.18563   0.00000  Uiso   1.00
H462   H     0.46827   0.10150   0.60556   0.00000  Uiso   1.00
H463   H     0.23570   0.89920   0.27697   0.00000  Uiso   1.00
H464   H     0.46836   0.94623   0.55855   0.00000  Uiso   1.00
H465   H     0.23561   0.05447   0.32398   0.00000  Uiso   1.00
H466   H     0.46840   0.95335   0.65967   0.00000  Uiso   1.00
H467   H     0.23557   0.04735   0.22285   0.00000  Uiso   1.00
H468   H     0.46629   0.15930   0.62477   0.00000  Uiso   1.00
H469   H     0.23769   0.84141   0.25776   0.00000  Uiso   1.00
H470   H     0.46630   0.94612   0.52004   0.00000  Uiso   1.00
H471   H     0.23768   0.05458   0.36249   0.00000  Uiso   1.00
H472   H     0.46628   0.89566   0.67899   0.00000  Uiso   1.00
H473   H     0.23769   0.10504   0.20353   0.00000  Uiso   1.00
H474   H     0.35195   0.05888   0.58841   0.00000  Uiso   1.00
H475   H     0.35202   0.94182   0.29412   0.00000  Uiso   1.00
H476   H     0.23466   0.28293   0.65867   0.00000  Uiso   1.00
H477   H     0.46931   0.71778   0.22386   0.00000  Uiso   1.00
H478   H     0.23474   0.93517   0.44126   0.00000  Uiso   1.00
N479   N     0.35201   0.16997   0.66448   0.00000  Uiso   1.00
N480   N     0.35196   0.83073   0.21805   0.00000  Uiso   1.00
C481   C     0.70518   0.49783   0.86731   0.00000  Uiso   1.00
C482   C     0.70518   0.49783   0.24437   0.00000  Uiso   1.00
C483   C     0.70518   0.49783   0.91154   0.00000  Uiso   1.00
C484   C     0.70518   0.49783   0.20013   0.00000  Uiso   1.00
C485   C     0.70518   0.49783   0.93501   0.00000  Uiso   1.00
C486   C     0.70518   0.49783   0.17666   0.00000  Uiso   1.00
C487   C     0.70518   0.49783   0.97972   0.00000  Uiso   1.00
C488   C     0.70518   0.49783   0.13195   0.00000  Uiso   1.00
H489   H     0.70518   0.49783   0.85015   0.00000  Uiso   1.00
H490   H     0.70518   0.49783   0.26152   0.00000  Uiso   1.00
N491   N     0.70518   0.49783   0.00226   0.00000  Uiso   1.00
N492   N     0.70518   0.49783   0.10941   0.00000  Uiso   1.00
C493   C     0.70518  -0.00217   0.36731   0.00000  Uiso   1.00
C494   C     0.70518  -0.00217   0.74437   0.00000  Uiso   1.00
C495   C     0.70518  -0.00217   0.41154   0.00000  Uiso   1.00
C496   C     0.70518  -0.00217   0.70013   0.00000  Uiso   1.00
C497   C     0.70518  -0.00217   0.43501   0.00000  Uiso   1.00
C498   C     0.70518  -0.00217   0.67666   0.00000  Uiso   1.00
C499   C     0.70518  -0.00217   0.47972   0.00000  Uiso   1.00
C500   C     0.70518  -0.00217   0.63195   0.00000  Uiso   1.00
H501   H     0.70518  -0.00217   0.35015   0.00000  Uiso   1.00
H502   H     0.70518  -0.00217   0.76152   0.00000  Uiso   1.00
N503   N     0.70518  -0.00217   0.50226   0.00000  Uiso   1.00
N504   N     0.70518  -0.00217   0.60941   0.00000  Uiso   1.00
C505   C     0.35199   0.50035   0.12979   0.00000  Uiso   1.00
C506   C     0.35199   0.50035   0.75273   0.00000  Uiso   1.00
C507   C     0.35199   0.50035   0.08556   0.00000  Uiso   1.00
C508   C     0.35199   0.50035   0.79697   0.00000  Uiso   1.00
C509   C     0.35199   0.50035   0.06209   0.00000  Uiso   1.00
C510   C     0.35199   0.50035   0.82044   0.00000  Uiso   1.00
C511   C     0.35199   0.50035   0.01738   0.00000  Uiso   1.00
C512   C     0.35199   0.50035   0.86515   0.00000  Uiso   1.00
H513   H     0.35199   0.50035   0.14695   0.00000  Uiso   1.00
H514   H     0.35199   0.50035   0.73558   0.00000  Uiso   1.00
N515   N     0.35199   0.50035   0.99484   0.00000  Uiso   1.00
N516   N     0.35199   0.50035   0.88769   0.00000  Uiso   1.00
C517   C     0.35199   0.00035   0.62979   0.00000  Uiso   1.00
C518   C     0.35199   0.00035   0.25273   0.00000  Uiso   1.00
C519   C     0.35199   0.00035   0.58556   0.00000  Uiso   1.00
C520   C     0.35199   0.00035   0.29697   0.00000  Uiso   1.00
C521   C     0.35199   0.00035   0.56209   0.00000  Uiso   1.00
C522   C     0.35199   0.00035   0.32044   0.00000  Uiso   1.00
C523   C     0.35199   0.00035   0.51738   0.00000  Uiso   1.00
C524   C     0.35199   0.00035   0.36515   0.00000  Uiso   1.00
H525   H     0.35199   0.00035   0.64695   0.00000  Uiso   1.00
H526   H     0.35199   0.00035   0.23558   0.00000  Uiso   1.00
N527   N     0.35199   0.00035   0.49484   0.00000  Uiso   1.00
N528   N     0.35199   0.00035   0.38769   0.00000  Uiso   1.00
loop_
_geom_bond_atom_site_label_1
_geom_bond_atom_site_label_2
_geom_bond_distance
_geom_bond_site_symmetry_2
_ccdc_geom_bond_type
C1     C7      1.394   .     S
C1     C29     1.409   .     D
C1     H42     1.091   .     S
C2     C8      1.394   .     S
C2     C30     1.409   .     D
C2     H43     1.091   .     S
C3     C9      1.393   .     D
C3     H44     1.091   .     S
C3     C485    1.409   .     S
C4     C10     1.393   .     D
C4     H45     1.091   .     S
C4     C486    1.409   .     S
C5     C11     1.394   .     S
C5     H46     1.091   .     S
C5     C149    1.408   .     D
C6     C12     1.394   .     S
C6     H47     1.091   .     S
C6     C150    1.408   .     D
C7     C31     1.400   .     D
C7     H48     1.089   .     S
C8     C32     1.400   .     D
C8     H49     1.089   .     S
C9     H50     1.090   .     S
C9     C487    1.401   .     S
C10    H51     1.090   .     S
C10    C488    1.400   .     S
C11    H52     1.089   .     S
C11    C151    1.400   .     D
C12    H53     1.090   .     S
C12    C152    1.400   .     D
C13    C19     1.496   .     S
C13    N59     1.421   .     S
C13    O160    1.221   .     D
C14    C20     1.496   .     S
C14    N60     1.421   .     S
C14    O161    1.221   .     D
C15    C21     1.495   .     S
C15    O158    1.221   .     D
C15    N491    1.421   .     S
C16    C22     1.495   .     S
C16    O159    1.221   .     D
C16    N492    1.421   .     S
C17    C23     1.495   .     S
C17    O156    1.221   .     D
C17    N179    1.421   .     S
C18    C24     1.495   .     S
C18    O157    1.221   .     D
C18    N180    1.422   .     S
C19    C94     1.396   .     D
C19    C143    1.400   .     S
C20    C93     1.396   .     D
C20    C144    1.400   .     S
C21    C141    1.401   .     S
C21    C155    1.397   .     D
C22    C35     1.396   .     S
C22    C142    1.401   .     D
C23    C139    1.400   .     D
C23    C153    1.396   .     S
C24    C140    1.400   .     D
C24    C154    1.396   .     S
C25    C27     1.406   .     D
C25    H54     1.090   .     S
C25    C483    1.406   .     S
C26    C28     1.406   .     S
C26    H55     1.090   .     S
C26    C484    1.406   .     D
C27    C29     1.492   .     S
C27    C481    1.406   .     S
C28    C30     1.492   .     S
C28    C482    1.407   .     D
C29    C125    1.408   .     S
C30    C126    1.408   .     S
C31    N59     1.433   .     S
C31    C131    1.400   .     S
C32    N60     1.433   .     S
C32    C132    1.400   .     S
C33    H56     1.092   .     S
C33    C80     1.396   .     S
C33    C143    1.396   .     D
C34    H57     1.091   .     S
C34    C79     1.396   .     S
C34    C144    1.396   .     D
C35    H58     1.092   .     S
C35    C141    1.396   .     S
C35    C363    1.699   .     S
O36    C137    1.221   .     D
O37    C138    1.221   .     D
O38    C135    1.221   .     S
O38    H410    1.145   .     S
O39    C136    1.221   .     D
O40    C133    1.221   .     D
O41    C134    1.221   .     D
N59    C137    1.422   .     S
N60    C138    1.421   .     S
C61    C67     1.394   .     S
C61    C89     1.409   .     D
C61    H102    1.091   .     S
C62    C68     1.394   .     S
C62    C90     1.409   .     D
C62    H103    1.091   .     S
C63    C69     1.393   .     S
C63    H104    1.091   .     S
C63    C497    1.409   1_565 D
C64    C70     1.393   .     S
C64    H105    1.091   .     S
C64    C498    1.409   .     D
C65    C71     1.394   .     D
C65    H106    1.091   .     S
C65    C209    1.408   .     S
C66    C72     1.395   .     S
C66    H107    1.091   .     S
C66    C210    1.408   .     D
C67    C91     1.400   .     D
C67    H108    1.089   .     S
C68    C92     1.400   .     D
C68    H109    1.089   .     S
C69    H110    1.090   .     S
C69    C499    1.401   1_565 D
C70    H111    1.090   .     S
C70    C500    1.400   .     D
C71    H112    1.089   .     S
C71    C211    1.400   .     S
C72    H113    1.087   .     S
C72    C212    1.402   .     D
C73    C79     1.496   .     S
C73    N119    1.421   .     S
C73    O220    1.221   .     D
C74    C80     1.496   .     S
C74    N120    1.421   .     S
C74    O221    1.221   .     D
C75    C81     1.495   .     S
C75    O218    1.221   .     D
C75    N503    1.421   .     S
C76    C82     1.495   .     S
C76    O219    1.221   .     D
C76    N504    1.421   1_565 S
C77    C83     1.495   .     S
C77    O216    1.221   .     D
C77    N239    1.421   .     S
C78    C84     1.495   .     S
C78    O217    1.221   .     D
C78    N240    1.422   .     S
C79    C203    1.400   .     D
C80    C204    1.400   .     D
C81    C201    1.401   1_545 S
C81    C215    1.397   .     D
C82    C95     1.396   .     S
C82    C202    1.401   1_565 D
C83    C199    1.400   .     S
C83    C213    1.396   .     D
C84    C200    1.400   .     S
C84    C214    1.396   .     D
C85    C87     1.406   .     S
C85    H114    1.090   .     S
C85    C495    1.406   .     D
C86    C88     1.406   .     S
C86    H115    1.090   .     S
C86    C496    1.406   1_565 D
C87    C89     1.492   .     S
C87    C493    1.406   .     D
C88    C90     1.492   .     S
C88    C494    1.407   1_565 D
C89    C185    1.408   .     S
C90    C186    1.408   .     S
C91    N119    1.433   .     S
C91    C191    1.400   .     S
C92    N120    1.433   .     S
C92    C192    1.400   .     S
C93    H116    1.092   .     S
C93    C203    1.396   .     S
C94    H117    1.091   .     S
C94    C204    1.396   .     S
C95    H118    1.092   .     S
C95    C201    1.396   .     S
C95    C423    1.699   .     S
O96    C197    1.221   .     D
O97    C198    1.221   .     D
O98    C195    1.221   .     S
O98    H470    1.145   .     S
O99    C196    1.221   .     D
O100   C193    1.221   .     D
O101   C194    1.221   .     D
N119   C197    1.422   .     S
N120   C198    1.421   .     S
C121   C127    1.394   .     D
C121   C149    1.409   .     S
C121   H162    1.091   .     S
C122   C128    1.394   .     D
C122   C150    1.409   .     S
C122   H163    1.091   .     S
C123   C129    1.393   .     S
C123   H164    1.091   .     S
C123   C275    1.699   .     S
C123   C485    1.409   .     S
C124   C130    1.393   .     S
C124   H165    1.091   .     S
C124   C486    1.409   .     D
C125   C131    1.394   .     D
C125   H166    1.091   .     S
C126   C132    1.394   .     D
C126   H167    1.091   .     S
C127   C151    1.400   .     S
C127   H168    1.089   .     S
C128   C152    1.400   .     S
C128   H169    1.089   .     S
C129   H170    1.090   .     S
C129   C487    1.400   .     D
C130   H171    1.090   .     S
C130   C488    1.401   .     D
C131   H172    1.089   .     S
C132   H173    1.090   .     S
C133   C139    1.496   .     S
C133   N179    1.421   .     S
C134   C140    1.496   .     S
C134   N180    1.421   .     S
C135   C141    1.495   .     D
C135   N491    1.421   .     S
C136   C142    1.495   .     S
C136   N492    1.421   .     S
C137   C143    1.495   .     S
C138   C144    1.495   .     S
C139   C214    1.396   .     S
C140   C213    1.396   .     S
C142   C155    1.396   .     S
C145   C147    1.406   .     D
C145   H174    1.090   .     S
C145   C483    1.406   .     S
C146   C148    1.406   .     D
C146   H175    1.090   .     S
C146   C484    1.406   .     S
C147   C149    1.492   .     S
C147   C481    1.406   .     S
C148   C150    1.492   .     S
C148   C482    1.406   .     S
C151   N179    1.433   .     S
C152   N180    1.433   .     S
C153   H176    1.092   .     S
C153   C200    1.396   .     D
C154   H177    1.091   .     S
C154   C199    1.396   .     D
C155   H178    1.091   .     S
H170   O278    1.145   .     S
C181   C187    1.394   .     S
C181   C209    1.409   .     D
C181   H222    1.091   .     S
C182   C188    1.394   .     D
C182   C210    1.409   .     S
C182   H223    1.091   .     S
C183   C189    1.393   .     S
C183   H224    1.091   .     S
C183   C335    1.699   .     S
C183   C497    1.409   .     S
C184   C190    1.393   .     D
C184   H225    1.091   .     S
C184   C498    1.409   1_565 S
C185   C191    1.394   .     D
C185   H226    1.091   .     S
C186   C192    1.394   .     D
C186   H227    1.091   .     S
C187   C211    1.400   .     D
C187   H228    1.089   .     S
C188   C212    1.400   .     S
C188   H229    1.089   .     S
C189   H230    1.090   .     S
C189   C499    1.400   .     S
C190   H231    1.090   .     S
C190   C500    1.401   1_565 S
C191   H232    1.089   .     S
C192   H233    1.090   .     S
C193   C199    1.496   .     S
C193   N239    1.421   .     S
C194   C200    1.496   .     S
C194   N240    1.421   .     S
C195   C201    1.495   .     D
C195   N503    1.421   1_565 S
C196   C202    1.495   .     S
C196   N504    1.421   .     S
C197   C203    1.495   .     S
C198   C204    1.495   .     S
C201   C81     1.401   1_565 S
C202   C82     1.401   1_545 D
C202   C215    1.396   .     S
C205   C207    1.406   .     D
C205   H234    1.090   .     S
C205   C495    1.406   1_565 S
C206   C208    1.406   .     D
C206   H235    1.090   .     S
C206   C496    1.406   .     S
C207   C209    1.492   .     S
C207   C493    1.406   1_565 S
C208   C210    1.492   .     S
C208   C494    1.406   .     S
C211   N239    1.433   .     S
C212   N240    1.433   .     S
C213   H236    1.092   .     S
C214   H237    1.091   .     S
C215   H238    1.091   .     S
H230   O338    1.145   .     S
C241   C247    1.393   .     S
C241   C269    1.409   .     D
C241   H282    1.091   .     S
C242   C248    1.393   .     S
C242   C270    1.409   .     D
C242   H283    1.091   .     S
C243   C249    1.393   .     D
C243   H284    1.091   .     S
C243   C509    1.409   .     S
C244   C250    1.393   .     S
C244   H285    1.091   .     S
C244   C510    1.409   .     D
C245   C251    1.393   .     S
C245   H286    1.091   .     S
C245   C389    1.408   .     D
C246   C252    1.393   .     D
C246   H287    1.091   .     S
C246   C390    1.408   .     S
C247   C271    1.400   .     D
C247   H288    1.089   .     S
C248   C272    1.400   .     D
C248   H289    1.090   .     S
C249   H290    1.089   .     S
C249   C511    1.401   .     S
C250   H291    1.089   .     S
C250   C512    1.401   .     D
C251   H292    1.089   .     S
C251   C391    1.401   .     D
C252   H293    1.090   .     S
C252   C392    1.401   .     S
C253   C259    1.496   .     S
C253   N299    1.421   .     S
C253   O400    1.221   .     D
C254   C260    1.496   .     S
C254   N300    1.421   .     S
C254   O401    1.221   .     D
C255   C261    1.495   .     S
C255   O398    1.221   .     D
C255   N515    1.421   .     S
C256   C262    1.495   .     S
C256   O399    1.221   .     D
C256   N516    1.421   .     S
C257   C263    1.495   .     S
C257   O396    1.221   .     D
C257   N419    1.421   .     S
C258   C264    1.495   .     S
C258   O397    1.221   .     D
C258   N420    1.421   .     S
C259   C334    1.396   .     D
C259   C383    1.401   .     S
C260   C333    1.396   .     D
C260   C384    1.400   .     S
C261   C381    1.400   .     S
C261   C395    1.397   .     D
C262   C275    1.396   .     S
C262   C382    1.400   .     D
C263   C379    1.400   .     D
C263   C393    1.396   .     S
C264   C380    1.401   .     D
C264   C394    1.396   .     S
C265   C267    1.406   .     D
C265   H294    1.090   .     S
C265   C507    1.406   .     S
C266   C268    1.406   .     D
C266   H295    1.090   .     S
C266   C508    1.406   .     S
C267   C269    1.492   .     S
C267   C505    1.406   .     S
C268   C270    1.492   .     S
C268   C506    1.406   .     S
C269   C365    1.408   .     S
C270   C366    1.408   .     S
C271   N299    1.433   .     S
C271   C371    1.401   .     S
C272   N300    1.433   .     S
C272   C372    1.401   .     S
C273   H296    1.092   .     S
C273   C320    1.396   .     S
C273   C383    1.396   .     D
C274   H297    1.092   .     S
C274   C319    1.396   .     S
C274   C384    1.396   .     D
C275   H298    1.091   .     S
C275   C381    1.397   .     S
O276   C377    1.221   .     D
O277   C378    1.221   .     D
O278   C375    1.221   .     S
O279   C376    1.221   .     D
O280   C373    1.221   .     D
O281   C374    1.221   .     D
N299   C377    1.421   .     S
N300   C378    1.421   .     S
C301   C307    1.393   .     S
C301   C329    1.409   .     D
C301   H342    1.091   .     S
C302   C308    1.393   .     D
C302   C330    1.409   .     S
C302   H343    1.091   .     S
C303   C309    1.393   .     D
C303   H344    1.091   .     S
C303   C521    1.409   .     S
C304   C310    1.393   .     D
C304   H345    1.091   .     S
C304   C522    1.409   1_565 S
C305   C311    1.393   .     S
C305   H346    1.091   .     S
C305   C449    1.408   .     D
C306   C312    1.393   .     D
C306   H347    1.091   .     S
C306   C450    1.408   .     S
C307   C331    1.400   .     D
C307   H348    1.089   .     S
C308   C332    1.400   .     S
C308   H349    1.090   .     S
C309   H350    1.089   .     S
C309   C523    1.401   .     S
C310   H351    1.089   .     S
C310   C524    1.401   1_565 S
C311   H352    1.089   .     S
C311   C451    1.401   .     D
C312   H353    1.090   .     S
C312   C452    1.401   .     S
C313   C319    1.496   .     S
C313   N359    1.421   .     S
C313   O460    1.221   .     D
C314   C320    1.496   .     S
C314   N360    1.421   .     S
C314   O461    1.221   .     D
C315   C321    1.495   .     S
C315   O458    1.221   .     D
C315   N527    1.421   1_565 S
C316   C322    1.495   .     S
C316   O459    1.221   .     D
C316   N528    1.421   .     S
C317   C323    1.495   .     S
C317   O456    1.221   .     D
C317   N479    1.421   .     S
C318   C324    1.495   .     S
C318   O457    1.221   .     D
C318   N480    1.421   .     S
C319   C443    1.401   .     D
C320   C444    1.400   .     D
C321   C441    1.400   1_565 S
C321   C455    1.397   .     D
C322   C335    1.396   .     S
C322   C442    1.400   1_545 D
C323   C439    1.400   .     S
C323   C453    1.396   .     D
C324   C440    1.401   .     S
C324   C454    1.396   .     D
C325   C327    1.406   .     D
C325   H354    1.090   .     S
C325   C519    1.406   1_565 S
C326   C328    1.406   .     D
C326   H355    1.090   .     S
C326   C520    1.406   .     S
C327   C329    1.492   .     S
C327   C517    1.406   1_565 S
C328   C330    1.492   .     S
C328   C518    1.406   .     S
C329   C425    1.408   .     S
C330   C426    1.408   .     D
C331   N359    1.433   .     S
C331   C431    1.401   .     S
C332   N360    1.433   .     S
C332   C432    1.401   .     D
C333   H356    1.092   .     S
C333   C443    1.396   .     S
C334   H357    1.092   .     S
C334   C444    1.396   .     S
C335   H358    1.091   .     S
C335   C441    1.397   .     S
O336   C437    1.221   .     D
O337   C438    1.221   .     D
O338   C435    1.221   .     S
O339   C436    1.221   .     D
O340   C433    1.221   .     D
O341   C434    1.221   .     D
N359   C437    1.421   .     S
N360   C438    1.421   .     S
C361   C367    1.393   .     D
C361   C389    1.409   .     S
C361   H402    1.091   .     S
C362   C368    1.393   .     S
C362   C390    1.409   .     D
C362   H403    1.091   .     S
C363   C369    1.393   .     S
C363   H404    1.091   .     S
C363   C509    1.409   .     S
C364   C370    1.393   .     D
C364   H405    1.091   .     S
C364   C510    1.409   .     S
C365   C371    1.393   .     D
C365   H406    1.091   .     S
C366   C372    1.393   .     D
C366   H407    1.091   .     S
C367   C391    1.400   .     S
C367   H408    1.090   .     S
C368   C392    1.400   .     D
C368   H409    1.089   .     S
C369   H410    1.089   .     S
C369   C511    1.401   .     D
C370   H411    1.089   .     S
C370   C512    1.401   .     S
C371   H412    1.089   .     S
C372   H413    1.090   .     S
C373   C379    1.496   .     S
C373   N419    1.421   .     S
C374   C380    1.496   .     S
C374   N420    1.421   .     S
C375   C381    1.495   .     D
C375   N515    1.421   .     S
C376   C382    1.495   .     S
C376   N516    1.421   .     S
C377   C383    1.495   .     S
C378   C384    1.495   .     S
C379   C454    1.396   .     S
C380   C453    1.396   .     S
C382   C395    1.396   .     S
C385   C387    1.406   .     D
C385   H414    1.090   .     S
C385   C507    1.406   .     S
C386   C388    1.406   .     S
C386   H415    1.090   .     S
C386   C508    1.406   .     D
C387   C389    1.492   .     S
C387   C505    1.406   .     S
C388   C390    1.492   .     S
C388   C506    1.406   .     D
C391   N419    1.433   .     S
C392   N420    1.433   .     S
C393   H416    1.092   .     S
C393   C440    1.396   .     D
C394   H417    1.092   .     S
C394   C439    1.396   .     D
C395   H418    1.091   .     S
C421   C427    1.393   .     D
C421   C449    1.409   .     S
C421   H462    1.091   .     S
C422   C428    1.393   .     S
C422   C450    1.409   .     D
C422   H463    1.091   .     S
C423   C429    1.393   .     S
C423   H464    1.091   .     S
C423   C521    1.409   1_565 S
C424   C430    1.393   .     S
C424   H465    1.091   .     S
C424   C522    1.409   .     D
C425   C431    1.393   .     D
C425   H466    1.091   .     S
C426   C432    1.393   .     S
C426   H467    1.091   .     S
C427   C451    1.400   .     S
C427   H468    1.090   .     S
C428   C452    1.400   .     D
C428   H469    1.089   .     S
C429   H470    1.089   .     S
C429   C523    1.401   1_565 D
C430   H471    1.089   .     S
C430   C524    1.401   .     D
C431   H472    1.089   .     S
C432   H473    1.090   .     S
C433   C439    1.496   .     S
C433   N479    1.421   .     S
C434   C440    1.496   .     S
C434   N480    1.421   .     S
C435   C441    1.495   .     D
C435   N527    1.421   .     S
C436   C442    1.495   .     S
C436   N528    1.421   1_565 S
C437   C443    1.495   .     S
C438   C444    1.495   .     S
C441   C321    1.400   1_545 S
C442   C322    1.400   1_565 D
C442   C455    1.396   .     S
C445   C447    1.406   .     D
C445   H474    1.090   .     S
C445   C519    1.406   .     S
C446   C448    1.406   .     S
C446   H475    1.090   .     S
C446   C520    1.406   1_565 D
C447   C449    1.492   .     S
C447   C517    1.406   .     S
C448   C450    1.492   .     S
C448   C518    1.406   1_565 D
C451   N479    1.433   .     S
C452   N480    1.433   .     S
C453   H476    1.092   .     S
C454   H477    1.092   .     S
C455   H478    1.091   .     S
C481   H489    1.091   .     S
C482   H490    1.090   .     S
C483   C485    1.492   .     D
C484   C486    1.492   .     S
C487   N491    1.433   1_556 S
C488   N492    1.433   .     S
N491   C487    1.433   1_554 S
C493   C207    1.406   1_545 S
C493   H501    1.091   .     S
C494   C88     1.407   1_545 D
C494   H502    1.090   .     S
C495   C205    1.406   1_545 S
C495   C497    1.492   .     S
C496   C86     1.406   1_545 D
C496   C498    1.492   .     S
C497   C63     1.409   1_545 D
C498   C184    1.409   1_545 S
C499   C69     1.401   1_545 D
C499   N503    1.433   .     S
C500   C190    1.401   1_545 S
C500   N504    1.433   .     S
N503   C195    1.421   1_545 S
N504   C76     1.421   1_545 S
C505   H513    1.091   .     S
C506   H514    1.090   .     S
C507   C509    1.492   .     D
C508   C510    1.492   .     S
C511   N515    1.433   1_554 S
C512   N516    1.433   .     S
N515   C511    1.433   1_556 S
C517   C327    1.406   1_545 S
C517   H525    1.091   .     S
C518   C448    1.406   1_545 D
C518   H526    1.090   .     S
C519   C325    1.406   1_545 S
C519   C521    1.492   .     D
C520   C446    1.406   1_545 D
C520   C522    1.492   .     S
C521   C423    1.409   1_545 S
C522   C304    1.409   1_545 S
C523   C429    1.401   1_545 D
C523   N527    1.433   .     S
C524   C310    1.401   1_545 S
C524   N528    1.433   .     S
N527   C315    1.421   1_545 S
N528   C436    1.421   1_545 S
