data_362
_audit_creation_date              2023-09-08
_audit_creation_method            'Materials Studio'
_symmetry_space_group_name_H-M    'P1'
_symmetry_Int_Tables_number       1
_symmetry_cell_setting            triclinic
loop_
_symmetry_equiv_pos_as_xyz
  x,y,z
_cell_length_a                    52.5863
_cell_length_b                    90.9089
_cell_length_c                    6.1525
_cell_angle_alpha                 90.0000
_cell_angle_beta                  90.0000
_cell_angle_gamma                 90.0000
loop_
_atom_site_label
_atom_site_type_symbol
_atom_site_fract_x
_atom_site_fract_y
_atom_site_fract_z
_atom_site_U_iso_or_equiv
_atom_site_adp_type
_atom_site_occupancy
C1     C     0.64477   0.61657   0.75000   0.00000  Uiso   1.00
C2     C     0.14477   0.11657   0.75000   0.00000  Uiso   1.00
C3     C     0.35523   0.38343   0.25000   0.00000  Uiso   1.00
C4     C     0.85523   0.88343   0.25000   0.00000  Uiso   1.00
C5     C     0.35523   0.61657   0.75000   0.00000  Uiso   1.00
C6     C     0.85523   0.11657   0.75000   0.00000  Uiso   1.00
C7     C     0.64477   0.38343   0.25000   0.00000  Uiso   1.00
C8     C     0.14477   0.88343   0.25000   0.00000  Uiso   1.00
C9     C     0.62191   0.63942   0.75000   0.00000  Uiso   1.00
C10    C     0.12191   0.13942   0.75000   0.00000  Uiso   1.00
C11    C     0.37809   0.36058   0.25000   0.00000  Uiso   1.00
C12    C     0.87809   0.86058   0.25000   0.00000  Uiso   1.00
C13    C     0.37809   0.63942   0.75000   0.00000  Uiso   1.00
C14    C     0.87809   0.13942   0.75000   0.00000  Uiso   1.00
C15    C     0.62191   0.36058   0.25000   0.00000  Uiso   1.00
C16    C     0.12191   0.86058   0.25000   0.00000  Uiso   1.00
C17    C     0.66905   0.19373   0.75000   0.00000  Uiso   1.00
C18    C     0.16905   0.69373   0.75000   0.00000  Uiso   1.00
C19    C     0.33095   0.80627   0.25000   0.00000  Uiso   1.00
C20    C     0.83095   0.30627   0.25000   0.00000  Uiso   1.00
C21    C     0.33095   0.19373   0.75000   0.00000  Uiso   1.00
C22    C     0.83095   0.69373   0.75000   0.00000  Uiso   1.00
C23    C     0.66905   0.80627   0.25000   0.00000  Uiso   1.00
C24    C     0.16905   0.30627   0.25000   0.00000  Uiso   1.00
C25    C     0.83140   0.13979   0.75000   0.00000  Uiso   1.00
C26    C     0.33140   0.63979   0.75000   0.00000  Uiso   1.00
C27    C     0.16860   0.86021   0.25000   0.00000  Uiso   1.00
C28    C     0.66860   0.36021   0.25000   0.00000  Uiso   1.00
C29    C     0.16860   0.13979   0.75000   0.00000  Uiso   1.00
C30    C     0.66860   0.63979   0.75000   0.00000  Uiso   1.00
C31    C     0.83140   0.86021   0.25000   0.00000  Uiso   1.00
C32    C     0.33140   0.36021   0.25000   0.00000  Uiso   1.00
C33    C     0.95133   0.09952   0.75000   0.00000  Uiso   1.00
C34    C     0.45133   0.59952   0.75000   0.00000  Uiso   1.00
C35    C     0.04867   0.90048   0.25000   0.00000  Uiso   1.00
C36    C     0.54867   0.40048   0.25000   0.00000  Uiso   1.00
C37    C     0.04867   0.09952   0.75000   0.00000  Uiso   1.00
C38    C     0.54867   0.59952   0.75000   0.00000  Uiso   1.00
C39    C     0.95133   0.90048   0.25000   0.00000  Uiso   1.00
C40    C     0.45133   0.40048   0.25000   0.00000  Uiso   1.00
C41    C     0.97642   0.09106   0.75000   0.00000  Uiso   1.00
C42    C     0.47642   0.59106   0.75000   0.00000  Uiso   1.00
C43    C     0.02358   0.90894   0.25000   0.00000  Uiso   1.00
C44    C     0.52358   0.40894   0.25000   0.00000  Uiso   1.00
C45    C     0.02358   0.09106   0.75000   0.00000  Uiso   1.00
C46    C     0.52358   0.59106   0.75000   0.00000  Uiso   1.00
C47    C     0.97642   0.90894   0.25000   0.00000  Uiso   1.00
C48    C     0.47642   0.40894   0.25000   0.00000  Uiso   1.00
C49    C     0.62157   0.20945   0.75000   0.00000  Uiso   1.00
C50    C     0.12157   0.70945   0.75000   0.00000  Uiso   1.00
C51    C     0.37843   0.79055   0.25000   0.00000  Uiso   1.00
C52    C     0.87843   0.29055   0.25000   0.00000  Uiso   1.00
C53    C     0.37843   0.20945   0.75000   0.00000  Uiso   1.00
C54    C     0.87843   0.70945   0.75000   0.00000  Uiso   1.00
C55    C     0.62157   0.79055   0.25000   0.00000  Uiso   1.00
C56    C     0.12157   0.29055   0.25000   0.00000  Uiso   1.00
C57    C     0.59613   0.61550   0.75000   0.00000  Uiso   1.00
C58    C     0.09613   0.11550   0.75000   0.00000  Uiso   1.00
C59    C     0.40387   0.38450   0.25000   0.00000  Uiso   1.00
C60    C     0.90387   0.88450   0.25000   0.00000  Uiso   1.00
C61    C     0.40387   0.61550   0.75000   0.00000  Uiso   1.00
C62    C     0.90387   0.11550   0.75000   0.00000  Uiso   1.00
C63    C     0.59613   0.38450   0.25000   0.00000  Uiso   1.00
C64    C     0.09613   0.88450   0.25000   0.00000  Uiso   1.00
C65    C     0.52290   0.25750   0.75000   0.00000  Uiso   1.00
C66    C     0.02290   0.75750   0.75000   0.00000  Uiso   1.00
C67    C     0.47710   0.74250   0.25000   0.00000  Uiso   1.00
C68    C     0.97710   0.24250   0.25000   0.00000  Uiso   1.00
C69    C     0.47710   0.25750   0.75000   0.00000  Uiso   1.00
C70    C     0.97710   0.75750   0.75000   0.00000  Uiso   1.00
C71    C     0.52290   0.74250   0.25000   0.00000  Uiso   1.00
C72    C     0.02290   0.24250   0.25000   0.00000  Uiso   1.00
C73    C     0.54981   0.21803   0.75000   0.00000  Uiso   1.00
C74    C     0.04981   0.71803   0.75000   0.00000  Uiso   1.00
C75    C     0.45019   0.78197   0.25000   0.00000  Uiso   1.00
C76    C     0.95019   0.28197   0.25000   0.00000  Uiso   1.00
C77    C     0.45019   0.21803   0.75000   0.00000  Uiso   1.00
C78    C     0.95019   0.71803   0.75000   0.00000  Uiso   1.00
C79    C     0.54981   0.78197   0.25000   0.00000  Uiso   1.00
C80    C     0.04981   0.28197   0.25000   0.00000  Uiso   1.00
C81    C     0.64556   0.18629   0.75000   0.00000  Uiso   1.00
C82    C     0.14556   0.68629   0.75000   0.00000  Uiso   1.00
C83    C     0.35444   0.81371   0.25000   0.00000  Uiso   1.00
C84    C     0.85444   0.31371   0.25000   0.00000  Uiso   1.00
C85    C     0.35444   0.18629   0.75000   0.00000  Uiso   1.00
C86    C     0.85444   0.68629   0.75000   0.00000  Uiso   1.00
C87    C     0.64556   0.81371   0.25000   0.00000  Uiso   1.00
C88    C     0.14556   0.31371   0.25000   0.00000  Uiso   1.00
C89    C     0.71872   0.19159   0.75000   0.00000  Uiso   1.00
C90    C     0.21872   0.69159   0.75000   0.00000  Uiso   1.00
C91    C     0.28128   0.80841   0.25000   0.00000  Uiso   1.00
C92    C     0.78128   0.30841   0.25000   0.00000  Uiso   1.00
C93    C     0.28128   0.19159   0.75000   0.00000  Uiso   1.00
C94    C     0.78128   0.69159   0.75000   0.00000  Uiso   1.00
C95    C     0.71872   0.80841   0.25000   0.00000  Uiso   1.00
C96    C     0.21872   0.30841   0.25000   0.00000  Uiso   1.00
C97    C     0.73751   0.17982   0.75000   0.00000  Uiso   1.00
C98    C     0.23751   0.67982   0.75000   0.00000  Uiso   1.00
C99    C     0.26249   0.82018   0.25000   0.00000  Uiso   1.00
C100   C     0.76249   0.32018   0.25000   0.00000  Uiso   1.00
C101   C     0.26249   0.17982   0.75000   0.00000  Uiso   1.00
C102   C     0.76249   0.67982   0.75000   0.00000  Uiso   1.00
C103   C     0.73751   0.82018   0.25000   0.00000  Uiso   1.00
C104   C     0.23751   0.32018   0.25000   0.00000  Uiso   1.00
C105   C     0.73702   0.15301   0.75000   0.00000  Uiso   1.00
C106   C     0.23702   0.65301   0.75000   0.00000  Uiso   1.00
C107   C     0.26299   0.84699   0.25000   0.00000  Uiso   1.00
C108   C     0.76299   0.34699   0.25000   0.00000  Uiso   1.00
C109   C     0.26299   0.15301   0.75000   0.00000  Uiso   1.00
C110   C     0.76299   0.65301   0.75000   0.00000  Uiso   1.00
C111   C     0.73702   0.84699   0.25000   0.00000  Uiso   1.00
C112   C     0.23702   0.34699   0.25000   0.00000  Uiso   1.00
C113   C     0.76365   0.15364   0.75000   0.00000  Uiso   1.00
C114   C     0.26365   0.65364   0.75000   0.00000  Uiso   1.00
C115   C     0.23635   0.84636   0.25000   0.00000  Uiso   1.00
C116   C     0.73634   0.34636   0.25000   0.00000  Uiso   1.00
C117   C     0.23635   0.15364   0.75000   0.00000  Uiso   1.00
C118   C     0.73634   0.65364   0.75000   0.00000  Uiso   1.00
C119   C     0.76365   0.84636   0.25000   0.00000  Uiso   1.00
C120   C     0.26365   0.34636   0.25000   0.00000  Uiso   1.00
C121   C     0.78282   0.14212   0.75000   0.00000  Uiso   1.00
C122   C     0.28282   0.64212   0.75000   0.00000  Uiso   1.00
C123   C     0.21719   0.85788   0.25000   0.00000  Uiso   1.00
C124   C     0.71719   0.35788   0.25000   0.00000  Uiso   1.00
C125   C     0.21719   0.14212   0.75000   0.00000  Uiso   1.00
C126   C     0.71719   0.64212   0.75000   0.00000  Uiso   1.00
C127   C     0.78282   0.85788   0.25000   0.00000  Uiso   1.00
C128   C     0.28282   0.35788   0.25000   0.00000  Uiso   1.00
C129   C     0.83223   0.12427   0.75000   0.00000  Uiso   1.00
C130   C     0.33223   0.62427   0.75000   0.00000  Uiso   1.00
C131   C     0.16777   0.87573   0.25000   0.00000  Uiso   1.00
C132   C     0.66777   0.37573   0.25000   0.00000  Uiso   1.00
C133   C     0.16777   0.12427   0.75000   0.00000  Uiso   1.00
C134   C     0.66777   0.62427   0.75000   0.00000  Uiso   1.00
C135   C     0.83223   0.87573   0.25000   0.00000  Uiso   1.00
C136   C     0.33223   0.37573   0.25000   0.00000  Uiso   1.00
C137   C     0.92757   0.09225   0.75000   0.00000  Uiso   1.00
C138   C     0.42757   0.59225   0.75000   0.00000  Uiso   1.00
C139   C     0.07243   0.90775   0.25000   0.00000  Uiso   1.00
C140   C     0.57243   0.40775   0.25000   0.00000  Uiso   1.00
C141   C     0.07243   0.09225   0.75000   0.00000  Uiso   1.00
C142   C     0.57243   0.59225   0.75000   0.00000  Uiso   1.00
C143   C     0.92757   0.90775   0.25000   0.00000  Uiso   1.00
C144   C     0.42757   0.40775   0.25000   0.00000  Uiso   1.00
C145   C     0.59558   0.23326   0.75000   0.00000  Uiso   1.00
C146   C     0.09559   0.73326   0.75000   0.00000  Uiso   1.00
C147   C     0.40442   0.76674   0.25000   0.00000  Uiso   1.00
C148   C     0.90441   0.26674   0.25000   0.00000  Uiso   1.00
C149   C     0.40442   0.23326   0.75000   0.00000  Uiso   1.00
C150   C     0.90441   0.73326   0.75000   0.00000  Uiso   1.00
C151   C     0.59558   0.76674   0.25000   0.00000  Uiso   1.00
C152   C     0.09559   0.26674   0.25000   0.00000  Uiso   1.00
C153   C     0.64520   0.21686   0.75000   0.00000  Uiso   1.00
C154   C     0.14520   0.71686   0.75000   0.00000  Uiso   1.00
C155   C     0.35481   0.78314   0.25000   0.00000  Uiso   1.00
C156   C     0.85481   0.28314   0.25000   0.00000  Uiso   1.00
C157   C     0.35481   0.21686   0.75000   0.00000  Uiso   1.00
C158   C     0.85481   0.71686   0.75000   0.00000  Uiso   1.00
C159   C     0.64520   0.78314   0.25000   0.00000  Uiso   1.00
C160   C     0.14520   0.28314   0.25000   0.00000  Uiso   1.00
C161   C     0.59538   0.59999   0.75000   0.00000  Uiso   1.00
C162   C     0.09538   0.09999   0.75000   0.00000  Uiso   1.00
C163   C     0.40462   0.40001   0.25000   0.00000  Uiso   1.00
C164   C     0.90462   0.90001   0.25000   0.00000  Uiso   1.00
C165   C     0.40462   0.59999   0.75000   0.00000  Uiso   1.00
C166   C     0.90462   0.09999   0.75000   0.00000  Uiso   1.00
C167   C     0.59538   0.40001   0.25000   0.00000  Uiso   1.00
C168   C     0.09538   0.90001   0.25000   0.00000  Uiso   1.00
C169   C     0.57246   0.62281   0.75000   0.00000  Uiso   1.00
C170   C     0.07246   0.12281   0.75000   0.00000  Uiso   1.00
C171   C     0.42754   0.37719   0.25000   0.00000  Uiso   1.00
C172   C     0.92754   0.87719   0.25000   0.00000  Uiso   1.00
C173   C     0.42754   0.62281   0.75000   0.00000  Uiso   1.00
C174   C     0.92754   0.12281   0.75000   0.00000  Uiso   1.00
C175   C     0.57246   0.37719   0.25000   0.00000  Uiso   1.00
C176   C     0.07246   0.87719   0.25000   0.00000  Uiso   1.00
C177   C     0.47921   0.38808   0.75000   0.00000  Uiso   1.00
C178   C     0.97921   0.88808   0.75000   0.00000  Uiso   1.00
C179   C     0.52079   0.61192   0.25000   0.00000  Uiso   1.00
C180   C     0.02079   0.11192   0.25000   0.00000  Uiso   1.00
C181   C     0.52079   0.38808   0.75000   0.00000  Uiso   1.00
C182   C     0.02079   0.88808   0.75000   0.00000  Uiso   1.00
C183   C     0.47921   0.61192   0.25000   0.00000  Uiso   1.00
C184   C     0.97921   0.11192   0.25000   0.00000  Uiso   1.00
C185   C     0.48691   0.40343   0.75000   0.00000  Uiso   1.00
C186   C     0.98691   0.90343   0.75000   0.00000  Uiso   1.00
C187   C     0.51309   0.59657   0.25000   0.00000  Uiso   1.00
C188   C     0.01309   0.09657   0.25000   0.00000  Uiso   1.00
C189   C     0.51309   0.40343   0.75000   0.00000  Uiso   1.00
C190   C     0.01309   0.90343   0.75000   0.00000  Uiso   1.00
C191   C     0.48691   0.59657   0.25000   0.00000  Uiso   1.00
C192   C     0.98691   0.09657   0.25000   0.00000  Uiso   1.00
C193   C     0.52732   0.41649   0.75000   0.00000  Uiso   1.00
C194   C     0.02732   0.91649   0.75000   0.00000  Uiso   1.00
C195   C     0.47268   0.58351   0.25000   0.00000  Uiso   1.00
C196   C     0.97268   0.08351   0.25000   0.00000  Uiso   1.00
C197   C     0.47268   0.41649   0.75000   0.00000  Uiso   1.00
C198   C     0.97268   0.91649   0.75000   0.00000  Uiso   1.00
C199   C     0.52732   0.58351   0.25000   0.00000  Uiso   1.00
C200   C     0.02732   0.08351   0.25000   0.00000  Uiso   1.00
C201   C     0.51310   0.42953   0.75000   0.00000  Uiso   1.00
C202   C     0.01310   0.92953   0.75000   0.00000  Uiso   1.00
C203   C     0.48690   0.57047   0.25000   0.00000  Uiso   1.00
C204   C     0.98690   0.07047   0.25000   0.00000  Uiso   1.00
C205   C     0.48690   0.42953   0.75000   0.00000  Uiso   1.00
C206   C     0.98690   0.92953   0.75000   0.00000  Uiso   1.00
C207   C     0.51310   0.57047   0.25000   0.00000  Uiso   1.00
C208   C     0.01310   0.07047   0.25000   0.00000  Uiso   1.00
C209   C     0.52080   0.44487   0.75000   0.00000  Uiso   1.00
C210   C     0.02080   0.94487   0.75000   0.00000  Uiso   1.00
C211   C     0.47920   0.55513   0.25000   0.00000  Uiso   1.00
C212   C     0.97920   0.05513   0.25000   0.00000  Uiso   1.00
C213   C     0.47920   0.44487   0.75000   0.00000  Uiso   1.00
C214   C     0.97920   0.94487   0.75000   0.00000  Uiso   1.00
C215   C     0.52080   0.55513   0.25000   0.00000  Uiso   1.00
C216   C     0.02080   0.05513   0.25000   0.00000  Uiso   1.00
C217   C     0.52283   0.49391   0.75000   0.00000  Uiso   1.00
C218   C     0.02283   0.99391   0.75000   0.00000  Uiso   1.00
C219   C     0.47717   0.50609   0.25000   0.00000  Uiso   1.00
C220   C     0.97717   0.00609   0.25000   0.00000  Uiso   1.00
C221   C     0.47717   0.49391   0.75000   0.00000  Uiso   1.00
C222   C     0.97717   0.99391   0.75000   0.00000  Uiso   1.00
C223   C     0.52283   0.50609   0.25000   0.00000  Uiso   1.00
C224   C     0.02283   0.00609   0.25000   0.00000  Uiso   1.00
C225   C     0.52282   0.54234   0.75000   0.00000  Uiso   1.00
C226   C     0.02282   0.04234   0.75000   0.00000  Uiso   1.00
C227   C     0.47718   0.45766   0.25000   0.00000  Uiso   1.00
C228   C     0.97718   0.95766   0.25000   0.00000  Uiso   1.00
C229   C     0.47718   0.54234   0.75000   0.00000  Uiso   1.00
C230   C     0.97718   0.04234   0.75000   0.00000  Uiso   1.00
C231   C     0.52282   0.45766   0.25000   0.00000  Uiso   1.00
C232   C     0.02282   0.95766   0.25000   0.00000  Uiso   1.00
C233   C     0.47720   0.30604   0.75000   0.00000  Uiso   1.00
C234   C     0.97720   0.80604   0.75000   0.00000  Uiso   1.00
C235   C     0.52280   0.69396   0.25000   0.00000  Uiso   1.00
C236   C     0.02280   0.19396   0.25000   0.00000  Uiso   1.00
C237   C     0.52280   0.30604   0.75000   0.00000  Uiso   1.00
C238   C     0.02280   0.80604   0.75000   0.00000  Uiso   1.00
C239   C     0.47720   0.69396   0.25000   0.00000  Uiso   1.00
C240   C     0.97720   0.19396   0.25000   0.00000  Uiso   1.00
C241   C     0.47717   0.33909   0.75000   0.00000  Uiso   1.00
C242   C     0.97717   0.83909   0.75000   0.00000  Uiso   1.00
C243   C     0.52283   0.66091   0.25000   0.00000  Uiso   1.00
C244   C     0.02283   0.16091   0.25000   0.00000  Uiso   1.00
C245   C     0.52283   0.33909   0.75000   0.00000  Uiso   1.00
C246   C     0.02283   0.83909   0.75000   0.00000  Uiso   1.00
C247   C     0.47717   0.66091   0.25000   0.00000  Uiso   1.00
C248   C     0.97717   0.16091   0.25000   0.00000  Uiso   1.00
C249   C     0.42746   0.24092   0.75000   0.00000  Uiso   1.00
C250   C     0.92746   0.74092   0.75000   0.00000  Uiso   1.00
C251   C     0.57254   0.75908   0.25000   0.00000  Uiso   1.00
C252   C     0.07254   0.25908   0.25000   0.00000  Uiso   1.00
C253   C     0.57254   0.24092   0.75000   0.00000  Uiso   1.00
C254   C     0.07254   0.74092   0.75000   0.00000  Uiso   1.00
C255   C     0.42746   0.75908   0.25000   0.00000  Uiso   1.00
C256   C     0.92746   0.25908   0.25000   0.00000  Uiso   1.00
C257   C     0.33175   0.20921   0.75000   0.00000  Uiso   1.00
C258   C     0.83175   0.70921   0.75000   0.00000  Uiso   1.00
C259   C     0.66825   0.79079   0.25000   0.00000  Uiso   1.00
C260   C     0.16825   0.29079   0.25000   0.00000  Uiso   1.00
C261   C     0.66825   0.20921   0.75000   0.00000  Uiso   1.00
C262   C     0.16825   0.70921   0.75000   0.00000  Uiso   1.00
C263   C     0.33175   0.79079   0.25000   0.00000  Uiso   1.00
C264   C     0.83175   0.29079   0.25000   0.00000  Uiso   1.00
C265   C     0.30263   0.17004   0.75000   0.00000  Uiso   1.00
C266   C     0.80263   0.67004   0.75000   0.00000  Uiso   1.00
C267   C     0.69737   0.82996   0.25000   0.00000  Uiso   1.00
C268   C     0.19737   0.32996   0.25000   0.00000  Uiso   1.00
C269   C     0.69737   0.17004   0.75000   0.00000  Uiso   1.00
C270   C     0.19737   0.67004   0.75000   0.00000  Uiso   1.00
C271   C     0.30263   0.82996   0.25000   0.00000  Uiso   1.00
C272   C     0.80263   0.32996   0.25000   0.00000  Uiso   1.00
C273   C     0.37889   0.62390   0.75000   0.00000  Uiso   1.00
C274   C     0.87889   0.12390   0.75000   0.00000  Uiso   1.00
C275   C     0.62111   0.37611   0.25000   0.00000  Uiso   1.00
C276   C     0.12111   0.87611   0.25000   0.00000  Uiso   1.00
C277   C     0.62111   0.62390   0.75000   0.00000  Uiso   1.00
C278   C     0.12111   0.12390   0.75000   0.00000  Uiso   1.00
C279   C     0.37889   0.37611   0.25000   0.00000  Uiso   1.00
C280   C     0.87889   0.87611   0.25000   0.00000  Uiso   1.00
C281   C     0.09649   0.71776   0.75000   0.00000  Uiso   1.00
C282   C     0.59649   0.21776   0.75000   0.00000  Uiso   1.00
C283   C     0.90351   0.28224   0.25000   0.00000  Uiso   1.00
C284   C     0.40351   0.78224   0.25000   0.00000  Uiso   1.00
C285   C     0.90351   0.71776   0.75000   0.00000  Uiso   1.00
C286   C     0.40351   0.21776   0.75000   0.00000  Uiso   1.00
C287   C     0.09649   0.28224   0.25000   0.00000  Uiso   1.00
C288   C     0.59649   0.78224   0.25000   0.00000  Uiso   1.00
C289   C     0.22331   0.16676   0.75000   0.00000  Uiso   1.00
C290   C     0.72331   0.66676   0.75000   0.00000  Uiso   1.00
C291   C     0.77669   0.83325   0.25000   0.00000  Uiso   1.00
C292   C     0.27669   0.33325   0.25000   0.00000  Uiso   1.00
C293   C     0.77669   0.16676   0.75000   0.00000  Uiso   1.00
C294   C     0.27669   0.66676   0.75000   0.00000  Uiso   1.00
C295   C     0.22331   0.83325   0.25000   0.00000  Uiso   1.00
C296   C     0.72331   0.33325   0.25000   0.00000  Uiso   1.00
C297   C     0.19644   0.16295   0.75000   0.00000  Uiso   1.00
C298   C     0.69644   0.66295   0.75000   0.00000  Uiso   1.00
C299   C     0.80356   0.83705   0.25000   0.00000  Uiso   1.00
C300   C     0.30356   0.33705   0.25000   0.00000  Uiso   1.00
C301   C     0.80356   0.16295   0.75000   0.00000  Uiso   1.00
C302   C     0.30356   0.66295   0.75000   0.00000  Uiso   1.00
C303   C     0.19644   0.83705   0.25000   0.00000  Uiso   1.00
C304   C     0.69644   0.33705   0.25000   0.00000  Uiso   1.00
C305   C     0.14493   0.14712   0.75000   0.00000  Uiso   1.00
C306   C     0.64493   0.64712   0.75000   0.00000  Uiso   1.00
C307   C     0.85508   0.85288   0.25000   0.00000  Uiso   1.00
C308   C     0.35508   0.35288   0.25000   0.00000  Uiso   1.00
C309   C     0.85508   0.14712   0.75000   0.00000  Uiso   1.00
C310   C     0.35508   0.64712   0.75000   0.00000  Uiso   1.00
C311   C     0.14493   0.85288   0.25000   0.00000  Uiso   1.00
C312   C     0.64493   0.35288   0.25000   0.00000  Uiso   1.00
C313   C     0.04950   0.11508   0.75000   0.00000  Uiso   1.00
C314   C     0.54950   0.61508   0.75000   0.00000  Uiso   1.00
C315   C     0.95050   0.88492   0.25000   0.00000  Uiso   1.00
C316   C     0.45050   0.38492   0.25000   0.00000  Uiso   1.00
C317   C     0.95050   0.11508   0.75000   0.00000  Uiso   1.00
C318   C     0.45050   0.61508   0.75000   0.00000  Uiso   1.00
C319   C     0.04950   0.88492   0.25000   0.00000  Uiso   1.00
C320   C     0.54950   0.38492   0.25000   0.00000  Uiso   1.00
C321   C     0.42712   0.21038   0.75000   0.00000  Uiso   1.00
C322   C     0.92712   0.71038   0.75000   0.00000  Uiso   1.00
C323   C     0.57289   0.78962   0.25000   0.00000  Uiso   1.00
C324   C     0.07289   0.28962   0.25000   0.00000  Uiso   1.00
C325   C     0.57289   0.21038   0.75000   0.00000  Uiso   1.00
C326   C     0.07289   0.71038   0.75000   0.00000  Uiso   1.00
C327   C     0.42712   0.78962   0.25000   0.00000  Uiso   1.00
C328   C     0.92712   0.28962   0.25000   0.00000  Uiso   1.00
C329   C     0.37752   0.19392   0.75000   0.00000  Uiso   1.00
C330   C     0.87752   0.69392   0.75000   0.00000  Uiso   1.00
C331   C     0.62248   0.80608   0.25000   0.00000  Uiso   1.00
C332   C     0.12248   0.30608   0.25000   0.00000  Uiso   1.00
C333   C     0.62248   0.19392   0.75000   0.00000  Uiso   1.00
C334   C     0.12248   0.69392   0.75000   0.00000  Uiso   1.00
C335   C     0.37752   0.80608   0.25000   0.00000  Uiso   1.00
C336   C     0.87752   0.30608   0.25000   0.00000  Uiso   1.00
C337   C     0.97709   0.07553   0.75000   0.00000  Uiso   1.00
C338   C     0.47709   0.57553   0.75000   0.00000  Uiso   1.00
C339   C     0.02291   0.92447   0.25000   0.00000  Uiso   1.00
C340   C     0.52291   0.42447   0.25000   0.00000  Uiso   1.00
C341   C     0.02291   0.07553   0.75000   0.00000  Uiso   1.00
C342   C     0.52291   0.57553   0.75000   0.00000  Uiso   1.00
C343   C     0.97709   0.92447   0.25000   0.00000  Uiso   1.00
C344   C     0.47709   0.42447   0.25000   0.00000  Uiso   1.00
O345   O     0.72417   0.20460   0.75000   0.00000  Uiso   1.00
O346   O     0.22417   0.70460   0.75000   0.00000  Uiso   1.00
O347   O     0.27583   0.79540   0.25000   0.00000  Uiso   1.00
O348   O     0.77583   0.29540   0.25000   0.00000  Uiso   1.00
O349   O     0.27583   0.20460   0.75000   0.00000  Uiso   1.00
O350   O     0.77583   0.70460   0.75000   0.00000  Uiso   1.00
O351   O     0.72417   0.79540   0.25000   0.00000  Uiso   1.00
O352   O     0.22417   0.29540   0.25000   0.00000  Uiso   1.00
O353   O     0.77761   0.12908   0.75000   0.00000  Uiso   1.00
O354   O     0.27761   0.62908   0.75000   0.00000  Uiso   1.00
O355   O     0.22239   0.87092   0.25000   0.00000  Uiso   1.00
O356   O     0.72239   0.37092   0.25000   0.00000  Uiso   1.00
O357   O     0.22239   0.12908   0.75000   0.00000  Uiso   1.00
O358   O     0.72239   0.62908   0.75000   0.00000  Uiso   1.00
O359   O     0.77761   0.87092   0.25000   0.00000  Uiso   1.00
O360   O     0.27761   0.37092   0.25000   0.00000  Uiso   1.00
O361   O     0.45709   0.38418   0.75000   0.00000  Uiso   1.00
O362   O     0.95709   0.88418   0.75000   0.00000  Uiso   1.00
O363   O     0.54291   0.61582   0.25000   0.00000  Uiso   1.00
O364   O     0.04291   0.11582   0.25000   0.00000  Uiso   1.00
O365   O     0.54291   0.38418   0.75000   0.00000  Uiso   1.00
O366   O     0.04291   0.88418   0.75000   0.00000  Uiso   1.00
O367   O     0.45709   0.61582   0.25000   0.00000  Uiso   1.00
O368   O     0.95709   0.11582   0.25000   0.00000  Uiso   1.00
O369   O     0.54292   0.44878   0.75000   0.00000  Uiso   1.00
O370   O     0.04292   0.94878   0.75000   0.00000  Uiso   1.00
O371   O     0.45708   0.55123   0.25000   0.00000  Uiso   1.00
O372   O     0.95708   0.05123   0.25000   0.00000  Uiso   1.00
O373   O     0.45708   0.44878   0.75000   0.00000  Uiso   1.00
O374   O     0.95708   0.94878   0.75000   0.00000  Uiso   1.00
O375   O     0.54292   0.55123   0.25000   0.00000  Uiso   1.00
O376   O     0.04292   0.05123   0.25000   0.00000  Uiso   1.00
O377   O     0.31928   0.16075   0.75000   0.00000  Uiso   1.00
O378   O     0.81928   0.66075   0.75000   0.00000  Uiso   1.00
O379   O     0.68072   0.83926   0.25000   0.00000  Uiso   1.00
O380   O     0.18072   0.33926   0.25000   0.00000  Uiso   1.00
O381   O     0.68072   0.16075   0.75000   0.00000  Uiso   1.00
O382   O     0.18072   0.66075   0.75000   0.00000  Uiso   1.00
O383   O     0.31928   0.83926   0.25000   0.00000  Uiso   1.00
O384   O     0.81928   0.33926   0.25000   0.00000  Uiso   1.00
O385   O     0.17954   0.17209   0.75000   0.00000  Uiso   1.00
O386   O     0.67954   0.67209   0.75000   0.00000  Uiso   1.00
O387   O     0.82046   0.82791   0.25000   0.00000  Uiso   1.00
O388   O     0.32046   0.32791   0.25000   0.00000  Uiso   1.00
O389   O     0.82046   0.17209   0.75000   0.00000  Uiso   1.00
O390   O     0.32046   0.67209   0.75000   0.00000  Uiso   1.00
O391   O     0.17954   0.82791   0.25000   0.00000  Uiso   1.00
O392   O     0.67954   0.32791   0.25000   0.00000  Uiso   1.00
N393   N     0.80685   0.68575   0.75000   0.00000  Uiso   1.00
N394   N     0.30685   0.18575   0.75000   0.00000  Uiso   1.00
N395   N     0.19315   0.31425   0.25000   0.00000  Uiso   1.00
N396   N     0.69315   0.81425   0.25000   0.00000  Uiso   1.00
N397   N     0.19315   0.68575   0.75000   0.00000  Uiso   1.00
N398   N     0.69315   0.18575   0.75000   0.00000  Uiso   1.00
N399   N     0.80685   0.31425   0.25000   0.00000  Uiso   1.00
N400   N     0.30685   0.81425   0.25000   0.00000  Uiso   1.00
N401   N     0.80719   0.14787   0.75000   0.00000  Uiso   1.00
N402   N     0.30719   0.64787   0.75000   0.00000  Uiso   1.00
N403   N     0.19282   0.85213   0.25000   0.00000  Uiso   1.00
N404   N     0.69282   0.35213   0.25000   0.00000  Uiso   1.00
N405   N     0.19282   0.14787   0.75000   0.00000  Uiso   1.00
N406   N     0.69282   0.64787   0.75000   0.00000  Uiso   1.00
N407   N     0.80719   0.85213   0.25000   0.00000  Uiso   1.00
N408   N     0.30719   0.35213   0.25000   0.00000  Uiso   1.00
H409   H     0.72681   0.14268   0.75000   0.00000  Uiso   1.00
H410   H     0.22681   0.64268   0.75000   0.00000  Uiso   1.00
H411   H     0.27319   0.85732   0.25000   0.00000  Uiso   1.00
H412   H     0.77319   0.35732   0.25000   0.00000  Uiso   1.00
H413   H     0.27319   0.14268   0.75000   0.00000  Uiso   1.00
H414   H     0.77319   0.64268   0.75000   0.00000  Uiso   1.00
H415   H     0.72681   0.85732   0.25000   0.00000  Uiso   1.00
H416   H     0.22681   0.35732   0.25000   0.00000  Uiso   1.00
H417   H     0.57432   0.25270   0.75000   0.00000  Uiso   1.00
H418   H     0.07432   0.75270   0.75000   0.00000  Uiso   1.00
H419   H     0.42568   0.74730   0.25000   0.00000  Uiso   1.00
H420   H     0.92568   0.24730   0.25000   0.00000  Uiso   1.00
H421   H     0.42568   0.25270   0.75000   0.00000  Uiso   1.00
H422   H     0.92568   0.75270   0.75000   0.00000  Uiso   1.00
H423   H     0.57432   0.74730   0.25000   0.00000  Uiso   1.00
H424   H     0.07432   0.24730   0.25000   0.00000  Uiso   1.00
H425   H     0.61247   0.23994   0.75000   0.00000  Uiso   1.00
H426   H     0.11247   0.73994   0.75000   0.00000  Uiso   1.00
H427   H     0.38753   0.76006   0.25000   0.00000  Uiso   1.00
H428   H     0.88753   0.26006   0.25000   0.00000  Uiso   1.00
H429   H     0.38753   0.23994   0.75000   0.00000  Uiso   1.00
H430   H     0.88753   0.73994   0.75000   0.00000  Uiso   1.00
H431   H     0.61247   0.76006   0.25000   0.00000  Uiso   1.00
H432   H     0.11247   0.26006   0.25000   0.00000  Uiso   1.00
H433   H     0.64666   0.22866   0.75000   0.00000  Uiso   1.00
H434   H     0.14666   0.72866   0.75000   0.00000  Uiso   1.00
H435   H     0.35335   0.77134   0.25000   0.00000  Uiso   1.00
H436   H     0.85335   0.27134   0.25000   0.00000  Uiso   1.00
H437   H     0.35335   0.22866   0.75000   0.00000  Uiso   1.00
H438   H     0.85335   0.72866   0.75000   0.00000  Uiso   1.00
H439   H     0.64666   0.77134   0.25000   0.00000  Uiso   1.00
H440   H     0.14666   0.27134   0.25000   0.00000  Uiso   1.00
H441   H     0.68522   0.21580   0.75000   0.00000  Uiso   1.00
H442   H     0.18522   0.71580   0.75000   0.00000  Uiso   1.00
H443   H     0.31478   0.78420   0.25000   0.00000  Uiso   1.00
H444   H     0.81478   0.28420   0.25000   0.00000  Uiso   1.00
H445   H     0.31478   0.21580   0.75000   0.00000  Uiso   1.00
H446   H     0.81478   0.71580   0.75000   0.00000  Uiso   1.00
H447   H     0.68522   0.78420   0.25000   0.00000  Uiso   1.00
H448   H     0.18522   0.28420   0.25000   0.00000  Uiso   1.00
H449   H     0.54789   0.41648   0.75000   0.00000  Uiso   1.00
H450   H     0.04789   0.91648   0.75000   0.00000  Uiso   1.00
H451   H     0.45211   0.58352   0.25000   0.00000  Uiso   1.00
H452   H     0.95211   0.08352   0.25000   0.00000  Uiso   1.00
H453   H     0.45211   0.41648   0.75000   0.00000  Uiso   1.00
H454   H     0.95211   0.91648   0.75000   0.00000  Uiso   1.00
H455   H     0.54789   0.58352   0.25000   0.00000  Uiso   1.00
H456   H     0.04789   0.08352   0.25000   0.00000  Uiso   1.00
H457   H     0.45864   0.28569   0.75000   0.00000  Uiso   1.00
H458   H     0.95864   0.78569   0.75000   0.00000  Uiso   1.00
H459   H     0.54136   0.71431   0.25000   0.00000  Uiso   1.00
H460   H     0.04136   0.21431   0.25000   0.00000  Uiso   1.00
H461   H     0.54136   0.28569   0.75000   0.00000  Uiso   1.00
H462   H     0.04136   0.78569   0.75000   0.00000  Uiso   1.00
H463   H     0.45864   0.71431   0.25000   0.00000  Uiso   1.00
H464   H     0.95864   0.21431   0.25000   0.00000  Uiso   1.00
H465   H     0.45877   0.31119   0.75000   0.00000  Uiso   1.00
H466   H     0.95877   0.81119   0.75000   0.00000  Uiso   1.00
H467   H     0.54123   0.68881   0.25000   0.00000  Uiso   1.00
H468   H     0.04123   0.18881   0.25000   0.00000  Uiso   1.00
H469   H     0.54123   0.31119   0.75000   0.00000  Uiso   1.00
H470   H     0.04123   0.81119   0.75000   0.00000  Uiso   1.00
H471   H     0.45877   0.68881   0.25000   0.00000  Uiso   1.00
H472   H     0.95877   0.18881   0.25000   0.00000  Uiso   1.00
H473   H     0.45874   0.33395   0.75000   0.00000  Uiso   1.00
H474   H     0.95874   0.83395   0.75000   0.00000  Uiso   1.00
H475   H     0.54126   0.66605   0.25000   0.00000  Uiso   1.00
H476   H     0.04126   0.16605   0.25000   0.00000  Uiso   1.00
H477   H     0.54126   0.33395   0.75000   0.00000  Uiso   1.00
H478   H     0.04126   0.83395   0.75000   0.00000  Uiso   1.00
H479   H     0.45874   0.66605   0.25000   0.00000  Uiso   1.00
H480   H     0.95874   0.16605   0.25000   0.00000  Uiso   1.00
H481   H     0.07427   0.08048   0.75000   0.00000  Uiso   1.00
H482   H     0.57427   0.58048   0.75000   0.00000  Uiso   1.00
H483   H     0.92573   0.91952   0.25000   0.00000  Uiso   1.00
H484   H     0.42573   0.41952   0.25000   0.00000  Uiso   1.00
H485   H     0.92573   0.08048   0.75000   0.00000  Uiso   1.00
H486   H     0.42573   0.58048   0.75000   0.00000  Uiso   1.00
H487   H     0.07427   0.91952   0.25000   0.00000  Uiso   1.00
H488   H     0.57427   0.41952   0.25000   0.00000  Uiso   1.00
H489   H     0.22552   0.19069   0.75000   0.00000  Uiso   1.00
H490   H     0.72552   0.69069   0.75000   0.00000  Uiso   1.00
H491   H     0.77448   0.80931   0.25000   0.00000  Uiso   1.00
H492   H     0.27448   0.30931   0.25000   0.00000  Uiso   1.00
H493   H     0.77448   0.19069   0.75000   0.00000  Uiso   1.00
H494   H     0.27448   0.69069   0.75000   0.00000  Uiso   1.00
H495   H     0.22552   0.80931   0.25000   0.00000  Uiso   1.00
H496   H     0.72552   0.30931   0.25000   0.00000  Uiso   1.00
H497   H     0.46690   0.21123   0.75000   0.00000  Uiso   1.00
H498   H     0.96690   0.71123   0.75000   0.00000  Uiso   1.00
H499   H     0.53310   0.78878   0.25000   0.00000  Uiso   1.00
H500   H     0.03310   0.28878   0.25000   0.00000  Uiso   1.00
H501   H     0.53310   0.21123   0.75000   0.00000  Uiso   1.00
H502   H     0.03310   0.71123   0.75000   0.00000  Uiso   1.00
H503   H     0.46690   0.78878   0.25000   0.00000  Uiso   1.00
H504   H     0.96690   0.28878   0.25000   0.00000  Uiso   1.00
H505   H     0.42855   0.19858   0.75000   0.00000  Uiso   1.00
H506   H     0.92855   0.69858   0.75000   0.00000  Uiso   1.00
H507   H     0.57145   0.80142   0.25000   0.00000  Uiso   1.00
H508   H     0.07145   0.30142   0.25000   0.00000  Uiso   1.00
H509   H     0.57145   0.19858   0.75000   0.00000  Uiso   1.00
H510   H     0.07145   0.69858   0.75000   0.00000  Uiso   1.00
H511   H     0.42855   0.80142   0.25000   0.00000  Uiso   1.00
H512   H     0.92855   0.30142   0.25000   0.00000  Uiso   1.00
H513   H     0.39439   0.18722   0.75000   0.00000  Uiso   1.00
H514   H     0.89439   0.68722   0.75000   0.00000  Uiso   1.00
H515   H     0.60561   0.81278   0.25000   0.00000  Uiso   1.00
H516   H     0.10561   0.31278   0.25000   0.00000  Uiso   1.00
H517   H     0.60561   0.18722   0.75000   0.00000  Uiso   1.00
H518   H     0.10561   0.68722   0.75000   0.00000  Uiso   1.00
H519   H     0.39439   0.81278   0.25000   0.00000  Uiso   1.00
H520   H     0.89439   0.31278   0.25000   0.00000  Uiso   1.00
H521   H     0.35568   0.17449   0.75000   0.00000  Uiso   1.00
H522   H     0.85568   0.67449   0.75000   0.00000  Uiso   1.00
H523   H     0.64432   0.82551   0.25000   0.00000  Uiso   1.00
H524   H     0.14432   0.32551   0.25000   0.00000  Uiso   1.00
H525   H     0.64432   0.17449   0.75000   0.00000  Uiso   1.00
H526   H     0.14432   0.67449   0.75000   0.00000  Uiso   1.00
H527   H     0.35568   0.82551   0.25000   0.00000  Uiso   1.00
H528   H     0.85568   0.32551   0.25000   0.00000  Uiso   1.00
H529   H     0.54033   0.26333   0.75000   0.00000  Uiso   1.00
H530   H     0.04033   0.76333   0.75000   0.00000  Uiso   1.00
H531   H     0.45967   0.73667   0.25000   0.00000  Uiso   1.00
H532   H     0.95967   0.23667   0.25000   0.00000  Uiso   1.00
H533   H     0.45967   0.26333   0.75000   0.00000  Uiso   1.00
H534   H     0.95967   0.76333   0.75000   0.00000  Uiso   1.00
H535   H     0.54033   0.73667   0.25000   0.00000  Uiso   1.00
H536   H     0.04033   0.23667   0.25000   0.00000  Uiso   1.00
C537   C     0.50000   0.26561   0.75000   0.00000  Uiso   1.00
C538   C     0.00000   0.76561   0.75000   0.00000  Uiso   1.00
C539   C     0.50000   0.73440   0.25000   0.00000  Uiso   1.00
C540   C     0.00000   0.23440   0.25000   0.00000  Uiso   1.00
C541   C     0.50000   0.28242   0.75000   0.00000  Uiso   1.00
C542   C     0.00000   0.78242   0.75000   0.00000  Uiso   1.00
C543   C     0.50000   0.71758   0.25000   0.00000  Uiso   1.00
C544   C     0.00000   0.21758   0.25000   0.00000  Uiso   1.00
C545   C     0.50000   0.36262   0.75000   0.00000  Uiso   1.00
C546   C     0.00000   0.86262   0.75000   0.00000  Uiso   1.00
C547   C     0.50000   0.63738   0.25000   0.00000  Uiso   1.00
C548   C     0.00000   0.13738   0.25000   0.00000  Uiso   1.00
H549   H     0.50000   0.61010   0.75000   0.00000  Uiso   1.00
H550   H     0.00000   0.11010   0.75000   0.00000  Uiso   1.00
H551   H     0.50000   0.38990   0.25000   0.00000  Uiso   1.00
H552   H     0.00000   0.88990   0.25000   0.00000  Uiso   1.00
C553   C     0.50000   0.55059   0.75000   0.00000  Uiso   1.00
C554   C     0.00000   0.05059   0.75000   0.00000  Uiso   1.00
C555   C     0.50000   0.44941   0.25000   0.00000  Uiso   1.00
C556   C     0.00000   0.94941   0.25000   0.00000  Uiso   1.00
C557   C     0.50000   0.56742   0.75000   0.00000  Uiso   1.00
C558   C     0.00000   0.06742   0.75000   0.00000  Uiso   1.00
C559   C     0.50000   0.43259   0.25000   0.00000  Uiso   1.00
C560   C     0.00000   0.93259   0.25000   0.00000  Uiso   1.00
C561   C     0.50000   0.33092   0.75000   0.00000  Uiso   1.00
C562   C     0.00000   0.83092   0.75000   0.00000  Uiso   1.00
C563   C     0.50000   0.66908   0.25000   0.00000  Uiso   1.00
C564   C     0.00000   0.16908   0.25000   0.00000  Uiso   1.00
C565   C     0.50000   0.31421   0.75000   0.00000  Uiso   1.00
C566   C     0.00000   0.81421   0.75000   0.00000  Uiso   1.00
C567   C     0.50000   0.68579   0.25000   0.00000  Uiso   1.00
C568   C     0.00000   0.18579   0.25000   0.00000  Uiso   1.00
C569   C     0.50000   0.23454   0.75000   0.00000  Uiso   1.00
C570   C     0.00000   0.73454   0.75000   0.00000  Uiso   1.00
C571   C     0.50000   0.76546   0.25000   0.00000  Uiso   1.00
C572   C     0.00000   0.26546   0.25000   0.00000  Uiso   1.00
C573   C     0.50000   0.50209   0.75000   0.00000  Uiso   1.00
C574   C     0.00000   0.00209   0.75000   0.00000  Uiso   1.00
C575   C     0.50000   0.49791   0.25000   0.00000  Uiso   1.00
C576   C     0.00000   0.99791   0.25000   0.00000  Uiso   1.00
N577   N     0.50000   0.37876   0.75000   0.00000  Uiso   1.00
N578   N     0.00000   0.87876   0.75000   0.00000  Uiso   1.00
N579   N     0.50000   0.62124   0.25000   0.00000  Uiso   1.00
N580   N     0.00000   0.12124   0.25000   0.00000  Uiso   1.00
N581   N     0.50000   0.45421   0.75000   0.00000  Uiso   1.00
N582   N     0.00000   0.95421   0.75000   0.00000  Uiso   1.00
N583   N     0.50000   0.54579   0.25000   0.00000  Uiso   1.00
N584   N     0.00000   0.04579   0.25000   0.00000  Uiso   1.00
H585   H     0.50000   0.22288   0.75000   0.00000  Uiso   1.00
H586   H     0.00000   0.72288   0.75000   0.00000  Uiso   1.00
H587   H     0.50000   0.77712   0.25000   0.00000  Uiso   1.00
H588   H     0.00000   0.27712   0.25000   0.00000  Uiso   1.00
C589   C     0.04881   0.26642   0.25000   0.00000  Uiso   1.00
C590   C     0.54881   0.76642   0.25000   0.00000  Uiso   1.00
C591   C     0.95119   0.73358   0.75000   0.00000  Uiso   1.00
C592   C     0.45119   0.23358   0.75000   0.00000  Uiso   1.00
C593   C     0.95119   0.26642   0.25000   0.00000  Uiso   1.00
C594   C     0.45119   0.76642   0.25000   0.00000  Uiso   1.00
C595   C     0.04881   0.73358   0.75000   0.00000  Uiso   1.00
C596   C     0.54881   0.23358   0.75000   0.00000  Uiso   1.00
C597   C     0.26419   0.31962   0.25000   0.00000  Uiso   1.00
C598   C     0.76419   0.81962   0.25000   0.00000  Uiso   1.00
C599   C     0.73581   0.68038   0.75000   0.00000  Uiso   1.00
C600   C     0.23581   0.18038   0.75000   0.00000  Uiso   1.00
C601   C     0.73581   0.31962   0.25000   0.00000  Uiso   1.00
C602   C     0.23581   0.81962   0.25000   0.00000  Uiso   1.00
C603   C     0.26419   0.68038   0.75000   0.00000  Uiso   1.00
C604   C     0.76419   0.18038   0.75000   0.00000  Uiso   1.00
C605   C     0.02360   0.25803   0.25000   0.00000  Uiso   1.00
C606   C     0.52360   0.75803   0.25000   0.00000  Uiso   1.00
C607   C     0.97640   0.74197   0.75000   0.00000  Uiso   1.00
C608   C     0.47640   0.24197   0.75000   0.00000  Uiso   1.00
C609   C     0.97640   0.25803   0.25000   0.00000  Uiso   1.00
C610   C     0.47640   0.75803   0.25000   0.00000  Uiso   1.00
C611   C     0.02360   0.74197   0.75000   0.00000  Uiso   1.00
C612   C     0.52360   0.24197   0.75000   0.00000  Uiso   1.00
C613   C     0.02282   0.20933   0.25000   0.00000  Uiso   1.00
C614   C     0.52282   0.70933   0.25000   0.00000  Uiso   1.00
C615   C     0.97718   0.79067   0.75000   0.00000  Uiso   1.00
C616   C     0.47718   0.29067   0.75000   0.00000  Uiso   1.00
C617   C     0.97718   0.20933   0.25000   0.00000  Uiso   1.00
C618   C     0.47718   0.70933   0.25000   0.00000  Uiso   1.00
C619   C     0.02282   0.79067   0.75000   0.00000  Uiso   1.00
C620   C     0.52282   0.29067   0.75000   0.00000  Uiso   1.00
C621   C     0.47719   0.47303   0.25000   0.00000  Uiso   1.00
C622   C     0.97719   0.97303   0.25000   0.00000  Uiso   1.00
C623   C     0.52281   0.52697   0.75000   0.00000  Uiso   1.00
C624   C     0.02281   0.02697   0.75000   0.00000  Uiso   1.00
C625   C     0.52281   0.47303   0.25000   0.00000  Uiso   1.00
C626   C     0.02281   0.97303   0.25000   0.00000  Uiso   1.00
C627   C     0.47719   0.52697   0.75000   0.00000  Uiso   1.00
C628   C     0.97719   0.02697   0.75000   0.00000  Uiso   1.00
C629   C     0.47717   0.52146   0.25000   0.00000  Uiso   1.00
C630   C     0.97717   0.02146   0.25000   0.00000  Uiso   1.00
C631   C     0.52283   0.47854   0.75000   0.00000  Uiso   1.00
C632   C     0.02283   0.97854   0.75000   0.00000  Uiso   1.00
C633   C     0.52283   0.52146   0.25000   0.00000  Uiso   1.00
C634   C     0.02283   0.02146   0.25000   0.00000  Uiso   1.00
C635   C     0.47717   0.47854   0.75000   0.00000  Uiso   1.00
C636   C     0.97717   0.97854   0.75000   0.00000  Uiso   1.00
C637   C     0.97718   0.14555   0.25000   0.00000  Uiso   1.00
C638   C     0.47718   0.64555   0.25000   0.00000  Uiso   1.00
C639   C     0.02282   0.85445   0.75000   0.00000  Uiso   1.00
C640   C     0.52282   0.35445   0.75000   0.00000  Uiso   1.00
C641   C     0.02282   0.14555   0.25000   0.00000  Uiso   1.00
C642   C     0.52282   0.64555   0.25000   0.00000  Uiso   1.00
C643   C     0.97718   0.85445   0.75000   0.00000  Uiso   1.00
C644   C     0.47718   0.35445   0.75000   0.00000  Uiso   1.00
C645   C     0.77559   0.33338   0.25000   0.00000  Uiso   1.00
C646   C     0.27559   0.83338   0.25000   0.00000  Uiso   1.00
C647   C     0.22441   0.66662   0.75000   0.00000  Uiso   1.00
C648   C     0.72441   0.16662   0.75000   0.00000  Uiso   1.00
C649   C     0.22441   0.33338   0.25000   0.00000  Uiso   1.00
C650   C     0.72441   0.83338   0.25000   0.00000  Uiso   1.00
C651   C     0.77559   0.66662   0.75000   0.00000  Uiso   1.00
C652   C     0.27559   0.16662   0.75000   0.00000  Uiso   1.00
H653   H     0.95964   0.93030   0.25000   0.00000  Uiso   1.00
H654   H     0.45964   0.43030   0.25000   0.00000  Uiso   1.00
H655   H     0.04036   0.06970   0.75000   0.00000  Uiso   1.00
H656   H     0.54036   0.56970   0.75000   0.00000  Uiso   1.00
H657   H     0.04036   0.93030   0.25000   0.00000  Uiso   1.00
H658   H     0.54036   0.43030   0.25000   0.00000  Uiso   1.00
H659   H     0.95964   0.06970   0.75000   0.00000  Uiso   1.00
H660   H     0.45964   0.56970   0.75000   0.00000  Uiso   1.00
H661   H     0.35670   0.34111   0.25000   0.00000  Uiso   1.00
H662   H     0.85670   0.84111   0.25000   0.00000  Uiso   1.00
H663   H     0.64330   0.65889   0.75000   0.00000  Uiso   1.00
H664   H     0.14330   0.15889   0.75000   0.00000  Uiso   1.00
H665   H     0.64330   0.34111   0.25000   0.00000  Uiso   1.00
H666   H     0.14330   0.84111   0.25000   0.00000  Uiso   1.00
H667   H     0.35670   0.65889   0.75000   0.00000  Uiso   1.00
H668   H     0.85670   0.15889   0.75000   0.00000  Uiso   1.00
H669   H     0.31543   0.38243   0.25000   0.00000  Uiso   1.00
H670   H     0.81543   0.88243   0.25000   0.00000  Uiso   1.00
H671   H     0.68457   0.61757   0.75000   0.00000  Uiso   1.00
H672   H     0.18457   0.11757   0.75000   0.00000  Uiso   1.00
H673   H     0.68457   0.38243   0.25000   0.00000  Uiso   1.00
H674   H     0.18457   0.88243   0.25000   0.00000  Uiso   1.00
H675   H     0.31543   0.61757   0.75000   0.00000  Uiso   1.00
H676   H     0.81543   0.11757   0.75000   0.00000  Uiso   1.00
H677   H     0.04126   0.14049   0.25000   0.00000  Uiso   1.00
H678   H     0.54126   0.64049   0.25000   0.00000  Uiso   1.00
H679   H     0.95874   0.85951   0.75000   0.00000  Uiso   1.00
H680   H     0.45874   0.35951   0.75000   0.00000  Uiso   1.00
H681   H     0.95874   0.14049   0.25000   0.00000  Uiso   1.00
H682   H     0.45874   0.64049   0.25000   0.00000  Uiso   1.00
H683   H     0.04126   0.85951   0.75000   0.00000  Uiso   1.00
H684   H     0.54126   0.35951   0.75000   0.00000  Uiso   1.00
H685   H     0.53275   0.37814   0.25000   0.00000  Uiso   1.00
H686   H     0.03275   0.87814   0.25000   0.00000  Uiso   1.00
H687   H     0.46725   0.62186   0.75000   0.00000  Uiso   1.00
H688   H     0.96725   0.12186   0.75000   0.00000  Uiso   1.00
H689   H     0.46725   0.37814   0.25000   0.00000  Uiso   1.00
H690   H     0.96725   0.87814   0.25000   0.00000  Uiso   1.00
H691   H     0.53275   0.62186   0.75000   0.00000  Uiso   1.00
H692   H     0.03275   0.12186   0.75000   0.00000  Uiso   1.00
H693   H     0.54124   0.50094   0.25000   0.00000  Uiso   1.00
H694   H     0.04124   0.00094   0.25000   0.00000  Uiso   1.00
H695   H     0.45876   0.49906   0.75000   0.00000  Uiso   1.00
H696   H     0.95876   0.99906   0.75000   0.00000  Uiso   1.00
H697   H     0.45876   0.50094   0.25000   0.00000  Uiso   1.00
H698   H     0.95876   0.00094   0.25000   0.00000  Uiso   1.00
H699   H     0.54124   0.49906   0.75000   0.00000  Uiso   1.00
H700   H     0.04124   0.99906   0.75000   0.00000  Uiso   1.00
H701   H     0.54125   0.52652   0.25000   0.00000  Uiso   1.00
H702   H     0.04125   0.02652   0.25000   0.00000  Uiso   1.00
H703   H     0.45875   0.47348   0.75000   0.00000  Uiso   1.00
H704   H     0.95875   0.97348   0.75000   0.00000  Uiso   1.00
H705   H     0.45875   0.52652   0.25000   0.00000  Uiso   1.00
H706   H     0.95875   0.02652   0.25000   0.00000  Uiso   1.00
H707   H     0.54125   0.47348   0.75000   0.00000  Uiso   1.00
H708   H     0.04125   0.97348   0.75000   0.00000  Uiso   1.00
H709   H     0.54122   0.47818   0.25000   0.00000  Uiso   1.00
H710   H     0.04122   0.97818   0.25000   0.00000  Uiso   1.00
H711   H     0.45878   0.52182   0.75000   0.00000  Uiso   1.00
H712   H     0.95878   0.02182   0.75000   0.00000  Uiso   1.00
H713   H     0.45878   0.47818   0.25000   0.00000  Uiso   1.00
H714   H     0.95878   0.97818   0.25000   0.00000  Uiso   1.00
H715   H     0.54122   0.52182   0.75000   0.00000  Uiso   1.00
H716   H     0.04122   0.02182   0.75000   0.00000  Uiso   1.00
H717   H     0.04134   0.95267   0.25000   0.00000  Uiso   1.00
H718   H     0.54134   0.45267   0.25000   0.00000  Uiso   1.00
H719   H     0.95866   0.04733   0.75000   0.00000  Uiso   1.00
H720   H     0.45866   0.54733   0.75000   0.00000  Uiso   1.00
H721   H     0.95866   0.95267   0.25000   0.00000  Uiso   1.00
H722   H     0.45866   0.45267   0.25000   0.00000  Uiso   1.00
H723   H     0.04134   0.04733   0.75000   0.00000  Uiso   1.00
H724   H     0.54134   0.54733   0.75000   0.00000  Uiso   1.00
H725   H     0.64633   0.39523   0.25000   0.00000  Uiso   1.00
H726   H     0.14633   0.89523   0.25000   0.00000  Uiso   1.00
H727   H     0.35368   0.60477   0.75000   0.00000  Uiso   1.00
H728   H     0.85368   0.10477   0.75000   0.00000  Uiso   1.00
H729   H     0.35368   0.39523   0.25000   0.00000  Uiso   1.00
H730   H     0.85368   0.89523   0.25000   0.00000  Uiso   1.00
H731   H     0.64633   0.60477   0.75000   0.00000  Uiso   1.00
H732   H     0.14633   0.10477   0.75000   0.00000  Uiso   1.00
H733   H     0.07089   0.86539   0.25000   0.00000  Uiso   1.00
H734   H     0.57089   0.36539   0.25000   0.00000  Uiso   1.00
H735   H     0.92911   0.13461   0.75000   0.00000  Uiso   1.00
H736   H     0.42911   0.63461   0.75000   0.00000  Uiso   1.00
H737   H     0.92911   0.86539   0.25000   0.00000  Uiso   1.00
H738   H     0.42911   0.36539   0.25000   0.00000  Uiso   1.00
H739   H     0.07089   0.13461   0.75000   0.00000  Uiso   1.00
H740   H     0.57089   0.63461   0.75000   0.00000  Uiso   1.00
H741   H     0.39503   0.35394   0.25000   0.00000  Uiso   1.00
H742   H     0.89503   0.85394   0.25000   0.00000  Uiso   1.00
H743   H     0.60497   0.64606   0.75000   0.00000  Uiso   1.00
H744   H     0.10497   0.14606   0.75000   0.00000  Uiso   1.00
H745   H     0.60497   0.35394   0.25000   0.00000  Uiso   1.00
H746   H     0.10497   0.85394   0.25000   0.00000  Uiso   1.00
H747   H     0.39503   0.64606   0.75000   0.00000  Uiso   1.00
H748   H     0.89503   0.14606   0.75000   0.00000  Uiso   1.00
H749   H     0.61232   0.40664   0.25000   0.00000  Uiso   1.00
H750   H     0.11232   0.90664   0.25000   0.00000  Uiso   1.00
H751   H     0.38768   0.59336   0.75000   0.00000  Uiso   1.00
H752   H     0.88768   0.09336   0.75000   0.00000  Uiso   1.00
H753   H     0.38768   0.40664   0.25000   0.00000  Uiso   1.00
H754   H     0.88768   0.90664   0.25000   0.00000  Uiso   1.00
H755   H     0.61232   0.59336   0.75000   0.00000  Uiso   1.00
H756   H     0.11232   0.09336   0.75000   0.00000  Uiso   1.00
C757   C     0.50000   0.48120   0.25000   0.00000  Uiso   1.00
C758   C     0.00000   0.98120   0.25000   0.00000  Uiso   1.00
C759   C     0.50000   0.51880   0.75000   0.00000  Uiso   1.00
C760   C     0.00000   0.01880   0.75000   0.00000  Uiso   1.00
C761   C     0.50000   0.52963   0.25000   0.00000  Uiso   1.00
C762   C     0.00000   0.02963   0.25000   0.00000  Uiso   1.00
C763   C     0.50000   0.47037   0.75000   0.00000  Uiso   1.00
C764   C     0.00000   0.97037   0.75000   0.00000  Uiso   1.00
C765   C     0.50000   0.40154   0.25000   0.00000  Uiso   1.00
C766   C     0.00000   0.90154   0.25000   0.00000  Uiso   1.00
C767   C     0.50000   0.59846   0.75000   0.00000  Uiso   1.00
C768   C     0.00000   0.09846   0.75000   0.00000  Uiso   1.00
loop_
_geom_bond_atom_site_label_1
_geom_bond_atom_site_label_2
_geom_bond_distance
_geom_bond_site_symmetry_2
_ccdc_geom_bond_type
C1     C134    1.397   .     S
C1     C277    1.411   .     D
C1     H731    1.076   .     S
C2     C133    1.397   .     D
C2     C278    1.411   .     S
C2     H732    1.076   .     S
C3     C136    1.397   .     S
C3     C279    1.411   .     D
C3     H729    1.076   .     S
C4     C135    1.397   .     S
C4     C280    1.411   .     D
C4     H730    1.076   .     S
C5     C130    1.397   .     S
C5     C273    1.411   .     D
C5     H727    1.076   .     S
C6     C129    1.397   .     S
C6     C274    1.411   .     D
C6     H728    1.076   .     S
C7     C132    1.397   .     S
C7     C275    1.411   .     D
C7     H725    1.076   .     S
C8     C131    1.397   .     D
C8     C276    1.411   .     S
C8     H726    1.076   .     S
C9     C277    1.412   .     S
C9     C306    1.398   .     D
C9     H743    1.076   .     S
C10    C278    1.412   .     D
C10    C305    1.398   .     S
C10    H744    1.076   .     S
C11    C279    1.412   .     S
C11    C308    1.398   .     D
C11    H741    1.076   .     S
C12    C280    1.412   .     S
C12    C307    1.398   .     D
C12    H742    1.076   .     S
C13    C273    1.412   .     S
C13    C310    1.398   .     D
C13    H747    1.076   .     S
C14    C274    1.412   .     S
C14    C309    1.398   .     D
C14    H748    1.076   .     S
C15    C275    1.412   .     S
C15    C312    1.398   .     D
C15    H745    1.076   .     S
C16    C276    1.412   .     D
C16    C311    1.398   .     S
C16    H746    1.076   .     S
C17    C81     1.408   .     D
C17    C261    1.408   .     S
C17    N398    1.461   .     S
C18    C82     1.408   .     S
C18    C262    1.408   .     D
C18    N397    1.461   .     S
C19    C83     1.408   .     D
C19    C263    1.408   .     S
C19    N400    1.461   .     S
C20    C84     1.408   .     S
C20    C264    1.408   .     D
C20    N399    1.461   .     S
C21    C85     1.408   .     D
C21    C257    1.408   .     S
C21    N394    1.461   .     S
C22    C86     1.408   .     S
C22    C258    1.408   .     D
C22    N393    1.461   .     S
C23    C87     1.408   .     D
C23    C259    1.408   .     S
C23    N396    1.461   .     S
C24    C88     1.408   .     S
C24    C260    1.408   .     D
C24    N395    1.461   .     S
C25    C129    1.412   .     D
C25    C309    1.412   .     S
C25    N401    1.470   .     S
C26    C130    1.412   .     D
C26    C310    1.412   .     S
C26    N402    1.470   .     S
C27    C131    1.412   .     S
C27    C311    1.412   .     D
C27    N403    1.470   .     S
C28    C132    1.412   .     D
C28    C312    1.412   .     S
C28    N404    1.470   .     S
C29    C133    1.412   .     S
C29    C305    1.412   .     D
C29    N405    1.470   .     S
C30    C134    1.412   .     D
C30    C306    1.412   .     S
C30    N406    1.470   .     S
C31    C135    1.412   .     D
C31    C307    1.412   .     S
C31    N407    1.470   .     S
C32    C136    1.412   .     D
C32    C308    1.412   .     S
C32    N408    1.470   .     S
C33    C41     1.527   .     S
C33    C137    1.413   .     S
C33    C317    1.416   .     D
C34    C42     1.527   .     S
C34    C138    1.413   .     D
C34    C318    1.416   .     S
C35    C43     1.527   .     S
C35    C139    1.413   .     D
C35    C319    1.416   .     S
C36    C44     1.527   .     S
C36    C140    1.413   .     D
C36    C320    1.416   .     S
C37    C45     1.527   .     S
C37    C141    1.413   .     D
C37    C313    1.416   .     S
C38    C46     1.527   .     S
C38    C142    1.413   .     D
C38    C314    1.416   .     S
C39    C47     1.527   .     S
C39    C143    1.413   .     S
C39    C315    1.416   .     D
C40    C48     1.527   .     S
C40    C144    1.413   .     D
C40    C316    1.416   .     S
C41    C337    1.412   .     S
C41    C768    1.411   1_655 D
C42    C338    1.412   .     S
C42    C767    1.411   .     D
C43    C339    1.412   .     D
C43    C766    1.411   .     S
C44    C340    1.412   .     D
C44    C765    1.411   .     S
C45    C341    1.412   .     D
C45    C768    1.411   .     S
C46    C342    1.412   .     D
C46    C767    1.411   .     S
C47    C343    1.412   .     S
C47    C766    1.411   1_655 D
C48    C344    1.412   .     S
C48    C765    1.411   .     D
C49    C153    1.413   .     S
C49    C282    1.520   .     S
C49    C333    1.413   .     D
C50    C154    1.413   .     D
C50    C281    1.520   .     S
C50    C334    1.413   .     S
C51    C155    1.413   .     S
C51    C284    1.520   .     S
C51    C335    1.413   .     D
C52    C156    1.413   .     D
C52    C283    1.520   .     S
C52    C336    1.413   .     S
C53    C157    1.413   .     S
C53    C286    1.520   .     S
C53    C329    1.413   .     D
C54    C158    1.413   .     D
C54    C285    1.520   .     S
C54    C330    1.413   .     S
C55    C159    1.413   .     S
C55    C288    1.520   .     S
C55    C331    1.413   .     D
C56    C160    1.413   .     D
C56    C287    1.520   .     S
C56    C332    1.413   .     S
C57    C161    1.411   .     D
C57    C169    1.410   .     S
C57    C277    1.519   .     S
C58    C162    1.411   .     D
C58    C170    1.410   .     S
C58    C278    1.519   .     S
C59    C163    1.411   .     D
C59    C171    1.410   .     S
C59    C279    1.519   .     S
C60    C164    1.411   .     S
C60    C172    1.410   .     D
C60    C280    1.519   .     S
C61    C165    1.411   .     D
C61    C173    1.410   .     S
C61    C273    1.519   .     S
C62    C166    1.411   .     S
C62    C174    1.410   .     D
C62    C274    1.519   .     S
C63    C167    1.411   .     D
C63    C175    1.410   .     S
C63    C275    1.519   .     S
C64    C168    1.411   .     D
C64    C176    1.410   .     S
C64    C276    1.519   .     S
C65    H529    1.059   .     S
C65    C537    1.412   .     S
C65    C612    1.412   .     D
C66    H530    1.059   .     S
C66    C538    1.412   .     D
C66    C611    1.412   .     S
C67    H531    1.059   .     S
C67    C539    1.412   .     D
C67    C610    1.412   .     S
C68    H532    1.059   .     S
C68    C540    1.412   1_655 S
C68    C609    1.412   .     D
C69    H533    1.059   .     S
C69    C537    1.412   .     D
C69    C608    1.412   .     S
C70    H534    1.059   .     S
C70    C538    1.412   1_655 S
C70    C607    1.412   .     D
C71    H535    1.059   .     S
C71    C539    1.412   .     S
C71    C606    1.412   .     D
C72    H536    1.059   .     S
C72    C540    1.412   .     D
C72    C605    1.412   .     S
C73    C325    1.398   .     D
C73    H501    1.075   .     S
C73    C596    1.415   .     S
C74    C326    1.398   .     D
C74    H502    1.075   .     S
C74    C595    1.415   .     S
C75    C327    1.398   .     D
C75    H503    1.075   .     S
C75    C594    1.415   .     S
C76    C328    1.398   .     D
C76    H504    1.075   .     S
C76    C593    1.415   .     S
C77    C321    1.398   .     D
C77    H497    1.075   .     S
C77    C592    1.415   .     S
C78    C322    1.398   .     D
C78    H498    1.075   .     S
C78    C591    1.415   .     S
C79    C323    1.398   .     D
C79    H499    1.075   .     S
C79    C590    1.415   .     S
C80    C324    1.398   .     D
C80    H500    1.075   .     S
C80    C589    1.415   .     S
C81    C333    1.398   .     S
C81    H525    1.074   .     S
C82    C334    1.398   .     D
C82    H526    1.074   .     S
C83    C335    1.398   .     S
C83    H527    1.074   .     S
C84    C336    1.398   .     D
C84    H528    1.074   .     S
C85    C329    1.398   .     S
C85    H521    1.074   .     S
C86    C330    1.398   .     D
C86    H522    1.074   .     S
C87    C331    1.398   .     S
C87    H523    1.074   .     S
C88    C332    1.398   .     D
C88    H524    1.074   .     S
C89    C97     1.456   .     S
C89    O345    1.217   .     D
C89    N398    1.446   .     S
C90    C98     1.456   .     S
C90    O346    1.217   .     D
C90    N397    1.446   .     S
C91    C99     1.456   .     S
C91    O347    1.217   .     D
C91    N400    1.446   .     S
C92    C100    1.456   .     S
C92    O348    1.217   .     D
C92    N399    1.446   .     S
C93    C101    1.456   .     S
C93    O349    1.217   .     D
C93    N394    1.446   .     S
C94    C102    1.456   .     S
C94    O350    1.217   .     D
C94    N393    1.446   .     S
C95    C103    1.456   .     S
C95    O351    1.217   .     D
C95    N396    1.446   .     S
C96    C104    1.456   .     S
C96    O352    1.217   .     D
C96    N395    1.446   .     S
C97    C604    1.404   .     D
C97    C648    1.384   .     S
C98    C603    1.404   .     S
C98    C647    1.384   .     D
C99    C602    1.404   .     D
C99    C646    1.384   .     S
C100   C601    1.404   .     S
C100   C645    1.384   .     D
C101   C600    1.404   .     D
C101   C652    1.384   .     S
C102   C599    1.404   .     S
C102   C651    1.384   .     D
C103   C598    1.404   .     D
C103   C650    1.384   .     S
C104   C597    1.404   .     S
C104   C649    1.384   .     D
C105   C113    1.402   .     S
C105   H409    1.082   .     S
C105   C648    1.403   .     D
C106   C114    1.402   .     D
C106   H410    1.082   .     S
C106   C647    1.403   .     S
C107   C115    1.402   .     S
C107   H411    1.082   .     S
C107   C646    1.403   .     D
C108   C116    1.402   .     D
C108   H412    1.082   .     S
C108   C645    1.403   .     S
C109   C117    1.402   .     S
C109   H413    1.082   .     S
C109   C652    1.403   .     D
C110   C118    1.402   .     D
C110   H414    1.082   .     S
C110   C651    1.403   .     S
C111   C119    1.402   .     S
C111   H415    1.082   .     S
C111   C650    1.403   .     D
C112   C120    1.402   .     D
C112   H416    1.082   .     S
C112   C649    1.403   .     S
C113   C121    1.453   .     S
C113   C293    1.375   .     D
C114   C122    1.453   .     S
C114   C294    1.375   .     S
C115   C123    1.453   .     S
C115   C295    1.375   .     D
C116   C124    1.453   .     S
C116   C296    1.375   .     S
C117   C125    1.453   .     S
C117   C289    1.375   .     D
C118   C126    1.453   .     S
C118   C290    1.375   .     S
C119   C127    1.453   .     S
C119   C291    1.375   .     D
C120   C128    1.453   .     S
C120   C292    1.375   .     S
C121   O353    1.216   .     D
C121   N401    1.384   .     S
C122   O354    1.216   .     D
C122   N402    1.384   .     S
C123   O355    1.216   .     D
C123   N403    1.384   .     S
C124   O356    1.216   .     D
C124   N404    1.384   .     S
C125   O357    1.216   .     D
C125   N405    1.384   .     S
C126   O358    1.216   .     D
C126   N406    1.384   .     S
C127   O359    1.216   .     D
C127   N407    1.384   .     S
C128   O360    1.216   .     D
C128   N408    1.384   .     S
C129   H676    1.073   .     S
C130   H675    1.073   .     S
C131   H674    1.073   .     S
C132   H673    1.073   .     S
C133   H672    1.073   .     S
C134   H671    1.073   .     S
C135   H670    1.073   .     S
C136   H669    1.073   .     S
C137   C166    1.397   .     D
C137   H485    1.075   .     S
C138   C165    1.397   .     S
C138   H486    1.075   .     S
C139   C168    1.397   .     S
C139   H487    1.075   .     S
C140   C167    1.397   .     S
C140   H488    1.075   .     S
C141   C162    1.397   .     S
C141   H481    1.075   .     S
C142   C161    1.397   .     S
C142   H482    1.075   .     S
C143   C164    1.397   .     D
C143   H483    1.075   .     S
C144   C163    1.397   .     S
C144   H484    1.075   .     S
C145   C253    1.397   .     S
C145   C282    1.410   .     D
C145   H425    1.076   .     S
C146   C254    1.397   .     S
C146   C281    1.410   .     D
C146   H426    1.076   .     S
C147   C255    1.397   .     S
C147   C284    1.410   .     D
C147   H427    1.076   .     S
C148   C256    1.397   .     S
C148   C283    1.410   .     D
C148   H428    1.076   .     S
C149   C249    1.397   .     S
C149   C286    1.410   .     D
C149   H429    1.076   .     S
C150   C250    1.397   .     S
C150   C285    1.410   .     D
C150   H430    1.076   .     S
C151   C251    1.397   .     S
C151   C288    1.410   .     D
C151   H431    1.076   .     S
C152   C252    1.397   .     S
C152   C287    1.410   .     D
C152   H432    1.076   .     S
C153   C261    1.398   .     D
C153   H433    1.076   .     S
C154   C262    1.398   .     S
C154   H434    1.076   .     S
C155   C263    1.398   .     D
C155   H435    1.076   .     S
C156   C264    1.398   .     S
C156   H436    1.076   .     S
C157   C257    1.398   .     D
C157   H437    1.076   .     S
C158   C258    1.398   .     S
C158   H438    1.076   .     S
C159   C259    1.398   .     D
C159   H439    1.076   .     S
C160   C260    1.398   .     S
C160   H440    1.076   .     S
C161   H755    1.076   .     S
C162   H756    1.076   .     S
C163   H753    1.076   .     S
C164   H754    1.076   .     S
C165   H751    1.076   .     S
C166   H752    1.076   .     S
C167   H749    1.076   .     S
C168   H750    1.076   .     S
C169   C314    1.397   .     D
C169   H740    1.076   .     S
C170   C313    1.397   .     D
C170   H739    1.076   .     S
C171   C316    1.397   .     D
C171   H738    1.076   .     S
C172   C315    1.397   .     S
C172   H737    1.076   .     S
C173   C318    1.397   .     D
C173   H736    1.076   .     S
C174   C317    1.397   .     S
C174   H735    1.076   .     S
C175   C320    1.397   .     D
C175   H734    1.076   .     S
C176   C319    1.397   .     D
C176   H733    1.076   .     S
C177   C185    1.453   .     S
C177   O361    1.216   .     D
C177   N577    1.383   .     S
C178   C186    1.453   .     S
C178   O362    1.216   .     D
C178   N578    1.383   1_655 S
C179   C187    1.453   .     S
C179   O363    1.216   .     D
C179   N579    1.383   .     S
C180   C188    1.453   .     S
C180   O364    1.216   .     D
C180   N580    1.383   .     S
C181   C189    1.453   .     S
C181   O365    1.216   .     D
C181   N577    1.383   .     S
C182   C190    1.453   .     S
C182   O366    1.216   .     D
C182   N578    1.383   .     S
C183   C191    1.453   .     S
C183   O367    1.216   .     D
C183   N579    1.383   .     S
C184   C192    1.453   .     S
C184   O368    1.216   .     D
C184   N580    1.383   1_655 S
C185   C189    1.376   .     S
C185   C197    1.403   .     D
C186   C190    1.376   1_655 S
C186   C198    1.403   .     D
C187   C191    1.376   .     S
C187   C199    1.403   .     D
C188   C192    1.376   1_455 D
C188   C200    1.403   .     S
C189   C193    1.403   .     D
C190   C186    1.376   1_455 S
C190   C194    1.403   .     D
C191   C195    1.403   .     D
C192   C188    1.376   1_655 D
C192   C196    1.403   .     S
C193   C201    1.402   .     S
C193   H449    1.082   .     S
C194   C202    1.402   .     S
C194   H450    1.082   .     S
C195   C203    1.402   .     S
C195   H451    1.082   .     S
C196   C204    1.402   .     D
C196   H452    1.082   .     S
C197   C205    1.402   .     S
C197   H453    1.082   .     S
C198   C206    1.402   .     S
C198   H454    1.082   .     S
C199   C207    1.402   .     S
C199   H455    1.082   .     S
C200   C208    1.402   .     D
C200   H456    1.082   .     S
C201   C205    1.378   .     D
C201   C209    1.452   .     S
C202   C206    1.378   1_455 D
C202   C210    1.452   .     S
C203   C207    1.378   .     D
C203   C211    1.452   .     S
C204   C208    1.378   1_655 S
C204   C212    1.452   .     S
C205   C213    1.452   .     S
C206   C202    1.378   1_655 D
C206   C214    1.452   .     S
C207   C215    1.452   .     S
C208   C204    1.378   1_455 S
C208   C216    1.452   .     S
C209   O369    1.216   .     D
C209   N581    1.384   .     S
C210   O370    1.216   .     D
C210   N582    1.384   .     S
C211   O371    1.216   .     D
C211   N583    1.384   .     S
C212   O372    1.216   .     D
C212   N584    1.384   1_655 S
C213   O373    1.216   .     D
C213   N581    1.384   .     S
C214   O374    1.216   .     D
C214   N582    1.384   1_655 S
C215   O375    1.216   .     D
C215   N583    1.384   .     S
C216   O376    1.216   .     D
C216   N584    1.384   .     S
C217   C573    1.412   .     S
C217   C631    1.397   .     D
C217   H699    1.076   .     S
C218   C574    1.412   1_565 D
C218   C632    1.397   .     S
C218   H700    1.076   .     S
C219   C575    1.412   .     D
C219   C629    1.397   .     S
C219   H697    1.076   .     S
C220   C576    1.412   1_645 S
C220   C630    1.397   .     D
C220   H698    1.076   .     S
C221   C573    1.412   .     D
C221   C635    1.397   .     S
C221   H695    1.076   .     S
C222   C574    1.412   1_665 S
C222   C636    1.397   .     D
C222   H696    1.076   .     S
C223   C575    1.412   .     S
C223   C633    1.397   .     D
C223   H693    1.076   .     S
C224   C576    1.412   1_545 D
C224   C634    1.397   .     S
C224   H694    1.076   .     S
C225   C553    1.415   .     S
C225   C623    1.397   .     D
C225   H724    1.074   .     S
C226   C554    1.415   .     D
C226   C624    1.397   .     S
C226   H723    1.074   .     S
C227   C555    1.415   .     D
C227   C621    1.397   .     S
C227   H722    1.074   .     S
C228   C556    1.415   1_655 S
C228   C622    1.397   .     D
C228   H721    1.074   .     S
C229   C553    1.415   .     D
C229   C627    1.397   .     S
C229   H720    1.074   .     S
C230   C554    1.415   1_655 S
C230   C628    1.397   .     D
C230   H719    1.074   .     S
C231   C555    1.415   .     S
C231   C625    1.397   .     D
C231   H718    1.074   .     S
C232   C556    1.415   .     D
C232   C626    1.397   .     S
C232   H717    1.074   .     S
C233   H465    1.076   .     S
C233   C565    1.411   .     D
C233   C616    1.398   .     S
C234   H466    1.076   .     S
C234   C566    1.411   1_655 S
C234   C615    1.398   .     D
C235   H467    1.076   .     S
C235   C567    1.411   .     S
C235   C614    1.398   .     D
C236   H468    1.076   .     S
C236   C568    1.411   .     D
C236   C613    1.398   .     S
C237   H469    1.076   .     S
C237   C565    1.411   .     S
C237   C620    1.398   .     D
C238   H470    1.076   .     S
C238   C566    1.411   .     D
C238   C619    1.398   .     S
C239   H471    1.076   .     S
C239   C567    1.411   .     D
C239   C618    1.398   .     S
C240   H472    1.076   .     S
C240   C568    1.411   1_655 S
C240   C617    1.398   .     D
C241   H473    1.076   .     S
C241   C561    1.412   .     D
C241   C644    1.397   .     S
C242   H474    1.076   .     S
C242   C562    1.412   1_655 S
C242   C643    1.397   .     D
C243   H475    1.076   .     S
C243   C563    1.412   .     D
C243   C642    1.397   .     S
C244   H476    1.076   .     S
C244   C564    1.412   .     S
C244   C641    1.397   .     D
C245   H477    1.076   .     S
C245   C561    1.412   .     S
C245   C640    1.397   .     D
C246   H478    1.076   .     S
C246   C562    1.412   .     D
C246   C639    1.397   .     S
C247   H479    1.076   .     S
C247   C563    1.412   .     S
C247   C638    1.397   .     D
C248   H480    1.076   .     S
C248   C564    1.412   1_655 D
C248   C637    1.397   .     S
C249   H421    1.075   .     S
C249   C592    1.415   .     D
C250   H422    1.075   .     S
C250   C591    1.415   .     D
C251   H423    1.075   .     S
C251   C590    1.415   .     D
C252   H424    1.075   .     S
C252   C589    1.415   .     D
C253   H417    1.075   .     S
C253   C596    1.415   .     D
C254   H418    1.075   .     S
C254   C595    1.415   .     D
C255   H419    1.075   .     S
C255   C594    1.415   .     D
C256   H420    1.075   .     S
C256   C593    1.415   .     D
C257   H445    1.075   .     S
C258   H446    1.075   .     S
C259   H447    1.075   .     S
C260   H448    1.075   .     S
C261   H441    1.075   .     S
C262   H442    1.075   .     S
C263   H443    1.075   .     S
C264   H444    1.075   .     S
C265   O377    1.217   .     D
C265   N394    1.445   .     S
C265   C652    1.456   .     S
C266   O378    1.217   .     D
C266   N393    1.445   .     S
C266   C651    1.456   .     S
C267   O379    1.217   .     D
C267   N396    1.445   .     S
C267   C650    1.456   .     S
C268   O380    1.217   .     D
C268   N395    1.445   .     S
C268   C649    1.456   .     S
C269   O381    1.217   .     D
C269   N398    1.445   .     S
C269   C648    1.456   .     S
C270   O382    1.217   .     D
C270   N397    1.445   .     S
C270   C647    1.456   .     S
C271   O383    1.217   .     D
C271   N400    1.445   .     S
C271   C646    1.456   .     S
C272   O384    1.217   .     D
C272   N399    1.445   .     S
C272   C645    1.456   .     S
C281   C326    1.411   .     S
C282   C325    1.411   .     S
C283   C328    1.411   .     S
C284   C327    1.411   .     S
C285   C322    1.411   .     S
C286   C321    1.411   .     S
C287   C324    1.411   .     S
C288   C323    1.411   .     S
C289   C297    1.455   .     S
C289   C600    1.403   .     S
C290   C298    1.455   .     S
C290   C599    1.403   .     D
C291   C299    1.455   .     S
C291   C598    1.403   .     S
C292   C300    1.455   .     S
C292   C597    1.403   .     D
C293   C301    1.455   .     S
C293   C604    1.403   .     S
C294   C302    1.455   .     S
C294   C603    1.403   .     D
C295   C303    1.455   .     S
C295   C602    1.403   .     S
C296   C304    1.455   .     S
C296   C601    1.403   .     D
C297   O385    1.216   .     D
C297   N405    1.384   .     S
C298   O386    1.216   .     D
C298   N406    1.384   .     S
C299   O387    1.216   .     D
C299   N407    1.384   .     S
C300   O388    1.216   .     D
C300   N408    1.384   .     S
C301   O389    1.216   .     D
C301   N401    1.384   .     S
C302   O390    1.216   .     D
C302   N402    1.384   .     S
C303   O391    1.216   .     D
C303   N403    1.384   .     S
C304   O392    1.216   .     D
C304   N404    1.384   .     S
C305   H664    1.073   .     S
C306   H663    1.073   .     S
C307   H662    1.073   .     S
C308   H661    1.073   .     S
C309   H668    1.073   .     S
C310   H667    1.073   .     S
C311   H666    1.073   .     S
C312   H665    1.073   .     S
C313   H692    1.075   .     S
C314   H691    1.075   .     S
C315   H690    1.075   .     S
C316   H689    1.075   .     S
C317   H688    1.075   .     S
C318   H687    1.075   .     S
C319   H686    1.075   .     S
C320   H685    1.075   .     S
C321   H505    1.076   .     S
C322   H506    1.076   .     S
C323   H507    1.076   .     S
C324   H508    1.076   .     S
C325   H509    1.076   .     S
C326   H510    1.076   .     S
C327   H511    1.076   .     S
C328   H512    1.076   .     S
C329   H513    1.076   .     S
C330   H514    1.076   .     S
C331   H515    1.076   .     S
C332   H516    1.076   .     S
C333   H517    1.076   .     S
C334   H518    1.076   .     S
C335   H519    1.076   .     S
C336   H520    1.076   .     S
C337   C558    1.413   1_655 D
C337   H659    1.059   .     S
C338   C557    1.413   .     D
C338   H660    1.059   .     S
C339   C560    1.413   .     S
C339   H657    1.059   .     S
C340   C559    1.413   .     S
C340   H658    1.059   .     S
C341   C558    1.413   .     S
C341   H655    1.059   .     S
C342   C557    1.413   .     S
C342   H656    1.059   .     S
C343   C560    1.413   1_655 D
C343   H653    1.059   .     S
C344   C559    1.413   .     D
C344   H654    1.059   .     S
H457   C616    1.075   .     S
H458   C615    1.075   .     S
H459   C614    1.075   .     S
H460   C613    1.075   .     S
H461   C620    1.075   .     S
H462   C619    1.075   .     S
H463   C618    1.075   .     S
H464   C617    1.075   .     S
H489   C600    1.082   .     S
H490   C599    1.082   .     S
H491   C598    1.082   .     S
H492   C597    1.082   .     S
H493   C604    1.082   .     S
H494   C603    1.082   .     S
H495   C602    1.082   .     S
H496   C601    1.082   .     S
C537   C541    1.529   .     S
C538   C70     1.412   1_455 S
C538   C542    1.529   .     S
C539   C543    1.529   .     S
C540   C68     1.412   1_455 S
C540   C544    1.529   .     S
C541   C616    1.415   .     D
C541   C620    1.415   .     S
C542   C615    1.415   1_455 S
C542   C619    1.415   .     D
C543   C614    1.415   .     S
C543   C618    1.415   .     D
C544   C613    1.415   .     D
C544   C617    1.415   1_455 S
C545   N577    1.467   .     S
C545   C640    1.411   .     S
C545   C644    1.411   .     D
C546   N578    1.467   .     S
C546   C639    1.411   .     D
C546   C643    1.411   1_455 S
C547   N579    1.467   .     S
C547   C638    1.411   .     S
C547   C642    1.411   .     D
C548   N580    1.467   .     S
C548   C637    1.411   1_455 D
C548   C641    1.411   .     S
H549   C767    1.058   .     S
H550   C768    1.058   .     S
H551   C765    1.058   .     S
H552   C766    1.058   .     S
C553   C557    1.530   .     S
C554   C230    1.415   1_455 S
C554   C558    1.530   .     S
C555   C559    1.530   .     S
C556   C228    1.415   1_455 S
C556   C560    1.530   .     S
C558   C337    1.413   1_455 D
C560   C343    1.413   1_455 D
C561   C565    1.519   .     S
C562   C242    1.412   1_455 S
C562   C566    1.519   .     S
C563   C567    1.519   .     S
C564   C248    1.412   1_455 D
C564   C568    1.519   .     S
C566   C234    1.411   1_455 S
C568   C240    1.411   1_455 S
C569   H585    1.060   .     S
C569   C608    1.413   .     D
C569   C612    1.413   .     S
C570   H586    1.060   .     S
C570   C607    1.413   1_455 S
C570   C611    1.413   .     D
C571   H587    1.060   .     S
C571   C606    1.413   .     S
C571   C610    1.413   .     D
C572   H588    1.060   .     S
C572   C605    1.413   .     D
C572   C609    1.413   1_455 S
C573   C759    1.520   .     S
C574   C218    1.412   1_545 D
C574   C222    1.412   1_445 S
C574   C760    1.520   .     S
C575   C757    1.520   .     S
C576   C224    1.412   1_565 D
C576   C220    1.412   1_465 S
C576   C758    1.520   .     S
N578   C178    1.383   1_455 S
N580   C184    1.383   1_455 S
N581   C763    1.469   .     S
N582   C214    1.384   1_455 S
N582   C764    1.469   .     S
N583   C761    1.469   .     S
N584   C212    1.384   1_455 S
N584   C762    1.469   .     S
C589   C605    1.529   .     S
C590   C606    1.529   .     S
C591   C607    1.529   .     S
C592   C608    1.529   .     S
C593   C609    1.529   .     S
C594   C610    1.529   .     S
C595   C611    1.529   .     S
C596   C612    1.529   .     S
C607   C570    1.413   1_655 S
C609   C572    1.413   1_655 S
C615   C542    1.415   1_655 S
C617   C544    1.415   1_655 S
C621   H713    1.075   .     S
C621   C757    1.411   .     D
C622   H714    1.075   .     S
C622   C758    1.411   1_655 S
C623   H715    1.075   .     S
C623   C759    1.411   .     S
C624   H716    1.075   .     S
C624   C760    1.411   .     D
C625   H709    1.075   .     S
C625   C757    1.411   .     S
C626   H710    1.075   .     S
C626   C758    1.411   .     D
C627   H711    1.075   .     S
C627   C759    1.411   .     D
C628   H712    1.075   .     S
C628   C760    1.411   1_655 S
C629   H705    1.073   .     S
C629   C761    1.412   .     D
C630   H706    1.073   .     S
C630   C762    1.412   1_655 S
C631   H707    1.073   .     S
C631   C763    1.412   .     S
C632   H708    1.073   .     S
C632   C764    1.412   .     D
C633   H701    1.073   .     S
C633   C761    1.412   .     S
C634   H702    1.073   .     S
C634   C762    1.412   .     D
C635   H703    1.073   .     S
C635   C763    1.412   .     D
C636   H704    1.073   .     S
C636   C764    1.412   1_655 S
C637   C548    1.411   1_655 D
C637   H681    1.073   .     S
C638   H682    1.073   .     S
C639   H683    1.073   .     S
C640   H684    1.073   .     S
C641   H677    1.073   .     S
C642   H678    1.073   .     S
C643   C546    1.411   1_655 S
C643   H679    1.073   .     S
C644   H680    1.073   .     S
C758   C622    1.411   1_455 S
C760   C628    1.411   1_455 S
C762   C630    1.412   1_455 S
C764   C636    1.412   1_455 S
C766   C47     1.411   1_455 D
C768   C41     1.411   1_455 D
