data_371
_audit_creation_date              2023-09-08
_audit_creation_method            'Materials Studio'
_symmetry_space_group_name_H-M    'P1'
_symmetry_Int_Tables_number       1
_symmetry_cell_setting            triclinic
loop_
_symmetry_equiv_pos_as_xyz
  x,y,z
_cell_length_a                    37.2367
_cell_length_b                    7.1945
_cell_length_c                    37.1996
_cell_angle_alpha                 90.0000
_cell_angle_beta                  120.7025
_cell_angle_gamma                 90.0000
loop_
_atom_site_label
_atom_site_type_symbol
_atom_site_fract_x
_atom_site_fract_y
_atom_site_fract_z
_atom_site_U_iso_or_equiv
_atom_site_adp_type
_atom_site_occupancy
C1     C     0.01700   0.33989   0.48779   0.00000  Uiso   1.00
C2     C     0.04451   0.34169   0.47257   0.00000  Uiso   1.00
C3     C     0.08714   0.31242   0.49864   0.00000  Uiso   1.00
C4     C     0.97217   0.35103   0.45726   0.00000  Uiso   1.00
N5     N     0.94416   0.30023   0.46638   0.00000  Uiso   1.00
C6     C     0.90029   0.28836   0.43744   0.00000  Uiso   1.00
C7     C     0.88396   0.28027   0.39417   0.00000  Uiso   1.00
C8     C     0.84149   0.25628   0.36737   0.00000  Uiso   1.00
C9     C     0.81421   0.23971   0.38298   0.00000  Uiso   1.00
C10    C     0.83042   0.25004   0.42612   0.00000  Uiso   1.00
C11    C     0.87305   0.27283   0.45297   0.00000  Uiso   1.00
C12    C     0.76934   0.20817   0.35439   0.00000  Uiso   1.00
N13    N     0.75474   0.17789   0.31340   0.00000  Uiso   1.00
H14    H     0.03222   0.35498   0.43945   0.00000  Uiso   1.00
H15    H     0.96335   0.39560   0.42617   0.00000  Uiso   1.00
H16    H     0.90362   0.28721   0.38057   0.00000  Uiso   1.00
H17    H     0.83013   0.24875   0.33433   0.00000  Uiso   1.00
H18    H     0.81033   0.23739   0.43926   0.00000  Uiso   1.00
H19    H     0.88492   0.27713   0.48606   0.00000  Uiso   1.00
O20    O     0.57570   0.04745   0.56284   0.00000  Uiso   1.00
C21    C     0.60691   0.17935   0.58552   0.00000  Uiso   1.00
C22    C     0.63726   0.14283   0.63081   0.00000  Uiso   1.00
C23    C     0.66645   0.30504   0.65204   0.00000  Uiso   1.00
C24    C     0.70943   0.28265   0.66881   0.00000  Uiso   1.00
C25    C     0.73649   0.43048   0.68909   0.00000  Uiso   1.00
C26    C     0.72100   0.60150   0.69300   0.00000  Uiso   1.00
C27    C     0.67840   0.62524   0.67650   0.00000  Uiso   1.00
C28    C     0.65117   0.47845   0.65597   0.00000  Uiso   1.00
O29    O     0.60948   0.32146   0.56894   0.00000  Uiso   1.00
C30    C     0.61451   0.09142   0.65413   0.00000  Uiso   1.00
H31    H     0.65560   0.01898   0.63182   0.00000  Uiso   1.00
H32    H     0.72206   0.15074   0.66637   0.00000  Uiso   1.00
H33    H     0.76954   0.41213   0.70195   0.00000  Uiso   1.00
H34    H     0.74201   0.71546   0.70891   0.00000  Uiso   1.00
H35    H     0.66650   0.75689   0.67997   0.00000  Uiso   1.00
H36    H     0.61824   0.49953   0.64335   0.00000  Uiso   1.00
H37    H     0.63709   0.07364   0.68770   0.00000  Uiso   1.00
H38    H     0.59786  -0.04228   0.64222   0.00000  Uiso   1.00
H39    H     0.59191   0.20106   0.65033   0.00000  Uiso   1.00
C40    C     0.60026   0.01295   0.03779   0.00000  Uiso   1.00
C41    C     0.55828  -0.01814   0.00974   0.00000  Uiso   1.00
C42    C     0.54274  -0.01569   0.96712   0.00000  Uiso   1.00
C43    C     0.61395   0.00272   0.08251   0.00000  Uiso   1.00
N44    N     0.65068   0.05543   0.11095   0.00000  Uiso   1.00
C45    C     0.66505   0.06395   0.15479   0.00000  Uiso   1.00
C46    C     0.63783   0.06187   0.17085   0.00000  Uiso   1.00
C47    C     0.65303   0.08529   0.21333   0.00000  Uiso   1.00
C48    C     0.69564   0.11227   0.24076   0.00000  Uiso   1.00
C49    C     0.72276   0.11162   0.22479   0.00000  Uiso   1.00
C50    C     0.70751   0.08802   0.18227   0.00000  Uiso   1.00
C51    C     0.71149   0.14430   0.28557   0.00000  Uiso   1.00
N52    N     0.68514   0.14372   0.30070   0.00000  Uiso   1.00
H53    H     0.53735  -0.05023   0.02105   0.00000  Uiso   1.00
H54    H     0.59167  -0.04591   0.09088   0.00000  Uiso   1.00
H55    H     0.60468   0.04926   0.15099   0.00000  Uiso   1.00
H56    H     0.63118   0.08576   0.22449   0.00000  Uiso   1.00
H57    H     0.75577   0.13146   0.24501   0.00000  Uiso   1.00
H58    H     0.72892   0.09012   0.17068   0.00000  Uiso   1.00
O59    O     0.11305   0.28017   0.48176   0.00000  Uiso   1.00
C60    C     0.10809   0.39835   0.44955   0.00000  Uiso   1.00
C61    C     0.11889   0.32663   0.41801   0.00000  Uiso   1.00
C62    C     0.09767   0.43637   0.37773   0.00000  Uiso   1.00
C63    C     0.06622   0.35275   0.34135   0.00000  Uiso   1.00
C64    C     0.04607   0.45323   0.30425   0.00000  Uiso   1.00
C65    C     0.05704   0.63791   0.30306   0.00000  Uiso   1.00
C66    C     0.08820   0.72251   0.33895   0.00000  Uiso   1.00
C67    C     0.10856   0.62247   0.37609   0.00000  Uiso   1.00
O68    O     0.09619   0.55795   0.44771   0.00000  Uiso   1.00
C69    C     0.16593   0.31945   0.43628   0.00000  Uiso   1.00
H70    H     0.10791   0.18057   0.41122   0.00000  Uiso   1.00
H71    H     0.05711   0.21005   0.34166   0.00000  Uiso   1.00
H72    H     0.02176   0.38813   0.27647   0.00000  Uiso   1.00
H73    H     0.04122   0.71580   0.27437   0.00000  Uiso   1.00
H74    H     0.09650   0.86594   0.33806   0.00000  Uiso   1.00
H75    H     0.13247   0.69087   0.40363   0.00000  Uiso   1.00
H76    H     0.17341   0.27694   0.41205   0.00000  Uiso   1.00
H77    H     0.17957   0.21471   0.46155   0.00000  Uiso   1.00
H78    H     0.18037   0.45674   0.44900   0.00000  Uiso   1.00
C79    C     0.56994   0.03786   0.46012   0.00000  Uiso   1.00
C80    C     0.58542   0.04690   0.50284   0.00000  Uiso   1.00
C81    C     0.55909   0.04486   0.51954   0.00000  Uiso   1.00
C82    C     0.59992   0.05229   0.44533   0.00000  Uiso   1.00
N83    N     0.58846   0.09414   0.40712   0.00000  Uiso   1.00
C84    C     0.61666   0.12330   0.39182   0.00000  Uiso   1.00
C85    C     0.65819   0.17728   0.41805   0.00000  Uiso   1.00
C86    C     0.68503   0.19781   0.40233   0.00000  Uiso   1.00
C87    C     0.67090   0.16675   0.36007   0.00000  Uiso   1.00
C88    C     0.62890   0.12252   0.33356   0.00000  Uiso   1.00
C89    C     0.60210   0.10176   0.34938   0.00000  Uiso   1.00
C90    C     0.69993   0.17525   0.34387   0.00000  Uiso   1.00
N91    N     0.74094   0.20579   0.36983   0.00000  Uiso   1.00
H92    H     0.61860   0.05679   0.52362   0.00000  Uiso   1.00
H93    H     0.63238   0.03178   0.46781   0.00000  Uiso   1.00
H94    H     0.67011   0.20545   0.45061   0.00000  Uiso   1.00
H95    H     0.71695   0.23627   0.42342   0.00000  Uiso   1.00
H96    H     0.61682   0.09996   0.30071   0.00000  Uiso   1.00
H97    H     0.57014   0.06454   0.32856   0.00000  Uiso   1.00
O98    O     0.50302  -0.08715   0.94080   0.00000  Uiso   1.00
C99    C     0.46989   0.03163   0.93263   0.00000  Uiso   1.00
C100   C     0.42761  -0.05170   0.91714   0.00000  Uiso   1.00
C101   C     0.41121  -0.00640   0.94643   0.00000  Uiso   1.00
C102   C     0.43674  -0.04229   0.98915   0.00000  Uiso   1.00
C103   C     0.42329  -0.00250   0.01726   0.00000  Uiso   1.00
C104   C     0.38372   0.06972   0.00306   0.00000  Uiso   1.00
C105   C     0.35741   0.10057   0.96070   0.00000  Uiso   1.00
C106   C     0.37095   0.06385   0.93250   0.00000  Uiso   1.00
O107   O     0.47469   0.19971   0.93685   0.00000  Uiso   1.00
C108   C     0.39890   0.00465   0.87169   0.00000  Uiso   1.00
H109   H     0.43124  -0.20479   0.91745   0.00000  Uiso   1.00
H110   H     0.46722  -0.10141   0.00073   0.00000  Uiso   1.00
H111   H     0.44350  -0.02905   0.05003   0.00000  Uiso   1.00
H112   H     0.37327   0.10033   0.02483   0.00000  Uiso   1.00
H113   H     0.32652   0.15473   0.94970   0.00000  Uiso   1.00
H114   H     0.34968   0.09208   0.90010   0.00000  Uiso   1.00
H115   H     0.36840  -0.06530   0.85886   0.00000  Uiso   1.00
H116   H     0.41261  -0.04008   0.85256   0.00000  Uiso   1.00
H117   H     0.39417   0.15749   0.86874   0.00000  Uiso   1.00
C118   C     0.10352   0.28142   0.54376   0.00000  Uiso   1.00
C119   C     0.07607   0.28141   0.55915   0.00000  Uiso   1.00
C120   C     0.03345   0.31611   0.53308   0.00000  Uiso   1.00
C121   C     0.14828   0.25162   0.57278   0.00000  Uiso   1.00
N122   N     0.17479   0.27571   0.56021   0.00000  Uiso   1.00
C123   C     0.21894   0.25079   0.58315   0.00000  Uiso   1.00
C124   C     0.24099   0.19898   0.62528   0.00000  Uiso   1.00
C125   C     0.28389   0.17019   0.64505   0.00000  Uiso   1.00
C126   C     0.30526   0.19008   0.62299   0.00000  Uiso   1.00
C127   C     0.28315   0.24419   0.58121   0.00000  Uiso   1.00
C128   C     0.24059   0.27622   0.56180   0.00000  Uiso   1.00
C129   C     0.35031   0.15498   0.64316   0.00000  Uiso   1.00
N130   N     0.37378   0.14896   0.68512   0.00000  Uiso   1.00
H131   H     0.08800   0.25113   0.59169   0.00000  Uiso   1.00
H132   H     0.15829   0.21042   0.60435   0.00000  Uiso   1.00
H133   H     0.22563   0.17943   0.64311   0.00000  Uiso   1.00
H134   H     0.30016   0.12902   0.67739   0.00000  Uiso   1.00
H135   H     0.29878   0.26385   0.56355   0.00000  Uiso   1.00
H136   H     0.22424   0.31989   0.52970   0.00000  Uiso   1.00
O137   O     0.51015  -0.01957   0.38927   0.00000  Uiso   1.00
C138   C     0.47138   0.05295   0.35966   0.00000  Uiso   1.00
C139   C     0.45178  -0.01571   0.31543   0.00000  Uiso   1.00
C140   C     0.41212   0.08811   0.28641   0.00000  Uiso   1.00
C141   C     0.37398  -0.00655   0.26651   0.00000  Uiso   1.00
C142   C     0.33736   0.08871   0.24011   0.00000  Uiso   1.00
C143   C     0.33843   0.27892   0.23316   0.00000  Uiso   1.00
C144   C     0.37615   0.37423   0.25251   0.00000  Uiso   1.00
C145   C     0.41281   0.27995   0.27911   0.00000  Uiso   1.00
O146   O     0.45410   0.17164   0.36908   0.00000  Uiso   1.00
C147   C     0.48265  -0.00472   0.29962   0.00000  Uiso   1.00
H148   H     0.44465  -0.16545   0.31593   0.00000  Uiso   1.00
H149   H     0.37247  -0.15368   0.27163   0.00000  Uiso   1.00
H150   H     0.30809   0.01508   0.22518   0.00000  Uiso   1.00
H151   H     0.31003   0.35248   0.21278   0.00000  Uiso   1.00
H152   H     0.37698   0.52150   0.24707   0.00000  Uiso   1.00
H153   H     0.44166   0.35667   0.29418   0.00000  Uiso   1.00
H154   H     0.46763  -0.05074   0.26673   0.00000  Uiso   1.00
H155   H     0.50938  -0.09815   0.31817   0.00000  Uiso   1.00
H156   H     0.49442   0.13926   0.30196   0.00000  Uiso   1.00
C157   C     0.57089   0.02584   0.95076   0.00000  Uiso   1.00
C158   C     0.61332   0.04889   0.97850   0.00000  Uiso   1.00
C159   C     0.62921   0.04798   0.02177   0.00000  Uiso   1.00
C160   C     0.55428   0.04480   0.90571   0.00000  Uiso   1.00
N161   N     0.51528   0.08342   0.88180   0.00000  Uiso   1.00
C162   C     0.49307   0.10057   0.83749   0.00000  Uiso   1.00
C163   C     0.50791   0.02573   0.81249   0.00000  Uiso   1.00
C164   C     0.48341   0.03258   0.76929   0.00000  Uiso   1.00
C165   C     0.44353   0.11176   0.75039   0.00000  Uiso   1.00
C166   C     0.42896   0.18752   0.77547   0.00000  Uiso   1.00
C167   C     0.45371   0.18259   0.81864   0.00000  Uiso   1.00
C168   C     0.41750   0.11563   0.70475   0.00000  Uiso   1.00
N169   N     0.43506   0.08856   0.68102   0.00000  Uiso   1.00
H170   H     0.63400   0.06504   0.96616   0.00000  Uiso   1.00
H171   H     0.57507   0.03356   0.89338   0.00000  Uiso   1.00
H172   H     0.53773  -0.04248   0.82595   0.00000  Uiso   1.00
H173   H     0.49539  -0.02792   0.75072   0.00000  Uiso   1.00
H174   H     0.39857   0.25107   0.76181   0.00000  Uiso   1.00
H175   H     0.44201   0.24151   0.83758   0.00000  Uiso   1.00
O176   O     0.00531   0.30933   0.54789   0.00000  Uiso   1.00
C177   C     0.01762   0.38120   0.58755   0.00000  Uiso   1.00
C178   C     0.99211   0.33110   0.60727   0.00000  Uiso   1.00
C179   C     0.01461   0.36553   0.65381   0.00000  Uiso   1.00
C180   C     0.02575   0.21437   0.68134   0.00000  Uiso   1.00
C181   C     0.04551   0.24425   0.72418   0.00000  Uiso   1.00
C182   C     0.05432   0.42494   0.74000   0.00000  Uiso   1.00
C183   C     0.04363   0.57622   0.71302   0.00000  Uiso   1.00
C184   C     0.02405   0.54719   0.67018   0.00000  Uiso   1.00
O185   O     0.04684   0.48836   0.60477   0.00000  Uiso   1.00
C186   C     0.95059   0.43369   0.58549   0.00000  Uiso   1.00
H187   H     0.98515   0.18014   0.60148   0.00000  Uiso   1.00
H188   H     0.01893   0.07317   0.66972   0.00000  Uiso   1.00
H189   H     0.05374   0.12712   0.74510   0.00000  Uiso   1.00
H190   H     0.06943   0.44772   0.77317   0.00000  Uiso   1.00
H191   H     0.05045   0.71623   0.72529   0.00000  Uiso   1.00
H192   H     0.01616   0.66652   0.64988   0.00000  Uiso   1.00
H193   H     0.93095   0.38935   0.59858   0.00000  Uiso   1.00
H194   H     0.93389   0.40269   0.55177   0.00000  Uiso   1.00
H195   H     0.95526   0.58590   0.58946   0.00000  Uiso   1.00
C196   C     0.51368   0.02011   0.49122   0.00000  Uiso   1.00
C197   C     0.49834   0.00188   0.44851   0.00000  Uiso   1.00
C198   C     0.52463   0.01534   0.43159   0.00000  Uiso   1.00
C199   C     0.48406   0.02090   0.50674   0.00000  Uiso   1.00
N200   N     0.49744   0.02432   0.54628   0.00000  Uiso   1.00
C201   C     0.47356   0.03353   0.56684   0.00000  Uiso   1.00
C202   C     0.42998   0.04799   0.54580   0.00000  Uiso   1.00
C203   C     0.40922   0.06669   0.56834   0.00000  Uiso   1.00
C204   C     0.43163   0.07000   0.61200   0.00000  Uiso   1.00
C205   C     0.47491   0.05138   0.63252   0.00000  Uiso   1.00
C206   C     0.49543   0.03522   0.61012   0.00000  Uiso   1.00
C207   C     0.41089   0.09510   0.63673   0.00000  Uiso   1.00
N208   N     0.36965   0.12834   0.61841   0.00000  Uiso   1.00
H209   H     0.46567  -0.02691   0.42840   0.00000  Uiso   1.00
H210   H     0.45129   0.02302   0.48456   0.00000  Uiso   1.00
H211   H     0.41178   0.04804   0.51234   0.00000  Uiso   1.00
H212   H     0.37577   0.07987   0.55163   0.00000  Uiso   1.00
H213   H     0.49331   0.05298   0.66606   0.00000  Uiso   1.00
H214   H     0.52881   0.02668   0.62673   0.00000  Uiso   1.00
O215   O     0.67218   0.04918   0.05009   0.00000  Uiso   1.00
C216   C     0.69810   0.16295   0.04203   0.00000  Uiso   1.00
C217   C     0.74425   0.12714   0.06537   0.00000  Uiso   1.00
C218   C     0.76888   0.29002   0.06288   0.00000  Uiso   1.00
C219   C     0.79316   0.26814   0.04391   0.00000  Uiso   1.00
C220   C     0.81643   0.41696   0.04220   0.00000  Uiso   1.00
C221   C     0.81591   0.58834   0.05959   0.00000  Uiso   1.00
C222   C     0.79198   0.61150   0.07855   0.00000  Uiso   1.00
C223   C     0.76830   0.46403   0.07997   0.00000  Uiso   1.00
O224   O     0.68394   0.29001   0.01698   0.00000  Uiso   1.00
C225   C     0.75946   0.07816   0.11088   0.00000  Uiso   1.00
H226   H     0.74942   0.00267   0.05084   0.00000  Uiso   1.00
H227   H     0.79421   0.13597   0.03053   0.00000  Uiso   1.00
H228   H     0.83506   0.39914   0.02757   0.00000  Uiso   1.00
H229   H     0.83414   0.70308   0.05848   0.00000  Uiso   1.00
H230   H     0.79196   0.74345   0.09239   0.00000  Uiso   1.00
H231   H     0.74971   0.48525   0.09456   0.00000  Uiso   1.00
H232   H     0.79350   0.05445   0.12770   0.00000  Uiso   1.00
H233   H     0.74430  -0.05130   0.11294   0.00000  Uiso   1.00
H234   H     0.75242   0.19233   0.12646   0.00000  Uiso   1.00
C235   C     0.98300   0.83989   0.51221   0.00000  Uiso   1.00
C236   C     0.95549   0.84169   0.52743   0.00000  Uiso   1.00
C237   C     0.91286   0.81242   0.50136   0.00000  Uiso   1.00
C238   C     0.02783   0.85103   0.54274   0.00000  Uiso   1.00
N239   N     0.05584   0.80023   0.53362   0.00000  Uiso   1.00
C240   C     0.09971   0.78836   0.56256   0.00000  Uiso   1.00
C241   C     0.11604   0.78027   0.60583   0.00000  Uiso   1.00
C242   C     0.15851   0.75628   0.63263   0.00000  Uiso   1.00
C243   C     0.18579   0.73971   0.61702   0.00000  Uiso   1.00
C244   C     0.16958   0.75004   0.57388   0.00000  Uiso   1.00
C245   C     0.12695   0.77283   0.54703   0.00000  Uiso   1.00
C246   C     0.23066   0.70817   0.64561   0.00000  Uiso   1.00
N247   N     0.24526   0.67789   0.68660   0.00000  Uiso   1.00
H248   H     0.96778   0.85498   0.56055   0.00000  Uiso   1.00
H249   H     0.03665   0.89560   0.57383   0.00000  Uiso   1.00
H250   H     0.09638   0.78721   0.61943   0.00000  Uiso   1.00
H251   H     0.16987   0.74875   0.66567   0.00000  Uiso   1.00
H252   H     0.18967   0.73739   0.56074   0.00000  Uiso   1.00
H253   H     0.11508   0.77713   0.51394   0.00000  Uiso   1.00
O254   O     0.42430   0.54745   0.43716   0.00000  Uiso   1.00
C255   C     0.39309   0.67935   0.41448   0.00000  Uiso   1.00
C256   C     0.36274   0.64283   0.36919   0.00000  Uiso   1.00
C257   C     0.33355   0.80504   0.34796   0.00000  Uiso   1.00
C258   C     0.29057   0.78265   0.33119   0.00000  Uiso   1.00
C259   C     0.26351   0.93048   0.31091   0.00000  Uiso   1.00
C260   C     0.27900   1.10150   0.30700   0.00000  Uiso   1.00
C261   C     0.32160   1.12524   0.32350   0.00000  Uiso   1.00
C262   C     0.34883   0.97845   0.34403   0.00000  Uiso   1.00
O263   O     0.39052   0.82146   0.43106   0.00000  Uiso   1.00
C264   C     0.38549   0.59142   0.34587   0.00000  Uiso   1.00
H265   H     0.34440   0.51898   0.36818   0.00000  Uiso   1.00
H266   H     0.27794   0.65074   0.33363   0.00000  Uiso   1.00
H267   H     0.23046   0.91213   0.29805   0.00000  Uiso   1.00
H268   H     0.25799   1.21546   0.29109   0.00000  Uiso   1.00
H269   H     0.33350   1.25689   0.32003   0.00000  Uiso   1.00
H270   H     0.38176   0.99953   0.35665   0.00000  Uiso   1.00
H271   H     0.36291   0.57364   0.31230   0.00000  Uiso   1.00
H272   H     0.40214   0.45772   0.35778   0.00000  Uiso   1.00
H273   H     0.40809   0.70106   0.34967   0.00000  Uiso   1.00
C274   C     0.39974   0.51295   0.96221   0.00000  Uiso   1.00
C275   C     0.44172   0.48186   0.99026   0.00000  Uiso   1.00
C276   C     0.45726   0.48431   0.03288   0.00000  Uiso   1.00
C277   C     0.38605   0.50272   0.91749   0.00000  Uiso   1.00
N278   N     0.34932   0.55543   0.88905   0.00000  Uiso   1.00
C279   C     0.33495   0.56395   0.84521   0.00000  Uiso   1.00
C280   C     0.36217   0.56187   0.82915   0.00000  Uiso   1.00
C281   C     0.34697   0.58529   0.78667   0.00000  Uiso   1.00
C282   C     0.30436   0.61227   0.75924   0.00000  Uiso   1.00
C283   C     0.27724   0.61162   0.77521   0.00000  Uiso   1.00
C284   C     0.29249   0.58802   0.81773   0.00000  Uiso   1.00
C285   C     0.28851   0.64430   0.71443   0.00000  Uiso   1.00
N286   N     0.31486   0.64372   0.69930   0.00000  Uiso   1.00
H287   H     0.46265   0.44977   0.97895   0.00000  Uiso   1.00
H288   H     0.40833   0.45409   0.90912   0.00000  Uiso   1.00
H289   H     0.39532   0.54926   0.84901   0.00000  Uiso   1.00
H290   H     0.36882   0.58576   0.77551   0.00000  Uiso   1.00
H291   H     0.24423   0.63146   0.75499   0.00000  Uiso   1.00
H292   H     0.27108   0.59012   0.82932   0.00000  Uiso   1.00
O293   O     0.88695   0.78017   0.51824   0.00000  Uiso   1.00
C294   C     0.89191   0.89835   0.55045   0.00000  Uiso   1.00
C295   C     0.88111   0.82663   0.58199   0.00000  Uiso   1.00
C296   C     0.90233   0.93637   0.62227   0.00000  Uiso   1.00
C297   C     0.93378   0.85275   0.65865   0.00000  Uiso   1.00
C298   C     0.95393   0.95323   0.69575   0.00000  Uiso   1.00
C299   C     0.94296   1.13791   0.69694   0.00000  Uiso   1.00
C300   C     0.91180   1.22251   0.66105   0.00000  Uiso   1.00
C301   C     0.89144   1.12247   0.62391   0.00000  Uiso   1.00
O302   O     0.90381   1.05795   0.55229   0.00000  Uiso   1.00
C303   C     0.83407   0.81945   0.56372   0.00000  Uiso   1.00
H304   H     0.89209   0.68057   0.58878   0.00000  Uiso   1.00
H305   H     0.94289   0.71005   0.65834   0.00000  Uiso   1.00
H306   H     0.97824   0.88813   0.72353   0.00000  Uiso   1.00
H307   H     0.95878   1.21580   0.72563   0.00000  Uiso   1.00
H308   H     0.90350   1.36594   0.66194   0.00000  Uiso   1.00
H309   H     0.86753   1.19087   0.59637   0.00000  Uiso   1.00
H310   H     0.82659   0.77694   0.58795   0.00000  Uiso   1.00
H311   H     0.82043   0.71471   0.53845   0.00000  Uiso   1.00
H312   H     0.81963   0.95674   0.55100   0.00000  Uiso   1.00
C313   C     0.43006   0.53786   0.53988   0.00000  Uiso   1.00
C314   C     0.41458   0.54690   0.49716   0.00000  Uiso   1.00
C315   C     0.44091   0.54486   0.48046   0.00000  Uiso   1.00
C316   C     0.40008   0.55229   0.55467   0.00000  Uiso   1.00
N317   N     0.41154   0.59414   0.59288   0.00000  Uiso   1.00
C318   C     0.38334   0.62330   0.60818   0.00000  Uiso   1.00
C319   C     0.34181   0.67728   0.58195   0.00000  Uiso   1.00
C320   C     0.31497   0.69781   0.59767   0.00000  Uiso   1.00
C321   C     0.32910   0.66675   0.63993   0.00000  Uiso   1.00
C322   C     0.37110   0.62252   0.66644   0.00000  Uiso   1.00
C323   C     0.39790   0.60176   0.65062   0.00000  Uiso   1.00
C324   C     0.30007   0.67525   0.65613   0.00000  Uiso   1.00
N325   N     0.25906   0.70579   0.63017   0.00000  Uiso   1.00
H326   H     0.38140   0.55679   0.47638   0.00000  Uiso   1.00
H327   H     0.36762   0.53178   0.53219   0.00000  Uiso   1.00
H328   H     0.32989   0.70545   0.54939   0.00000  Uiso   1.00
H329   H     0.28305   0.73627   0.57658   0.00000  Uiso   1.00
H330   H     0.38318   0.59996   0.69929   0.00000  Uiso   1.00
H331   H     0.42986   0.56454   0.67144   0.00000  Uiso   1.00
O332   O     0.49698   0.41285   0.05920   0.00000  Uiso   1.00
C333   C     0.53011   0.53163   0.06737   0.00000  Uiso   1.00
C334   C     0.57239   0.44830   0.08286   0.00000  Uiso   1.00
C335   C     0.58879   0.49360   0.05357   0.00000  Uiso   1.00
C336   C     0.56326   0.45771   0.01085   0.00000  Uiso   1.00
C337   C     0.57671   0.49750   0.98274   0.00000  Uiso   1.00
C338   C     0.61628   0.56972   0.99694   0.00000  Uiso   1.00
C339   C     0.64259   0.60057   0.03930   0.00000  Uiso   1.00
C340   C     0.62905   0.56385   0.06750   0.00000  Uiso   1.00
O341   O     0.52531   0.69971   0.06315   0.00000  Uiso   1.00
C342   C     0.60110   0.50465   0.12831   0.00000  Uiso   1.00
H343   H     0.56876   0.29521   0.08255   0.00000  Uiso   1.00
H344   H     0.53278   0.39859   0.99927   0.00000  Uiso   1.00
H345   H     0.55650   0.47095   0.94997   0.00000  Uiso   1.00
H346   H     0.62673   0.60033   0.97517   0.00000  Uiso   1.00
H347   H     0.67348   0.65473   0.05030   0.00000  Uiso   1.00
H348   H     0.65032   0.59208   0.09990   0.00000  Uiso   1.00
H349   H     0.63160   0.43470   0.14114   0.00000  Uiso   1.00
H350   H     0.58739   0.45992   0.14744   0.00000  Uiso   1.00
H351   H     0.60583   0.65749   0.13126   0.00000  Uiso   1.00
C352   C     0.89648   0.78142   0.45624   0.00000  Uiso   1.00
C353   C     0.92393   0.78141   0.44085   0.00000  Uiso   1.00
C354   C     0.96655   0.81611   0.46692   0.00000  Uiso   1.00
C355   C     0.85172   0.75162   0.42722   0.00000  Uiso   1.00
N356   N     0.82521   0.77571   0.43979   0.00000  Uiso   1.00
C357   C     0.78106   0.75079   0.41685   0.00000  Uiso   1.00
C358   C     0.75901   0.69898   0.37472   0.00000  Uiso   1.00
C359   C     0.71611   0.67019   0.35495   0.00000  Uiso   1.00
C360   C     0.69474   0.69008   0.37701   0.00000  Uiso   1.00
C361   C     0.71685   0.74419   0.41879   0.00000  Uiso   1.00
C362   C     0.75941   0.77622   0.43820   0.00000  Uiso   1.00
C363   C     0.64969   0.65498   0.35684   0.00000  Uiso   1.00
N364   N     0.62622   0.64896   0.31488   0.00000  Uiso   1.00
H365   H     0.91200   0.75113   0.40831   0.00000  Uiso   1.00
H366   H     0.84171   0.71042   0.39565   0.00000  Uiso   1.00
H367   H     0.77437   0.67943   0.35689   0.00000  Uiso   1.00
H368   H     0.69984   0.62902   0.32261   0.00000  Uiso   1.00
H369   H     0.70122   0.76385   0.43645   0.00000  Uiso   1.00
H370   H     0.77576   0.81989   0.47030   0.00000  Uiso   1.00
O371   O     0.48985   0.48043   0.61073   0.00000  Uiso   1.00
C372   C     0.52862   0.55295   0.64034   0.00000  Uiso   1.00
C373   C     0.54822   0.48429   0.68457   0.00000  Uiso   1.00
C374   C     0.58788   0.58811   0.71359   0.00000  Uiso   1.00
C375   C     0.62602   0.49345   0.73349   0.00000  Uiso   1.00
C376   C     0.66264   0.58871   0.75989   0.00000  Uiso   1.00
C377   C     0.66157   0.77892   0.76684   0.00000  Uiso   1.00
C378   C     0.62385   0.87423   0.74749   0.00000  Uiso   1.00
C379   C     0.58719   0.77995   0.72089   0.00000  Uiso   1.00
O380   O     0.54590   0.67164   0.63092   0.00000  Uiso   1.00
C381   C     0.51735   0.49528   0.70038   0.00000  Uiso   1.00
H382   H     0.55535   0.33455   0.68407   0.00000  Uiso   1.00
H383   H     0.62753   0.34632   0.72837   0.00000  Uiso   1.00
H384   H     0.69191   0.51508   0.77482   0.00000  Uiso   1.00
H385   H     0.68997   0.85248   0.78722   0.00000  Uiso   1.00
H386   H     0.62302   1.02150   0.75293   0.00000  Uiso   1.00
H387   H     0.55834   0.85667   0.70582   0.00000  Uiso   1.00
H388   H     0.53237   0.44926   0.73327   0.00000  Uiso   1.00
H389   H     0.49062   0.40185   0.68183   0.00000  Uiso   1.00
H390   H     0.50558   0.63926   0.69804   0.00000  Uiso   1.00
C391   C     0.42911   0.52584   0.04924   0.00000  Uiso   1.00
C392   C     0.38668   0.54889   0.02150   0.00000  Uiso   1.00
C393   C     0.37079   0.54798   0.97823   0.00000  Uiso   1.00
C394   C     0.44572   0.54480   0.09429   0.00000  Uiso   1.00
N395   N     0.48472   0.58342   0.11820   0.00000  Uiso   1.00
C396   C     0.50693   0.60057   0.16251   0.00000  Uiso   1.00
C397   C     0.49209   0.52573   0.18751   0.00000  Uiso   1.00
C398   C     0.51659   0.53258   0.23071   0.00000  Uiso   1.00
C399   C     0.55647   0.61176   0.24961   0.00000  Uiso   1.00
C400   C     0.57104   0.68752   0.22453   0.00000  Uiso   1.00
C401   C     0.54629   0.68259   0.18136   0.00000  Uiso   1.00
C402   C     0.58250   0.61563   0.29525   0.00000  Uiso   1.00
N403   N     0.56494   0.58856   0.31898   0.00000  Uiso   1.00
H404   H     0.36600   0.56504   0.03384   0.00000  Uiso   1.00
H405   H     0.42493   0.53356   0.10662   0.00000  Uiso   1.00
H406   H     0.46227   0.45752   0.17405   0.00000  Uiso   1.00
H407   H     0.50461   0.47208   0.24928   0.00000  Uiso   1.00
H408   H     0.60143   0.75107   0.23819   0.00000  Uiso   1.00
H409   H     0.55799   0.74151   0.16242   0.00000  Uiso   1.00
O410   O     0.99469   0.80933   0.45211   0.00000  Uiso   1.00
C411   C     0.98238   0.88120   0.41245   0.00000  Uiso   1.00
C412   C     0.00789   0.83110   0.39273   0.00000  Uiso   1.00
C413   C     0.98539   0.86553   0.34619   0.00000  Uiso   1.00
C414   C     0.97425   0.71437   0.31866   0.00000  Uiso   1.00
C415   C     0.95449   0.74425   0.27582   0.00000  Uiso   1.00
C416   C     0.94568   0.92494   0.26000   0.00000  Uiso   1.00
C417   C     0.95637   1.07622   0.28698   0.00000  Uiso   1.00
C418   C     0.97595   1.04719   0.32982   0.00000  Uiso   1.00
O419   O     0.95316   0.98836   0.39523   0.00000  Uiso   1.00
C420   C     0.04941   0.93369   0.41451   0.00000  Uiso   1.00
H421   H     0.01485   0.68014   0.39852   0.00000  Uiso   1.00
H422   H     0.98107   0.57317   0.33028   0.00000  Uiso   1.00
H423   H     0.94626   0.62712   0.25490   0.00000  Uiso   1.00
H424   H     0.93057   0.94772   0.22683   0.00000  Uiso   1.00
H425   H     0.94955   1.21623   0.27471   0.00000  Uiso   1.00
H426   H     0.98384   1.16652   0.35012   0.00000  Uiso   1.00
H427   H     0.06905   0.88935   0.40142   0.00000  Uiso   1.00
H428   H     0.06611   0.90269   0.44823   0.00000  Uiso   1.00
H429   H     0.04474   1.08590   0.41054   0.00000  Uiso   1.00
C430   C     0.48632   0.52011   0.50878   0.00000  Uiso   1.00
C431   C     0.50166   0.50188   0.55149   0.00000  Uiso   1.00
C432   C     0.47537   0.51534   0.56841   0.00000  Uiso   1.00
C433   C     0.51594   0.52090   0.49326   0.00000  Uiso   1.00
N434   N     0.50256   0.52432   0.45372   0.00000  Uiso   1.00
C435   C     0.52644   0.53353   0.43316   0.00000  Uiso   1.00
C436   C     0.57002   0.54799   0.45420   0.00000  Uiso   1.00
C437   C     0.59078   0.56669   0.43166   0.00000  Uiso   1.00
C438   C     0.56837   0.57000   0.38800   0.00000  Uiso   1.00
C439   C     0.52509   0.55138   0.36748   0.00000  Uiso   1.00
C440   C     0.50457   0.53522   0.38988   0.00000  Uiso   1.00
C441   C     0.58911   0.59510   0.36327   0.00000  Uiso   1.00
N442   N     0.63035   0.62834   0.38159   0.00000  Uiso   1.00
H443   H     0.53433   0.47309   0.57160   0.00000  Uiso   1.00
H444   H     0.54871   0.52302   0.51544   0.00000  Uiso   1.00
H445   H     0.58822   0.54804   0.48766   0.00000  Uiso   1.00
H446   H     0.62423   0.57987   0.44837   0.00000  Uiso   1.00
H447   H     0.50669   0.55298   0.33394   0.00000  Uiso   1.00
H448   H     0.47119   0.52668   0.37327   0.00000  Uiso   1.00
O449   O     0.32782   0.54918   0.94991   0.00000  Uiso   1.00
C450   C     0.30190   0.66295   0.95797   0.00000  Uiso   1.00
C451   C     0.25575   0.62714   0.93463   0.00000  Uiso   1.00
C452   C     0.23112   0.79002   0.93712   0.00000  Uiso   1.00
C453   C     0.20684   0.76814   0.95609   0.00000  Uiso   1.00
C454   C     0.18357   0.91696   0.95780   0.00000  Uiso   1.00
C455   C     0.18409   1.08834   0.94041   0.00000  Uiso   1.00
C456   C     0.20802   1.11150   0.92145   0.00000  Uiso   1.00
C457   C     0.23170   0.96403   0.92003   0.00000  Uiso   1.00
O458   O     0.31606   0.79001   0.98302   0.00000  Uiso   1.00
C459   C     0.24054   0.57816   0.88912   0.00000  Uiso   1.00
H460   H     0.25058   0.50267   0.94916   0.00000  Uiso   1.00
H461   H     0.20579   0.63597   0.96947   0.00000  Uiso   1.00
H462   H     0.16494   0.89914   0.97243   0.00000  Uiso   1.00
H463   H     0.16586   1.20308   0.94152   0.00000  Uiso   1.00
H464   H     0.20804   1.24345   0.90761   0.00000  Uiso   1.00
H465   H     0.25029   0.98525   0.90544   0.00000  Uiso   1.00
H466   H     0.20650   0.55445   0.87230   0.00000  Uiso   1.00
H467   H     0.25570   0.44870   0.88706   0.00000  Uiso   1.00
H468   H     0.24758   0.69233   0.87354   0.00000  Uiso   1.00
loop_
_geom_bond_atom_site_label_1
_geom_bond_atom_site_label_2
_geom_bond_distance
_geom_bond_site_symmetry_2
_ccdc_geom_bond_type
C1     C2      1.401   .     D
C1     C4      1.465   1_455 S
C1     C120    1.480   .     S
C2     C3      1.390   .     S
C2     H14     1.077   .     S
C3     O59     1.413   .     S
C3     C118    1.481   .     D
C4     C1      1.465   1_655 S
C4     N5      1.303   .     D
C4     H15     1.077   .     S
N5     C6      1.428   .     S
C6     C7      1.402   .     D
C6     C11     1.405   .     S
C7     C8      1.384   .     S
C7     H16     1.083   .     S
C8     C9      1.409   .     D
C8     H17     1.078   .     S
C9     C10     1.399   .     S
C9     C12     1.470   .     S
C10    C11     1.388   .     D
C10    H18     1.086   .     S
C11    H19     1.075   .     S
C12    N13     1.350   .     D
C12    N91     1.438   .     S
N13    C51     1.422   .     S
O20    C21     1.401   .     S
O20    C81     1.400   .     S
C21    C22     1.497   .     S
C21    O29     1.223   .     D
C22    C23     1.513   .     S
C22    C30     1.535   .     S
C22    H31     1.112   .     S
C23    C24     1.399   .     S
C23    C28     1.409   .     D
C24    C25     1.393   .     D
C24    H32     1.083   .     S
C25    C26     1.398   .     S
C25    H33     1.077   .     S
C26    C27     1.389   .     D
C26    H34     1.078   .     S
C27    C28     1.391   .     S
C27    H35     1.081   .     S
C28    H36     1.077   .     S
C30    H37     1.100   .     S
C30    H38     1.107   .     S
C30    H39     1.109   .     S
C40    C41     1.384   .     S
C40    C43     1.472   .     S
C40    C159    1.496   .     D
C41    C42     1.383   1_554 D
C41    H53     1.083   .     S
C42    C41     1.383   1_556 D
C42    O98     1.390   .     S
C42    C157    1.487   .     S
C43    N44     1.287   .     D
C43    H54     1.082   .     S
N44    C45     1.435   .     S
C45    C46     1.415   .     S
C45    C50     1.387   .     D
C46    C47     1.390   .     D
C46    H55     1.071   .     S
C47    C48     1.394   .     S
C47    H56     1.086   .     S
C48    C49     1.409   .     D
C48    C51     1.475   .     S
C49    C50     1.391   .     S
C49    H57     1.074   .     S
C50    H58     1.083   .     S
C51    N52     1.358   .     D
N52    C90     1.425   .     S
O59    C60     1.402   .     S
C60    C61     1.512   .     S
C60    O68     1.220   .     D
C61    C62     1.511   .     S
C61    C69     1.522   .     S
C61    H70     1.109   .     S
C62    C63     1.395   .     D
C62    C67     1.409   .     S
C63    C64     1.390   .     S
C63    H71     1.083   .     S
C64    C65     1.397   .     D
C64    H72     1.073   .     S
C65    C66     1.385   .     S
C65    H73     1.076   .     S
C66    C67     1.390   .     D
C66    H74     1.083   .     S
C67    H75     1.074   .     S
C69    H76     1.114   .     S
C69    H77     1.105   .     S
C69    H78     1.109   .     S
C79    C80     1.388   .     D
C79    C82     1.479   .     S
C79    C198    1.473   .     S
C80    C81     1.403   .     S
C80    H92     1.074   .     S
C81    C196    1.477   .     D
C82    N83     1.294   .     D
C82    H93     1.072   .     S
N83    C84     1.443   .     S
C84    C85     1.398   .     D
C84    C89     1.392   .     S
C85    C86     1.400   .     S
C85    H94     1.075   .     S
C86    C87     1.398   .     D
C86    H95     1.074   .     S
C87    C88     1.395   .     S
C87    C90     1.483   .     S
C88    C89     1.402   .     D
C88    H96     1.077   .     S
C89    H97     1.071   .     S
C90    N91     1.344   .     D
O98    C99     1.401   .     S
C99    C100    1.498   .     S
C99    O107    1.221   .     D
C100   C101    1.532   .     S
C100   C108    1.523   .     S
C100   H109    1.109   .     S
C101   C102    1.398   .     S
C101   C106    1.406   .     D
C102   C103    1.400   1_556 D
C102   H110    1.075   1_556 S
C103   C102    1.400   1_554 D
C103   C104    1.388   .     S
C103   H111    1.073   .     S
C104   C105    1.384   1_554 D
C104   H112    1.085   .     S
C105   C104    1.384   1_556 D
C105   C106    1.402   .     S
C105   H113    1.078   .     S
C106   H114    1.071   .     S
C108   H115    1.103   .     S
C108   H116    1.114   .     S
C108   H117    1.110   .     S
H110   C102    1.075   1_554 S
C118   C119    1.404   .     S
C118   C121    1.467   .     S
C119   C120    1.396   .     D
C119   H131    1.077   .     S
C120   O176    1.412   .     S
C121   N122    1.302   .     D
C121   H132    1.077   .     S
N122   C123    1.425   .     S
C123   C124    1.398   .     S
C123   C128    1.403   .     D
C124   C125    1.391   .     D
C124   H133    1.084   .     S
C125   C126    1.412   .     S
C125   H134    1.076   .     S
C126   C127    1.392   .     D
C126   C129    1.468   .     S
C127   C128    1.385   .     S
C127   H135    1.087   .     S
C128   H136    1.074   .     S
C129   N130    1.345   .     D
C129   N208    1.442   .     S
N130   C168    1.424   .     S
O137   C138    1.395   .     S
O137   C198    1.402   .     S
C138   C139    1.503   .     S
C138   O146    1.223   .     D
C139   C140    1.509   .     S
C139   C147    1.537   .     S
C139   H148    1.112   .     S
C140   C141    1.398   .     D
C140   C145    1.409   .     S
C141   C142    1.388   .     S
C141   H149    1.082   .     S
C142   C143    1.397   .     D
C142   H150    1.077   .     S
C143   C144    1.389   .     S
C143   H151    1.074   .     S
C144   C145    1.387   .     D
C144   H152    1.082   .     S
C145   H153    1.076   .     S
C147   H154    1.105   .     S
C147   H155    1.103   .     S
C147   H156    1.111   .     S
C157   C158    1.387   .     D
C157   C160    1.467   .     S
C158   C159    1.403   1_556 S
C158   H170    1.085   .     S
C159   C158    1.403   1_554 S
C159   O215    1.396   .     S
C160   N161    1.288   .     D
C160   H171    1.086   .     S
N161   C162    1.423   .     S
C162   C163    1.409   .     D
C162   C167    1.392   .     S
C163   C164    1.386   .     S
C163   H172    1.076   .     S
C164   C165    1.399   .     D
C164   H173    1.086   .     S
C165   C166    1.407   .     S
C165   C168    1.464   .     S
C166   C167    1.385   .     D
C166   H174    1.077   .     S
C167   H175    1.086   .     S
C168   N169    1.354   .     D
N169   C207    1.419   .     S
O176   C177    1.401   .     S
C177   C178    1.511   1_455 S
C177   O185    1.215   .     D
C178   C177    1.511   1_655 S
C178   C179    1.510   1_655 S
C178   C186    1.521   .     S
C178   H187    1.112   .     S
C179   C178    1.510   1_455 S
C179   C180    1.403   .     S
C179   C184    1.409   .     D
C180   C181    1.389   .     D
C180   H188    1.082   .     S
C181   C182    1.395   .     S
C181   H189    1.080   .     S
C182   C183    1.394   .     D
C182   H190    1.076   .     S
C183   C184    1.389   .     S
C183   H191    1.081   .     S
C184   H192    1.080   .     S
C186   H193    1.112   .     S
C186   H194    1.102   .     S
C186   H195    1.107   .     S
C196   C197    1.393   .     S
C196   C199    1.483   .     S
C197   C198    1.412   .     D
C197   H209    1.074   .     S
C199   N200    1.290   .     D
C199   H210    1.069   .     S
N200   C201    1.440   .     S
C201   C202    1.400   .     D
C201   C206    1.384   .     S
C202   C203    1.407   .     S
C202   H211    1.071   .     S
C203   C204    1.397   .     D
C203   H212    1.075   .     S
C204   C205    1.393   .     S
C204   C207    1.484   .     S
C205   C206    1.394   .     D
C205   H213    1.074   .     S
C206   H214    1.071   .     S
C207   N208    1.346   .     D
O215   C216    1.410   .     S
C216   C217    1.500   .     S
C216   O224    1.217   .     D
C217   C218    1.520   .     S
C217   C225    1.527   .     S
C217   H226    1.112   .     S
C218   C219    1.411   .     S
C218   C223    1.409   .     D
C219   C220    1.399   .     D
C219   H227    1.083   .     S
C220   C221    1.397   .     S
C220   H228    1.086   .     S
C221   C222    1.400   .     D
C221   H229    1.083   .     S
C222   C223    1.398   .     S
C222   H230    1.080   .     S
C223   H231    1.087   .     S
C225   H232    1.103   .     S
C225   H233    1.112   .     S
C225   H234    1.111   .     S
C235   C236    1.401   .     S
C235   C238    1.465   1_655 S
C235   C354    1.480   .     D
C236   C237    1.390   .     D
C236   H248    1.077   .     S
C237   O293    1.413   .     S
C237   C352    1.481   .     S
C238   C235    1.465   1_455 S
C238   N239    1.303   .     D
C238   H249    1.077   .     S
N239   C240    1.428   .     S
C240   C241    1.402   .     S
C240   C245    1.405   .     D
C241   C242    1.384   .     D
C241   H250    1.083   .     S
C242   C243    1.409   .     S
C242   H251    1.078   .     S
C243   C244    1.399   .     D
C243   C246    1.470   .     S
C244   C245    1.388   .     S
C244   H252    1.086   .     S
C245   H253    1.075   .     S
C246   N247    1.350   .     S
C246   N325    1.438   .     D
N247   C285    1.422   .     D
O254   C255    1.401   .     S
O254   C315    1.400   .     S
C255   C256    1.497   .     S
C255   O263    1.223   .     D
C256   C257    1.513   .     S
C256   C264    1.535   .     S
C256   H265    1.112   .     S
C257   C258    1.399   .     S
C257   C262    1.409   .     D
C258   C259    1.393   .     D
C258   H266    1.083   .     S
C259   C260    1.398   .     S
C259   H267    1.077   .     S
C260   C261    1.389   .     D
C260   H268    1.078   .     S
C261   C262    1.391   .     S
C261   H269    1.081   .     S
C262   H270    1.077   .     S
C264   H271    1.100   .     S
C264   H272    1.107   .     S
C264   H273    1.109   .     S
C274   C275    1.384   .     D
C274   C277    1.472   .     S
C274   C393    1.496   .     S
C275   C276    1.383   1_556 S
C275   H287    1.083   .     S
C276   C275    1.383   1_554 S
C276   O332    1.390   .     S
C276   C391    1.487   .     D
C277   N278    1.287   .     D
C277   H288    1.082   .     S
N278   C279    1.435   .     S
C279   C280    1.415   .     D
C279   C284    1.387   .     S
C280   C281    1.390   .     S
C280   H289    1.071   .     S
C281   C282    1.394   .     D
C281   H290    1.086   .     S
C282   C283    1.409   .     S
C282   C285    1.475   .     S
C283   C284    1.391   .     D
C283   H291    1.074   .     S
C284   H292    1.083   .     S
C285   N286    1.358   .     S
N286   C324    1.425   .     D
O293   C294    1.402   .     S
C294   C295    1.512   .     S
C294   O302    1.220   .     D
C295   C296    1.511   .     S
C295   C303    1.522   .     S
C295   H304    1.109   .     S
C296   C297    1.395   .     S
C296   C301    1.409   .     D
C297   C298    1.390   .     D
C297   H305    1.083   .     S
C298   C299    1.397   .     S
C298   H306    1.073   .     S
C299   C300    1.385   .     D
C299   H307    1.076   .     S
C300   C301    1.390   .     S
C300   H308    1.083   .     S
C301   H309    1.074   .     S
C303   H310    1.114   .     S
C303   H311    1.105   .     S
C303   H312    1.109   .     S
C313   C314    1.388   .     D
C313   C316    1.479   .     S
C313   C432    1.473   .     S
C314   C315    1.403   .     S
C314   H326    1.074   .     S
C315   C430    1.477   .     D
C316   N317    1.294   .     D
C316   H327    1.072   .     S
N317   C318    1.443   .     S
C318   C319    1.398   .     D
C318   C323    1.392   .     S
C319   C320    1.400   .     S
C319   H328    1.075   .     S
C320   C321    1.398   .     D
C320   H329    1.074   .     S
C321   C322    1.395   .     S
C321   C324    1.483   .     S
C322   C323    1.402   .     D
C322   H330    1.077   .     S
C323   H331    1.071   .     S
C324   N325    1.344   .     S
O332   C333    1.401   .     S
C333   C334    1.498   .     S
C333   O341    1.221   .     D
C334   C335    1.532   .     S
C334   C342    1.523   .     S
C334   H343    1.109   .     S
C335   C336    1.398   .     S
C335   C340    1.406   .     D
C336   C337    1.400   1_554 D
C336   H344    1.075   1_554 S
C337   C336    1.400   1_556 D
C337   C338    1.388   .     S
C337   H345    1.073   .     S
C338   C339    1.384   1_556 D
C338   H346    1.085   .     S
C339   C338    1.384   1_554 D
C339   C340    1.402   .     S
C339   H347    1.078   .     S
C340   H348    1.071   .     S
C342   H349    1.103   .     S
C342   H350    1.114   .     S
C342   H351    1.110   .     S
H344   C336    1.075   1_556 S
C352   C353    1.404   .     D
C352   C355    1.467   .     S
C353   C354    1.396   .     S
C353   H365    1.077   .     S
C354   O410    1.412   .     S
C355   N356    1.302   .     D
C355   H366    1.077   .     S
N356   C357    1.425   .     S
C357   C358    1.398   .     D
C357   C362    1.403   .     S
C358   C359    1.391   .     S
C358   H367    1.084   .     S
C359   C360    1.412   .     D
C359   H368    1.076   .     S
C360   C361    1.392   .     S
C360   C363    1.468   .     S
C361   C362    1.385   .     D
C361   H369    1.087   .     S
C362   H370    1.074   .     S
C363   N364    1.345   .     S
C363   N442    1.442   .     D
N364   C402    1.424   .     D
O371   C372    1.395   .     S
O371   C432    1.402   .     S
C372   C373    1.503   .     S
C372   O380    1.223   .     D
C373   C374    1.509   .     S
C373   C381    1.537   .     S
C373   H382    1.112   .     S
C374   C375    1.398   .     S
C374   C379    1.409   .     D
C375   C376    1.388   .     D
C375   H383    1.082   .     S
C376   C377    1.397   .     S
C376   H384    1.077   .     S
C377   C378    1.389   .     D
C377   H385    1.074   .     S
C378   C379    1.387   .     S
C378   H386    1.082   .     S
C379   H387    1.076   .     S
C381   H388    1.105   .     S
C381   H389    1.103   .     S
C381   H390    1.111   .     S
C391   C392    1.387   .     S
C391   C394    1.467   .     S
C392   C393    1.403   1_554 D
C392   H404    1.085   .     S
C393   C392    1.403   1_556 D
C393   O449    1.396   .     S
C394   N395    1.288   .     D
C394   H405    1.086   .     S
N395   C396    1.423   .     S
C396   C397    1.409   .     S
C396   C401    1.392   .     D
C397   C398    1.386   .     D
C397   H406    1.076   .     S
C398   C399    1.399   .     S
C398   H407    1.086   .     S
C399   C400    1.407   .     D
C399   C402    1.464   .     S
C400   C401    1.385   .     S
C400   H408    1.077   .     S
C401   H409    1.086   .     S
C402   N403    1.354   .     S
N403   C441    1.419   .     D
O410   C411    1.401   .     S
C411   C412    1.511   1_655 S
C411   O419    1.215   .     D
C412   C411    1.511   1_455 S
C412   C413    1.510   1_455 S
C412   C420    1.521   .     S
C412   H421    1.112   .     S
C413   C412    1.510   1_655 S
C413   C414    1.403   .     S
C413   C418    1.409   .     D
C414   C415    1.389   .     D
C414   H422    1.082   .     S
C415   C416    1.395   .     S
C415   H423    1.080   .     S
C416   C417    1.394   .     D
C416   H424    1.076   .     S
C417   C418    1.389   .     S
C417   H425    1.081   .     S
C418   H426    1.080   .     S
C420   H427    1.112   .     S
C420   H428    1.102   .     S
C420   H429    1.107   .     S
C430   C431    1.393   .     S
C430   C433    1.483   .     S
C431   C432    1.412   .     D
C431   H443    1.074   .     S
C433   N434    1.290   .     D
C433   H444    1.069   .     S
N434   C435    1.440   .     S
C435   C436    1.400   .     D
C435   C440    1.384   .     S
C436   C437    1.407   .     S
C436   H445    1.071   .     S
C437   C438    1.397   .     D
C437   H446    1.075   .     S
C438   C439    1.393   .     S
C438   C441    1.484   .     S
C439   C440    1.394   .     D
C439   H447    1.074   .     S
C440   H448    1.071   .     S
C441   N442    1.346   .     S
O449   C450    1.410   .     S
C450   C451    1.500   .     S
C450   O458    1.217   .     D
C451   C452    1.520   .     S
C451   C459    1.527   .     S
C451   H460    1.112   .     S
C452   C453    1.411   .     S
C452   C457    1.409   .     D
C453   C454    1.399   .     D
C453   H461    1.083   .     S
C454   C455    1.397   .     S
C454   H462    1.086   .     S
C455   C456    1.400   .     D
C455   H463    1.083   .     S
C456   C457    1.398   .     S
C456   H464    1.080   .     S
C457   H465    1.087   .     S
C459   H466    1.103   .     S
C459   H467    1.112   .     S
C459   H468    1.111   .     S
