data_372
_audit_creation_date              2023-09-08
_audit_creation_method            'Materials Studio'
_symmetry_space_group_name_H-M    'P1'
_symmetry_Int_Tables_number       1
_symmetry_cell_setting            triclinic
loop_
_symmetry_equiv_pos_as_xyz
  x,y,z
_cell_length_a                    37.5464
_cell_length_b                    37.5464
_cell_length_c                    7.3308
_cell_angle_alpha                 90.0000
_cell_angle_beta                  90.0000
_cell_angle_gamma                 120.0000
loop_
_atom_site_label
_atom_site_type_symbol
_atom_site_fract_x
_atom_site_fract_y
_atom_site_fract_z
_atom_site_U_iso_or_equiv
_atom_site_adp_type
_atom_site_occupancy
C1     C     0.48002   0.95713   0.32652   0.00000  Uiso   1.00
C2     C     0.46529   0.98466   0.32720   0.00000  Uiso   1.00
C3     C     0.49130   0.02697   0.29861   0.00000  Uiso   1.00
C4     C     0.44976   0.91273   0.34381   0.00000  Uiso   1.00
N5     N     0.46094   0.88500   0.34056   0.00000  Uiso   1.00
C6     C     0.43368   0.84117   0.34697   0.00000  Uiso   1.00
C7     C     0.39110   0.82251   0.31130   0.00000  Uiso   1.00
C8     C     0.36628   0.77977   0.31594   0.00000  Uiso   1.00
C9     C     0.38343   0.75475   0.35244   0.00000  Uiso   1.00
C10    C     0.42588   0.77335   0.38523   0.00000  Uiso   1.00
C11    C     0.45064   0.81609   0.38302   0.00000  Uiso   1.00
C12    C     0.35740   0.70953   0.35404   0.00000  Uiso   1.00
N13    N     0.31593   0.69170   0.35416   0.00000  Uiso   1.00
H14    H     0.43280   0.97250   0.34436   0.00000  Uiso   1.00
H15    H     0.41767   0.90386   0.35977   0.00000  Uiso   1.00
H16    H     0.37679   0.84043   0.27680   0.00000  Uiso   1.00
H17    H     0.33374   0.76635   0.28787   0.00000  Uiso   1.00
H18    H     0.43993   0.75481   0.41314   0.00000  Uiso   1.00
H19    H     0.48325   0.82975   0.40903   0.00000  Uiso   1.00
O20    O     0.57802   0.52487   0.26537   0.00000  Uiso   1.00
C21    C     0.60575   0.55667   0.37982   0.00000  Uiso   1.00
C22    C     0.64857   0.58596   0.31113   0.00000  Uiso   1.00
C23    C     0.65624   0.62996   0.29596   0.00000  Uiso   1.00
C24    C     0.62459   0.63636   0.23070   0.00000  Uiso   1.00
C25    C     0.63107   0.67588   0.20397   0.00000  Uiso   1.00
C26    C     0.66978   0.70999   0.23595   0.00000  Uiso   1.00
C27    C     0.70192   0.70453   0.29667   0.00000  Uiso   1.00
C28    C     0.69534   0.66494   0.32756   0.00000  Uiso   1.00
O29    O     0.59583   0.56053   0.53391   0.00000  Uiso   1.00
C30    C     0.68007   0.58173   0.42914   0.00000  Uiso   1.00
H31    H     0.65110   0.57604   0.17097   0.00000  Uiso   1.00
H32    H     0.59525   0.61073   0.19166   0.00000  Uiso   1.00
H33    H     0.60607   0.67978   0.15497   0.00000  Uiso   1.00
H34    H     0.67496   0.74065   0.21277   0.00000  Uiso   1.00
H35    H     0.73202   0.73099   0.32163   0.00000  Uiso   1.00
H36    H     0.72120   0.66213   0.37337   0.00000  Uiso   1.00
H37    H     0.68262   0.59577   0.56522   0.00000  Uiso   1.00
H38    H     0.67063   0.54875   0.44794   0.00000  Uiso   1.00
H39    H     0.71065   0.59666   0.36185   0.00000  Uiso   1.00
C40    C     0.53602   0.04302   0.27320   0.00000  Uiso   1.00
C41    C     0.55091   0.01554   0.27379   0.00000  Uiso   1.00
C42    C     0.52472   0.97339   0.30137   0.00000  Uiso   1.00
C43    C     0.56538   0.08745   0.25096   0.00000  Uiso   1.00
N44    N     0.55325   0.11413   0.27181   0.00000  Uiso   1.00
C45    C     0.57764   0.15813   0.25900   0.00000  Uiso   1.00
C46    C     0.62027   0.17914   0.22459   0.00000  Uiso   1.00
C47    C     0.64212   0.22207   0.21524   0.00000  Uiso   1.00
C48    C     0.62194   0.24484   0.23990   0.00000  Uiso   1.00
C49    C     0.57937   0.22368   0.27296   0.00000  Uiso   1.00
C50    C     0.55761   0.18077   0.28295   0.00000  Uiso   1.00
C51    C     0.64522   0.29031   0.23452   0.00000  Uiso   1.00
N52    N     0.68687   0.31087   0.23464   0.00000  Uiso   1.00
H53    H     0.58319   0.02680   0.25034   0.00000  Uiso   1.00
H54    H     0.59717   0.09709   0.22163   0.00000  Uiso   1.00
H55    H     0.63709   0.16304   0.20517   0.00000  Uiso   1.00
H56    H     0.67487   0.23731   0.18930   0.00000  Uiso   1.00
H57    H     0.56287   0.24022   0.29339   0.00000  Uiso   1.00
H58    H     0.52488   0.16499   0.30992   0.00000  Uiso   1.00
O59    O     0.40613   0.45943   0.29200   0.00000  Uiso   1.00
C60    C     0.38370   0.43339   0.43770   0.00000  Uiso   1.00
C61    C     0.33908   0.40131   0.40762   0.00000  Uiso   1.00
C62    C     0.32898   0.35813   0.46725   0.00000  Uiso   1.00
C63    C     0.35988   0.34699   0.48021   0.00000  Uiso   1.00
C64    C     0.34974   0.30684   0.52623   0.00000  Uiso   1.00
C65    C     0.30872   0.27696   0.55612   0.00000  Uiso   1.00
C66    C     0.27786   0.28714   0.53908   0.00000  Uiso   1.00
C67    C     0.28769   0.32709   0.49398   0.00000  Uiso   1.00
O68    O     0.39886   0.43840   0.58976   0.00000  Uiso   1.00
C69    C     0.31201   0.41567   0.50355   0.00000  Uiso   1.00
H70    H     0.33260   0.40001   0.25799   0.00000  Uiso   1.00
H71    H     0.39184   0.36908   0.45348   0.00000  Uiso   1.00
H72    H     0.37358   0.29852   0.53533   0.00000  Uiso   1.00
H73    H     0.30099   0.24591   0.59200   0.00000  Uiso   1.00
H74    H     0.24605   0.26381   0.55912   0.00000  Uiso   1.00
H75    H     0.26261   0.33326   0.48087   0.00000  Uiso   1.00
H76    H     0.31236   0.41142   0.65377   0.00000  Uiso   1.00
H77    H     0.32353   0.44863   0.47521   0.00000  Uiso   1.00
H78    H     0.27991   0.39908   0.45134   0.00000  Uiso   1.00
C79    C     0.15351   0.29109   0.77161   0.00000  Uiso   1.00
C80    C     0.14144   0.31967   0.72798   0.00000  Uiso   1.00
C81    C     0.16916   0.36194   0.73537   0.00000  Uiso   1.00
C82    C     0.12190   0.24688   0.76776   0.00000  Uiso   1.00
N83    N     0.13120   0.21845   0.80044   0.00000  Uiso   1.00
C84    C     0.10345   0.17465   0.80311   0.00000  Uiso   1.00
C85    C     0.06066   0.15660   0.77744   0.00000  Uiso   1.00
C86    C     0.03524   0.11388   0.78359   0.00000  Uiso   1.00
C87    C     0.05188   0.08816   0.81537   0.00000  Uiso   1.00
C88    C     0.09456   0.10618   0.84021   0.00000  Uiso   1.00
C89    C     0.11995   0.14895   0.83490   0.00000  Uiso   1.00
C90    C     0.02490   0.04287   0.82065   0.00000  Uiso   1.00
N91    N     0.98343   0.02580   0.82082   0.00000  Uiso   1.00
H92    H     0.11024   0.30913   0.68365   0.00000  Uiso   1.00
H93    H     0.09059   0.23893   0.73721   0.00000  Uiso   1.00
H94    H     0.04617   0.17475   0.75138   0.00000  Uiso   1.00
H95    H     0.00250   0.10096   0.76207   0.00000  Uiso   1.00
H96    H     0.10839   0.08728   0.86549   0.00000  Uiso   1.00
H97    H     0.15276   0.16226   0.85445   0.00000  Uiso   1.00
O98    O     0.23226   0.84285   0.66949   0.00000  Uiso   1.00
C99    C     0.26426   0.87698   0.75794   0.00000  Uiso   1.00
C100   C     0.30199   0.90554   0.65075   0.00000  Uiso   1.00
C101   C     0.32032   0.95009   0.71455   0.00000  Uiso   1.00
C102   C     0.29500   0.96791   0.71727   0.00000  Uiso   1.00
C103   C     0.31017   0.00826   0.77724   0.00000  Uiso   1.00
C104   C     0.35110   0.03186   0.83196   0.00000  Uiso   1.00
C105   C     0.37694   0.01516   0.82610   0.00000  Uiso   1.00
C106   C     0.36175   0.97450   0.76946   0.00000  Uiso   1.00
O107   O     0.26215   0.88283   0.92079   0.00000  Uiso   1.00
C108   C     0.33178   0.88879   0.65176   0.00000  Uiso   1.00
H109   H     0.29207   0.90444   0.50746   0.00000  Uiso   1.00
H110   H     0.26342   0.95067   0.67124   0.00000  Uiso   1.00
H111   H     0.29013   0.02126   0.77939   0.00000  Uiso   1.00
H112   H     0.36285   0.06310   0.87892   0.00000  Uiso   1.00
H113   H     0.40863   0.03347   0.86992   0.00000  Uiso   1.00
H114   H     0.38266   0.96258   0.77015   0.00000  Uiso   1.00
H115   H     0.34217   0.88782   0.79287   0.00000  Uiso   1.00
H116   H     0.31621   0.85699   0.59563   0.00000  Uiso   1.00
H117   H     0.35880   0.90794   0.56367   0.00000  Uiso   1.00
C118   C     0.21227   0.37714   0.79463   0.00000  Uiso   1.00
C119   C     0.22512   0.34859   0.82984   0.00000  Uiso   1.00
C120   C     0.19723   0.30614   0.82156   0.00000  Uiso   1.00
C121   C     0.24135   0.42162   0.81988   0.00000  Uiso   1.00
N122   N     0.22792   0.44751   0.81745   0.00000  Uiso   1.00
C123   C     0.25117   0.49150   0.83382   0.00000  Uiso   1.00
C124   C     0.29444   0.51434   0.82438   0.00000  Uiso   1.00
C125   C     0.31502   0.55738   0.83253   0.00000  Uiso   1.00
C126   C     0.29276   0.57821   0.84786   0.00000  Uiso   1.00
C127   C     0.24959   0.55511   0.85867   0.00000  Uiso   1.00
C128   C     0.22919   0.51228   0.85180   0.00000  Uiso   1.00
C129   C     0.31402   0.62371   0.85078   0.00000  Uiso   1.00
N130   N     0.35561   0.64626   0.85063   0.00000  Uiso   1.00
H131   H     0.25693   0.35935   0.86439   0.00000  Uiso   1.00
H132   H     0.27364   0.43192   0.84192   0.00000  Uiso   1.00
H133   H     0.31251   0.49943   0.80804   0.00000  Uiso   1.00
H134   H     0.34827   0.57434   0.82437   0.00000  Uiso   1.00
H135   H     0.23128   0.56989   0.87166   0.00000  Uiso   1.00
H136   H     0.19591   0.49506   0.86044   0.00000  Uiso   1.00
O137   O     0.06681   0.78911   0.83817   0.00000  Uiso   1.00
C138   C     0.04654   0.76690   0.99528   0.00000  Uiso   1.00
C139   C     0.00013   0.74481   0.99868   0.00000  Uiso   1.00
C140   C     0.98106   0.69834   1.02858   0.00000  Uiso   1.00
C141   C     0.00051   0.67725   0.95748   0.00000  Uiso   1.00
C142   C     0.98171   0.63439   0.96861   0.00000  Uiso   1.00
C143   C     0.94301   0.61178   1.05023   0.00000  Uiso   1.00
C144   C     0.92305   0.63187   1.12005   0.00000  Uiso   1.00
C145   C     0.94175   0.67473   1.10926   0.00000  Uiso   1.00
O146   O     0.06569   0.76587   1.12847   0.00000  Uiso   1.00
C147   C     0.98597   0.76632   1.13472   0.00000  Uiso   1.00
H148   H     0.98964   0.74887   0.86250   0.00000  Uiso   1.00
H149   H     0.02999   0.69394   0.88933   0.00000  Uiso   1.00
H150   H     0.99667   0.61847   0.91096   0.00000  Uiso   1.00
H151   H     0.92836   0.57867   1.05849   0.00000  Uiso   1.00
H152   H     0.89303   0.61409   1.18313   0.00000  Uiso   1.00
H153   H     0.92519   0.68907   1.16391   0.00000  Uiso   1.00
H154   H     0.98963   0.75880   1.27636   0.00000  Uiso   1.00
H155   H     0.00446   0.80026   1.11664   0.00000  Uiso   1.00
H156   H     0.95330   0.75726   1.10955   0.00000  Uiso   1.00
C157   C     0.04287   0.52289   0.32652   0.00000  Uiso   1.00
C158   C     0.01534   0.48063   0.32720   0.00000  Uiso   1.00
C159   C     0.97303   0.46433   0.29861   0.00000  Uiso   1.00
C160   C     0.08727   0.53703   0.34381   0.00000  Uiso   1.00
N161   N     0.11500   0.57594   0.34056   0.00000  Uiso   1.00
C162   C     0.15883   0.59251   0.34697   0.00000  Uiso   1.00
C163   C     0.17749   0.56859   0.31130   0.00000  Uiso   1.00
C164   C     0.22023   0.58651   0.31594   0.00000  Uiso   1.00
C165   C     0.24525   0.62868   0.35244   0.00000  Uiso   1.00
C166   C     0.22665   0.65253   0.38523   0.00000  Uiso   1.00
C167   C     0.18391   0.63455   0.38302   0.00000  Uiso   1.00
C168   C     0.29047   0.64787   0.35404   0.00000  Uiso   1.00
N169   N     0.30830   0.62423   0.35416   0.00000  Uiso   1.00
H170   H     0.02750   0.46030   0.34436   0.00000  Uiso   1.00
H171   H     0.09614   0.51381   0.35977   0.00000  Uiso   1.00
H172   H     0.15957   0.53636   0.27680   0.00000  Uiso   1.00
H173   H     0.23365   0.56739   0.28787   0.00000  Uiso   1.00
H174   H     0.24519   0.68512   0.41314   0.00000  Uiso   1.00
H175   H     0.17025   0.65350   0.40903   0.00000  Uiso   1.00
O176   O     0.47513   0.05315   0.26537   0.00000  Uiso   1.00
C177   C     0.44333   0.04908   0.37982   0.00000  Uiso   1.00
C178   C     0.41404   0.06261   0.31113   0.00000  Uiso   1.00
C179   C     0.37004   0.02628   0.29596   0.00000  Uiso   1.00
C180   C     0.36364   0.98823   0.23070   0.00000  Uiso   1.00
C181   C     0.32412   0.95519   0.20397   0.00000  Uiso   1.00
C182   C     0.29001   0.95979   0.23595   0.00000  Uiso   1.00
C183   C     0.29547   0.99739   0.29667   0.00000  Uiso   1.00
C184   C     0.33506   0.03040   0.32756   0.00000  Uiso   1.00
O185   O     0.43947   0.03530   0.53391   0.00000  Uiso   1.00
C186   C     0.41827   0.09834   0.42914   0.00000  Uiso   1.00
H187   H     0.42396   0.07506   0.17097   0.00000  Uiso   1.00
H188   H     0.38927   0.98452   0.19166   0.00000  Uiso   1.00
H189   H     0.32022   0.92629   0.15497   0.00000  Uiso   1.00
H190   H     0.25935   0.93431   0.21277   0.00000  Uiso   1.00
H191   H     0.26901   0.00103   0.32163   0.00000  Uiso   1.00
H192   H     0.33787   0.05907   0.37337   0.00000  Uiso   1.00
H193   H     0.40423   0.08685   0.56522   0.00000  Uiso   1.00
H194   H     0.45125   0.12188   0.44794   0.00000  Uiso   1.00
H195   H     0.40334   0.11399   0.36185   0.00000  Uiso   1.00
C196   C     0.95698   0.49300   0.27320   0.00000  Uiso   1.00
C197   C     0.98446   0.53537   0.27379   0.00000  Uiso   1.00
C198   C     0.02661   0.55133   0.30137   0.00000  Uiso   1.00
C199   C     0.91255   0.47793   0.25096   0.00000  Uiso   1.00
N200   N     0.88587   0.43912   0.27181   0.00000  Uiso   1.00
C201   C     0.84187   0.41951   0.25900   0.00000  Uiso   1.00
C202   C     0.82086   0.44113   0.22459   0.00000  Uiso   1.00
C203   C     0.77793   0.42005   0.21524   0.00000  Uiso   1.00
C204   C     0.75516   0.37710   0.23990   0.00000  Uiso   1.00
C205   C     0.77632   0.35569   0.27296   0.00000  Uiso   1.00
C206   C     0.81923   0.37684   0.28295   0.00000  Uiso   1.00
C207   C     0.70969   0.35491   0.23452   0.00000  Uiso   1.00
N208   N     0.68913   0.37600   0.23464   0.00000  Uiso   1.00
H209   H     0.97320   0.55639   0.25034   0.00000  Uiso   1.00
H210   H     0.90291   0.50008   0.22163   0.00000  Uiso   1.00
H211   H     0.83696   0.47405   0.20517   0.00000  Uiso   1.00
H212   H     0.76269   0.43756   0.18930   0.00000  Uiso   1.00
H213   H     0.75978   0.32265   0.29339   0.00000  Uiso   1.00
H214   H     0.83501   0.35989   0.30992   0.00000  Uiso   1.00
O215   O     0.54057   0.94670   0.29200   0.00000  Uiso   1.00
C216   C     0.56661   0.95031   0.43770   0.00000  Uiso   1.00
C217   C     0.59869   0.93777   0.40762   0.00000  Uiso   1.00
C218   C     0.64187   0.97085   0.46725   0.00000  Uiso   1.00
C219   C     0.65301   0.01289   0.48021   0.00000  Uiso   1.00
C220   C     0.69316   0.04290   0.52623   0.00000  Uiso   1.00
C221   C     0.72304   0.03176   0.55612   0.00000  Uiso   1.00
C222   C     0.71286   0.99072   0.53908   0.00000  Uiso   1.00
C223   C     0.67291   0.96060   0.49398   0.00000  Uiso   1.00
O224   O     0.56160   0.96046   0.58976   0.00000  Uiso   1.00
C225   C     0.58433   0.89634   0.50355   0.00000  Uiso   1.00
H226   H     0.59999   0.93259   0.25799   0.00000  Uiso   1.00
H227   H     0.63092   0.02276   0.45348   0.00000  Uiso   1.00
H228   H     0.70148   0.07506   0.53533   0.00000  Uiso   1.00
H229   H     0.75409   0.05508   0.59200   0.00000  Uiso   1.00
H230   H     0.73619   0.98224   0.55912   0.00000  Uiso   1.00
H231   H     0.66674   0.92935   0.48087   0.00000  Uiso   1.00
H232   H     0.58858   0.90094   0.65377   0.00000  Uiso   1.00
H233   H     0.55137   0.87490   0.47521   0.00000  Uiso   1.00
H234   H     0.60092   0.88083   0.45134   0.00000  Uiso   1.00
C235   C     0.70891   0.86242   0.77161   0.00000  Uiso   1.00
C236   C     0.68033   0.82177   0.72798   0.00000  Uiso   1.00
C237   C     0.63806   0.80722   0.73537   0.00000  Uiso   1.00
C238   C     0.75312   0.87502   0.76776   0.00000  Uiso   1.00
N239   N     0.78155   0.91275   0.80044   0.00000  Uiso   1.00
C240   C     0.82535   0.92880   0.80311   0.00000  Uiso   1.00
C241   C     0.84340   0.90406   0.77744   0.00000  Uiso   1.00
C242   C     0.88612   0.92136   0.78359   0.00000  Uiso   1.00
C243   C     0.91184   0.96372   0.81537   0.00000  Uiso   1.00
C244   C     0.89382   0.98838   0.84021   0.00000  Uiso   1.00
C245   C     0.85105   0.97100   0.83490   0.00000  Uiso   1.00
C246   C     0.95713   0.98203   0.82065   0.00000  Uiso   1.00
N247   N     0.97420   0.95763   0.82082   0.00000  Uiso   1.00
H248   H     0.69087   0.80111   0.68365   0.00000  Uiso   1.00
H249   H     0.76107   0.85166   0.73721   0.00000  Uiso   1.00
H250   H     0.82525   0.87142   0.75138   0.00000  Uiso   1.00
H251   H     0.89904   0.90154   0.76207   0.00000  Uiso   1.00
H252   H     0.91272   0.02111   0.86549   0.00000  Uiso   1.00
H253   H     0.83774   0.99050   0.85445   0.00000  Uiso   1.00
O254   O     0.15715   0.38941   0.66949   0.00000  Uiso   1.00
C255   C     0.12302   0.38728   0.75794   0.00000  Uiso   1.00
C256   C     0.09446   0.39645   0.65075   0.00000  Uiso   1.00
C257   C     0.04991   0.37023   0.71455   0.00000  Uiso   1.00
C258   C     0.03209   0.32709   0.71727   0.00000  Uiso   1.00
C259   C     0.99174   0.30191   0.77724   0.00000  Uiso   1.00
C260   C     0.96814   0.31924   0.83196   0.00000  Uiso   1.00
C261   C     0.98484   0.36178   0.82610   0.00000  Uiso   1.00
C262   C     0.02550   0.38725   0.76946   0.00000  Uiso   1.00
O263   O     0.11717   0.37932   0.92079   0.00000  Uiso   1.00
C264   C     0.11121   0.44299   0.65176   0.00000  Uiso   1.00
H265   H     0.09556   0.38763   0.50746   0.00000  Uiso   1.00
H266   H     0.04933   0.31275   0.67124   0.00000  Uiso   1.00
H267   H     0.97874   0.26887   0.77939   0.00000  Uiso   1.00
H268   H     0.93690   0.29975   0.87892   0.00000  Uiso   1.00
H269   H     0.96653   0.37516   0.86992   0.00000  Uiso   1.00
H270   H     0.03742   0.42008   0.77015   0.00000  Uiso   1.00
H271   H     0.11218   0.45435   0.79287   0.00000  Uiso   1.00
H272   H     0.14301   0.45922   0.59563   0.00000  Uiso   1.00
H273   H     0.09206   0.45086   0.56367   0.00000  Uiso   1.00
C274   C     0.62286   0.83513   0.79463   0.00000  Uiso   1.00
C275   C     0.65141   0.87653   0.82984   0.00000  Uiso   1.00
C276   C     0.69386   0.89109   0.82156   0.00000  Uiso   1.00
C277   C     0.57838   0.81973   0.81988   0.00000  Uiso   1.00
N278   N     0.55249   0.78041   0.81745   0.00000  Uiso   1.00
C279   C     0.50850   0.75967   0.83382   0.00000  Uiso   1.00
C280   C     0.48566   0.78010   0.82438   0.00000  Uiso   1.00
C281   C     0.44262   0.75764   0.83253   0.00000  Uiso   1.00
C282   C     0.42179   0.71455   0.84786   0.00000  Uiso   1.00
C283   C     0.44489   0.69448   0.85867   0.00000  Uiso   1.00
C284   C     0.48772   0.71691   0.85180   0.00000  Uiso   1.00
C285   C     0.37629   0.69031   0.85078   0.00000  Uiso   1.00
N286   N     0.35374   0.70935   0.85063   0.00000  Uiso   1.00
H287   H     0.64065   0.89758   0.86439   0.00000  Uiso   1.00
H288   H     0.56808   0.84172   0.84192   0.00000  Uiso   1.00
H289   H     0.50057   0.81308   0.80804   0.00000  Uiso   1.00
H290   H     0.42566   0.77393   0.82437   0.00000  Uiso   1.00
H291   H     0.43011   0.66139   0.87166   0.00000  Uiso   1.00
H292   H     0.50494   0.70085   0.86044   0.00000  Uiso   1.00
O293   O     0.21089   0.27770   0.83817   0.00000  Uiso   1.00
C294   C     0.23310   0.27964   0.99528   0.00000  Uiso   1.00
C295   C     0.25519   0.25532   0.99868   0.00000  Uiso   1.00
C296   C     0.30166   0.28272   1.02858   0.00000  Uiso   1.00
C297   C     0.32275   0.32326   0.95748   0.00000  Uiso   1.00
C298   C     0.36561   0.34732   0.96861   0.00000  Uiso   1.00
C299   C     0.38822   0.33123   1.05023   0.00000  Uiso   1.00
C300   C     0.36813   0.29118   1.12005   0.00000  Uiso   1.00
C301   C     0.32527   0.26702   1.10926   0.00000  Uiso   1.00
O302   O     0.23413   0.29982   1.12847   0.00000  Uiso   1.00
C303   C     0.23368   0.21965   1.13472   0.00000  Uiso   1.00
H304   H     0.25113   0.24077   0.86250   0.00000  Uiso   1.00
H305   H     0.30606   0.33605   0.88933   0.00000  Uiso   1.00
H306   H     0.38153   0.37820   0.91096   0.00000  Uiso   1.00
H307   H     0.42133   0.34969   1.05849   0.00000  Uiso   1.00
H308   H     0.38591   0.27894   1.18313   0.00000  Uiso   1.00
H309   H     0.31093   0.23612   1.16391   0.00000  Uiso   1.00
H310   H     0.24120   0.23083   1.27636   0.00000  Uiso   1.00
H311   H     0.19974   0.20420   1.11664   0.00000  Uiso   1.00
H312   H     0.24274   0.19604   1.10955   0.00000  Uiso   1.00
C313   C     0.47711   0.51998   0.32652   0.00000  Uiso   1.00
C314   C     0.51937   0.53471   0.32720   0.00000  Uiso   1.00
C315   C     0.53567   0.50870   0.29861   0.00000  Uiso   1.00
C316   C     0.46297   0.55024   0.34381   0.00000  Uiso   1.00
N317   N     0.42406   0.53906   0.34056   0.00000  Uiso   1.00
C318   C     0.40749   0.56632   0.34697   0.00000  Uiso   1.00
C319   C     0.43141   0.60890   0.31130   0.00000  Uiso   1.00
C320   C     0.41349   0.63372   0.31594   0.00000  Uiso   1.00
C321   C     0.37132   0.61657   0.35244   0.00000  Uiso   1.00
C322   C     0.34747   0.57412   0.38523   0.00000  Uiso   1.00
C323   C     0.36545   0.54936   0.38302   0.00000  Uiso   1.00
C324   C     0.35213   0.64260   0.35404   0.00000  Uiso   1.00
N325   N     0.37577   0.68407   0.35416   0.00000  Uiso   1.00
H326   H     0.53970   0.56720   0.34436   0.00000  Uiso   1.00
H327   H     0.48619   0.58233   0.35977   0.00000  Uiso   1.00
H328   H     0.46364   0.62321   0.27680   0.00000  Uiso   1.00
H329   H     0.43261   0.66626   0.28787   0.00000  Uiso   1.00
H330   H     0.31488   0.56007   0.41314   0.00000  Uiso   1.00
H331   H     0.34650   0.51675   0.40903   0.00000  Uiso   1.00
O332   O     0.94685   0.42198   0.26537   0.00000  Uiso   1.00
C333   C     0.95092   0.39425   0.37982   0.00000  Uiso   1.00
C334   C     0.93739   0.35143   0.31113   0.00000  Uiso   1.00
C335   C     0.97372   0.34376   0.29596   0.00000  Uiso   1.00
C336   C     0.01177   0.37541   0.23070   0.00000  Uiso   1.00
C337   C     0.04481   0.36893   0.20397   0.00000  Uiso   1.00
C338   C     0.04021   0.33022   0.23595   0.00000  Uiso   1.00
C339   C     0.00261   0.29808   0.29667   0.00000  Uiso   1.00
C340   C     0.96960   0.30466   0.32756   0.00000  Uiso   1.00
O341   O     0.96470   0.40417   0.53391   0.00000  Uiso   1.00
C342   C     0.90166   0.31993   0.42914   0.00000  Uiso   1.00
H343   H     0.92494   0.34890   0.17097   0.00000  Uiso   1.00
H344   H     0.01548   0.40475   0.19166   0.00000  Uiso   1.00
H345   H     0.07371   0.39393   0.15497   0.00000  Uiso   1.00
H346   H     0.06569   0.32504   0.21277   0.00000  Uiso   1.00
H347   H     0.99897   0.26798   0.32163   0.00000  Uiso   1.00
H348   H     0.94093   0.27880   0.37337   0.00000  Uiso   1.00
H349   H     0.91315   0.31738   0.56522   0.00000  Uiso   1.00
H350   H     0.87812   0.32937   0.44794   0.00000  Uiso   1.00
H351   H     0.88601   0.28935   0.36185   0.00000  Uiso   1.00
C352   C     0.50700   0.46398   0.27320   0.00000  Uiso   1.00
C353   C     0.46463   0.44909   0.27379   0.00000  Uiso   1.00
C354   C     0.44867   0.47528   0.30137   0.00000  Uiso   1.00
C355   C     0.52207   0.43462   0.25096   0.00000  Uiso   1.00
N356   N     0.56088   0.44675   0.27181   0.00000  Uiso   1.00
C357   C     0.58049   0.42236   0.25900   0.00000  Uiso   1.00
C358   C     0.55887   0.37973   0.22459   0.00000  Uiso   1.00
C359   C     0.57995   0.35788   0.21524   0.00000  Uiso   1.00
C360   C     0.62290   0.37806   0.23990   0.00000  Uiso   1.00
C361   C     0.64431   0.42063   0.27296   0.00000  Uiso   1.00
C362   C     0.62316   0.44239   0.28295   0.00000  Uiso   1.00
C363   C     0.64509   0.35478   0.23452   0.00000  Uiso   1.00
N364   N     0.62400   0.31313   0.23464   0.00000  Uiso   1.00
H365   H     0.44361   0.41681   0.25034   0.00000  Uiso   1.00
H366   H     0.49992   0.40283   0.22163   0.00000  Uiso   1.00
H367   H     0.52595   0.36291   0.20517   0.00000  Uiso   1.00
H368   H     0.56244   0.32513   0.18930   0.00000  Uiso   1.00
H369   H     0.67735   0.43713   0.29339   0.00000  Uiso   1.00
H370   H     0.64011   0.47512   0.30992   0.00000  Uiso   1.00
O371   O     0.05330   0.59387   0.29200   0.00000  Uiso   1.00
C372   C     0.04969   0.61630   0.43770   0.00000  Uiso   1.00
C373   C     0.06223   0.66092   0.40762   0.00000  Uiso   1.00
C374   C     0.02915   0.67102   0.46725   0.00000  Uiso   1.00
C375   C     0.98711   0.64012   0.48021   0.00000  Uiso   1.00
C376   C     0.95710   0.65026   0.52623   0.00000  Uiso   1.00
C377   C     0.96824   0.69128   0.55612   0.00000  Uiso   1.00
C378   C     0.00928   0.72214   0.53908   0.00000  Uiso   1.00
C379   C     0.03940   0.71231   0.49398   0.00000  Uiso   1.00
O380   O     0.03954   0.60114   0.58976   0.00000  Uiso   1.00
C381   C     0.10366   0.68799   0.50355   0.00000  Uiso   1.00
H382   H     0.06741   0.66740   0.25799   0.00000  Uiso   1.00
H383   H     0.97724   0.60816   0.45348   0.00000  Uiso   1.00
H384   H     0.92494   0.62642   0.53533   0.00000  Uiso   1.00
H385   H     0.94492   0.69901   0.59200   0.00000  Uiso   1.00
H386   H     0.01776   0.75395   0.55912   0.00000  Uiso   1.00
H387   H     0.07065   0.73739   0.48087   0.00000  Uiso   1.00
H388   H     0.09906   0.68764   0.65377   0.00000  Uiso   1.00
H389   H     0.12510   0.67647   0.47521   0.00000  Uiso   1.00
H390   H     0.11917   0.72009   0.45134   0.00000  Uiso   1.00
C391   C     0.13758   0.84649   0.77161   0.00000  Uiso   1.00
C392   C     0.17823   0.85856   0.72798   0.00000  Uiso   1.00
C393   C     0.19278   0.83084   0.73537   0.00000  Uiso   1.00
C394   C     0.12498   0.87810   0.76776   0.00000  Uiso   1.00
N395   N     0.08725   0.86880   0.80044   0.00000  Uiso   1.00
C396   C     0.07120   0.89655   0.80311   0.00000  Uiso   1.00
C397   C     0.09594   0.93934   0.77744   0.00000  Uiso   1.00
C398   C     0.07864   0.96476   0.78359   0.00000  Uiso   1.00
C399   C     0.03628   0.94812   0.81537   0.00000  Uiso   1.00
C400   C     0.01162   0.90544   0.84021   0.00000  Uiso   1.00
C401   C     0.02900   0.88005   0.83490   0.00000  Uiso   1.00
C402   C     0.01797   0.97510   0.82065   0.00000  Uiso   1.00
N403   N     0.04237   0.01657   0.82082   0.00000  Uiso   1.00
H404   H     0.19889   0.88976   0.68365   0.00000  Uiso   1.00
H405   H     0.14834   0.90941   0.73721   0.00000  Uiso   1.00
H406   H     0.12858   0.95383   0.75138   0.00000  Uiso   1.00
H407   H     0.09846   0.99750   0.76207   0.00000  Uiso   1.00
H408   H     0.97889   0.89161   0.86549   0.00000  Uiso   1.00
H409   H     0.00950   0.84724   0.85445   0.00000  Uiso   1.00
O410   O     0.61059   0.76774   0.66949   0.00000  Uiso   1.00
C411   C     0.61272   0.73574   0.75794   0.00000  Uiso   1.00
C412   C     0.60355   0.69801   0.65075   0.00000  Uiso   1.00
C413   C     0.62977   0.67968   0.71455   0.00000  Uiso   1.00
C414   C     0.67291   0.70500   0.71727   0.00000  Uiso   1.00
C415   C     0.69809   0.68983   0.77724   0.00000  Uiso   1.00
C416   C     0.68076   0.64890   0.83196   0.00000  Uiso   1.00
C417   C     0.63822   0.62306   0.82610   0.00000  Uiso   1.00
C418   C     0.61275   0.63825   0.76946   0.00000  Uiso   1.00
O419   O     0.62068   0.73785   0.92079   0.00000  Uiso   1.00
C420   C     0.55701   0.66822   0.65176   0.00000  Uiso   1.00
H421   H     0.61237   0.70793   0.50746   0.00000  Uiso   1.00
H422   H     0.68725   0.73658   0.67124   0.00000  Uiso   1.00
H423   H     0.73113   0.70987   0.77939   0.00000  Uiso   1.00
H424   H     0.70025   0.63715   0.87892   0.00000  Uiso   1.00
H425   H     0.62484   0.59137   0.86992   0.00000  Uiso   1.00
H426   H     0.57992   0.61734   0.77015   0.00000  Uiso   1.00
H427   H     0.54565   0.65783   0.79287   0.00000  Uiso   1.00
H428   H     0.54078   0.68379   0.59563   0.00000  Uiso   1.00
H429   H     0.54914   0.64120   0.56367   0.00000  Uiso   1.00
C430   C     0.16487   0.78773   0.79463   0.00000  Uiso   1.00
C431   C     0.12347   0.77488   0.82984   0.00000  Uiso   1.00
C432   C     0.10891   0.80277   0.82156   0.00000  Uiso   1.00
C433   C     0.18027   0.75865   0.81988   0.00000  Uiso   1.00
N434   N     0.21959   0.77208   0.81745   0.00000  Uiso   1.00
C435   C     0.24033   0.74883   0.83382   0.00000  Uiso   1.00
C436   C     0.21990   0.70556   0.82438   0.00000  Uiso   1.00
C437   C     0.24236   0.68498   0.83253   0.00000  Uiso   1.00
C438   C     0.28545   0.70724   0.84786   0.00000  Uiso   1.00
C439   C     0.30552   0.75041   0.85867   0.00000  Uiso   1.00
C440   C     0.28309   0.77081   0.85180   0.00000  Uiso   1.00
C441   C     0.30969   0.68598   0.85078   0.00000  Uiso   1.00
N442   N     0.29065   0.64439   0.85063   0.00000  Uiso   1.00
H443   H     0.10242   0.74307   0.86439   0.00000  Uiso   1.00
H444   H     0.15828   0.72636   0.84192   0.00000  Uiso   1.00
H445   H     0.18692   0.68749   0.80804   0.00000  Uiso   1.00
H446   H     0.22607   0.65173   0.82437   0.00000  Uiso   1.00
H447   H     0.33861   0.76872   0.87166   0.00000  Uiso   1.00
H448   H     0.29915   0.80409   0.86044   0.00000  Uiso   1.00
O449   O     0.72230   0.93319   0.83817   0.00000  Uiso   1.00
C450   C     0.72036   0.95346   0.99528   0.00000  Uiso   1.00
C451   C     0.74468   0.99987   0.99868   0.00000  Uiso   1.00
C452   C     0.71728   0.01894   1.02858   0.00000  Uiso   1.00
C453   C     0.67674   0.99949   0.95748   0.00000  Uiso   1.00
C454   C     0.65268   0.01829   0.96861   0.00000  Uiso   1.00
C455   C     0.66877   0.05699   1.05023   0.00000  Uiso   1.00
C456   C     0.70882   0.07695   1.12005   0.00000  Uiso   1.00
C457   C     0.73298   0.05825   1.10926   0.00000  Uiso   1.00
O458   O     0.70018   0.93431   1.12847   0.00000  Uiso   1.00
C459   C     0.78035   0.01403   1.13472   0.00000  Uiso   1.00
H460   H     0.75923   0.01036   0.86250   0.00000  Uiso   1.00
H461   H     0.66395   0.97001   0.88933   0.00000  Uiso   1.00
H462   H     0.62180   0.00333   0.91096   0.00000  Uiso   1.00
H463   H     0.65031   0.07164   1.05849   0.00000  Uiso   1.00
H464   H     0.72106   0.10697   1.18313   0.00000  Uiso   1.00
H465   H     0.76388   0.07481   1.16391   0.00000  Uiso   1.00
H466   H     0.76917   0.01037   1.27636   0.00000  Uiso   1.00
H467   H     0.79580   0.99554   1.11664   0.00000  Uiso   1.00
H468   H     0.80396   0.04670   1.10955   0.00000  Uiso   1.00
loop_
_geom_bond_atom_site_label_1
_geom_bond_atom_site_label_2
_geom_bond_distance
_geom_bond_site_symmetry_2
_ccdc_geom_bond_type
C1     C2      1.395   .     S
C1     C4      1.481   .     S
C1     C42     1.483   .     D
C2     C3      1.404   1_565 D
C2     H14     1.075   .     S
C3     C2      1.404   1_545 D
C3     C40     1.485   .     S
C3     O176    1.411   .     S
C4     N5      1.303   .     D
C4     H15     1.084   .     S
N5     C6      1.440   .     S
C6     C7      1.412   .     S
C6     C11     1.401   .     D
C7     C8      1.396   .     D
C7     H16     1.080   .     S
C8     C9      1.405   .     S
C8     H17     1.083   .     S
C9     C10     1.405   .     D
C9     C12     1.476   .     S
C10    C11     1.396   .     S
C10    H18     1.083   .     S
C11    H19     1.082   .     S
C12    N13     1.353   .     D
C12    N325    1.431   .     S
N13    C168    1.431   .     S
O20    C21     1.404   .     S
O20    C315    1.411   .     S
C21    C22     1.510   .     S
C21    O29     1.221   .     D
C22    C23     1.533   .     S
C22    C30     1.536   .     S
C22    H31     1.113   .     S
C23    C24     1.409   .     S
C23    C28     1.416   .     D
C24    C25     1.392   .     D
C24    H32     1.078   .     S
C25    C26     1.395   .     S
C25    H33     1.081   .     S
C26    C27     1.394   .     D
C26    H34     1.081   .     S
C27    C28     1.398   .     S
C27    H35     1.084   .     S
C28    H36     1.081   .     S
C30    H37     1.110   .     S
C30    H38     1.113   .     S
C30    H39     1.110   .     S
C40    C41     1.398   .     D
C40    C43     1.478   .     S
C41    C42     1.399   1_545 S
C41    H53     1.079   .     S
C42    C41     1.399   1_565 S
C42    O215    1.400   .     S
C43    N44     1.300   .     D
C43    H54     1.082   .     S
N44    C45     1.437   .     S
C45    C46     1.409   .     S
C45    C50     1.399   .     D
C46    C47     1.398   .     D
C46    H55     1.080   .     S
C47    C48     1.409   .     S
C47    H56     1.083   .     S
C48    C49     1.405   .     D
C48    C51     1.479   .     S
C49    C50     1.397   .     S
C49    H57     1.085   .     S
C50    H58     1.083   .     S
C51    N52     1.354   .     S
C51    N364    1.432   .     D
N52    C207    1.432   .     D
O59    C60     1.408   .     S
O59    C354    1.400   .     S
C60    C61     1.513   .     S
C60    O68     1.223   .     D
C61    C62     1.532   .     S
C61    C69     1.538   .     S
C61    H70     1.119   .     S
C62    C63     1.420   .     D
C62    C67     1.412   .     S
C63    C64     1.399   .     S
C63    H71     1.082   .     S
C64    C65     1.397   .     D
C64    H72     1.088   .     S
C65    C66     1.395   .     S
C65    H73     1.084   .     S
C66    C67     1.394   .     D
C66    H74     1.081   .     S
C67    H75     1.081   .     S
C69    H76     1.114   .     S
C69    H77     1.107   .     S
C69    H78     1.112   .     S
C79    C80     1.395   .     S
C79    C82     1.481   .     S
C79    C120    1.490   .     D
C80    C81     1.398   .     D
C80    H92     1.082   .     S
C81    C118    1.487   .     S
C81    O254    1.402   .     S
C82    N83     1.301   .     D
C82    H93     1.082   .     S
N83    C84     1.441   .     S
C84    C85     1.410   .     D
C84    C89     1.403   .     S
C85    C86     1.398   .     S
C85    H94     1.081   .     S
C86    C87     1.407   .     D
C86    H95     1.084   .     S
C87    C88     1.405   .     S
C87    C90     1.482   .     S
C88    C89     1.399   .     D
C88    H96     1.084   .     S
C89    H97     1.083   .     S
C90    N91     1.355   1_455 S
C90    N403    1.433   .     D
N91    C90     1.355   1_655 S
N91    C246    1.433   1_545 D
O98    C99     1.402   .     S
O98    C393    1.402   .     S
C99    C100    1.502   .     S
C99    O107    1.224   .     D
C100   C101    1.529   .     S
C100   C108    1.533   .     S
C100   H109    1.108   .     S
C101   C102    1.410   .     D
C101   C106    1.413   .     S
C102   C103    1.396   1_565 S
C102   H110    1.082   .     S
C103   C102    1.396   1_545 S
C103   C104    1.395   .     D
C103   H111    1.083   .     S
C104   C105    1.395   .     S
C104   H112    1.082   .     S
C105   C106    1.399   1_545 D
C105   H113    1.083   .     S
C106   C105    1.399   1_565 D
C106   H114    1.081   .     S
C108   H115    1.113   .     S
C108   H116    1.113   .     S
C108   H117    1.111   .     S
C118   C119    1.402   .     D
C118   C121    1.481   .     S
C119   C120    1.404   .     S
C119   H131    1.082   .     S
C120   O293    1.402   .     S
C121   N122    1.300   .     D
C121   H132    1.085   .     S
N122   C123    1.436   .     S
C123   C124    1.409   .     D
C123   C128    1.397   .     S
C124   C125    1.401   .     S
C124   H133    1.081   .     S
C125   C126    1.406   .     D
C125   H134    1.083   .     S
C126   C127    1.407   .     S
C126   C129    1.481   .     S
C127   C128    1.394   .     D
C127   H135    1.082   .     S
C128   H136    1.084   .     S
C129   N130    1.354   .     D
C129   N442    1.433   .     S
N130   C285    1.433   .     S
O137   C138    1.402   .     S
O137   C432    1.402   .     S
C138   C139    1.510   .     S
C138   O146    1.225   .     D
C139   C140    1.535   1_455 S
C139   C147    1.536   1_455 S
C139   H148    1.111   1_455 S
C140   C139    1.535   1_655 S
C140   C141    1.418   1_655 S
C140   C145    1.416   .     D
C141   C140    1.418   1_455 S
C141   C142    1.400   1_455 D
C141   H149    1.083   .     S
C142   C141    1.400   1_655 D
C142   C143    1.399   .     S
C142   H150    1.090   .     S
C143   C144    1.399   .     D
C143   H151    1.081   .     S
C144   C145    1.400   .     S
C144   H152    1.085   .     S
C145   H153    1.082   .     S
C147   C139    1.536   1_655 S
C147   H154    1.103   .     S
C147   H155    1.113   1_655 S
C147   H156    1.112   .     S
H148   C139    1.111   1_655 S
H155   C147    1.113   1_455 S
C157   C158    1.395   .     D
C157   C160    1.481   .     S
C157   C198    1.483   .     S
C158   C159    1.404   1_455 S
C158   H170    1.075   .     S
C159   C158    1.404   1_655 S
C159   C196    1.485   .     D
C159   O332    1.411   .     S
C160   N161    1.303   .     D
C160   H171    1.084   .     S
N161   C162    1.440   .     S
C162   C163    1.412   .     D
C162   C167    1.401   .     S
C163   C164    1.396   .     S
C163   H172    1.080   .     S
C164   C165    1.405   .     D
C164   H173    1.083   .     S
C165   C166    1.405   .     S
C165   C168    1.476   .     S
C166   C167    1.396   .     D
C166   H174    1.083   .     S
C167   H175    1.082   .     S
C168   N169    1.353   .     D
N169   C324    1.431   .     S
O176   C177    1.404   .     S
C177   C178    1.510   .     S
C177   O185    1.221   .     D
C178   C179    1.533   .     S
C178   C186    1.536   .     S
C178   H187    1.113   .     S
C179   C180    1.409   1_545 S
C179   C184    1.416   .     D
C180   C179    1.409   1_565 S
C180   C181    1.392   .     D
C180   H188    1.078   .     S
C181   C182    1.395   .     S
C181   H189    1.081   .     S
C182   C183    1.394   .     D
C182   H190    1.081   .     S
C183   C184    1.398   1_565 S
C183   H191    1.084   1_565 S
C184   C183    1.398   1_545 S
C184   H192    1.081   .     S
C186   H193    1.110   .     S
C186   H194    1.113   .     S
C186   H195    1.110   .     S
H191   C183    1.084   1_545 S
C196   C197    1.398   .     S
C196   C199    1.478   .     S
C197   C198    1.399   1_655 D
C197   H209    1.079   .     S
C198   C197    1.399   1_455 D
C198   O371    1.400   .     S
C199   N200    1.300   .     D
C199   H210    1.082   .     S
N200   C201    1.437   .     S
C201   C202    1.409   .     D
C201   C206    1.399   .     S
C202   C203    1.398   .     S
C202   H211    1.080   .     S
C203   C204    1.409   .     D
C203   H212    1.083   .     S
C204   C205    1.405   .     S
C204   C207    1.479   .     S
C205   C206    1.397   .     D
C205   H213    1.085   .     S
C206   H214    1.083   .     S
C207   N208    1.354   .     S
N208   C363    1.432   .     D
O215   C216    1.408   .     S
C216   C217    1.513   .     S
C216   O224    1.223   .     D
C217   C218    1.532   .     S
C217   C225    1.538   .     S
C217   H226    1.119   .     S
C218   C219    1.420   1_565 D
C218   C223    1.412   .     S
C219   C218    1.420   1_545 D
C219   C220    1.399   .     S
C219   H227    1.082   .     S
C220   C221    1.397   .     D
C220   H228    1.088   .     S
C221   C222    1.395   1_545 S
C221   H229    1.084   .     S
C222   C221    1.395   1_565 S
C222   C223    1.394   .     D
C222   H230    1.081   .     S
C223   H231    1.081   .     S
C225   H232    1.114   .     S
C225   H233    1.107   .     S
C225   H234    1.112   .     S
C235   C236    1.395   .     S
C235   C238    1.481   .     S
C235   C276    1.490   .     D
C236   C237    1.398   .     D
C236   H248    1.082   .     S
C237   C274    1.487   .     S
C237   O410    1.402   .     S
C238   N239    1.301   .     D
C238   H249    1.082   .     S
N239   C240    1.441   .     S
C240   C241    1.410   .     S
C240   C245    1.403   .     D
C241   C242    1.398   .     D
C241   H250    1.081   .     S
C242   C243    1.407   .     S
C242   H251    1.084   .     S
C243   C244    1.405   .     D
C243   C246    1.482   .     S
C244   C245    1.399   .     S
C244   H252    1.084   1_565 S
C245   H253    1.083   .     S
C246   N91     1.433   1_565 D
C246   N247    1.355   .     S
N247   C402    1.433   1_655 D
H252   C244    1.084   1_545 S
O254   C255    1.402   .     S
C255   C256    1.502   .     S
C255   O263    1.224   .     D
C256   C257    1.529   .     S
C256   C264    1.533   .     S
C256   H265    1.108   .     S
C257   C258    1.410   .     D
C257   C262    1.413   .     S
C258   C259    1.396   1_455 S
C258   H266    1.082   .     S
C259   C258    1.396   1_655 S
C259   C260    1.395   .     D
C259   H267    1.083   .     S
C260   C261    1.395   .     S
C260   H268    1.082   .     S
C261   C262    1.399   1_655 D
C261   H269    1.083   .     S
C262   C261    1.399   1_455 D
C262   H270    1.081   .     S
C264   H271    1.113   .     S
C264   H272    1.113   .     S
C264   H273    1.111   .     S
C274   C275    1.402   .     D
C274   C277    1.481   .     S
C275   C276    1.404   .     S
C275   H287    1.082   .     S
C276   O449    1.402   .     S
C277   N278    1.300   .     D
C277   H288    1.085   .     S
N278   C279    1.436   .     S
C279   C280    1.409   .     S
C279   C284    1.397   .     D
C280   C281    1.401   .     D
C280   H289    1.081   .     S
C281   C282    1.406   .     S
C281   H290    1.083   .     S
C282   C283    1.407   .     D
C282   C285    1.481   .     S
C283   C284    1.394   .     S
C283   H291    1.082   .     S
C284   H292    1.084   .     S
C285   N286    1.354   .     D
N286   C441    1.433   .     S
O293   C294    1.402   .     S
C294   C295    1.510   .     S
C294   O302    1.225   .     D
C295   C296    1.535   .     S
C295   C303    1.536   .     S
C295   H304    1.111   .     S
C296   C297    1.418   .     S
C296   C301    1.416   .     D
C297   C298    1.400   .     D
C297   H305    1.083   .     S
C298   C299    1.399   .     S
C298   H306    1.090   .     S
C299   C300    1.399   .     D
C299   H307    1.081   .     S
C300   C301    1.400   .     S
C300   H308    1.085   .     S
C301   H309    1.082   .     S
C303   H310    1.103   .     S
C303   H311    1.113   .     S
C303   H312    1.112   .     S
C313   C314    1.395   .     D
C313   C316    1.481   .     S
C313   C354    1.483   .     S
C314   C315    1.404   .     S
C314   H326    1.075   .     S
C315   C352    1.485   .     D
C316   N317    1.303   .     D
C316   H327    1.084   .     S
N317   C318    1.440   .     S
C318   C319    1.412   .     D
C318   C323    1.401   .     S
C319   C320    1.396   .     S
C319   H328    1.080   .     S
C320   C321    1.405   .     D
C320   H329    1.083   .     S
C321   C322    1.405   .     S
C321   C324    1.476   .     S
C322   C323    1.396   .     D
C322   H330    1.083   .     S
C323   H331    1.082   .     S
C324   N325    1.353   .     D
O332   C333    1.404   .     S
C333   C334    1.510   .     S
C333   O341    1.221   .     D
C334   C335    1.533   .     S
C334   C342    1.536   .     S
C334   H343    1.113   .     S
C335   C336    1.409   1_655 S
C335   C340    1.416   .     D
C336   C335    1.409   1_455 S
C336   C337    1.392   .     D
C336   H344    1.078   .     S
C337   C338    1.395   .     S
C337   H345    1.081   .     S
C338   C339    1.394   .     D
C338   H346    1.081   .     S
C339   C340    1.398   1_455 S
C339   H347    1.084   1_455 S
C340   C339    1.398   1_655 S
C340   H348    1.081   .     S
C342   H349    1.110   .     S
C342   H350    1.113   .     S
C342   H351    1.110   .     S
H347   C339    1.084   1_655 S
C352   C353    1.398   .     S
C352   C355    1.478   .     S
C353   C354    1.399   .     D
C353   H365    1.079   .     S
C355   N356    1.300   .     D
C355   H366    1.082   .     S
N356   C357    1.437   .     S
C357   C358    1.409   .     D
C357   C362    1.399   .     S
C358   C359    1.398   .     S
C358   H367    1.080   .     S
C359   C360    1.409   .     D
C359   H368    1.083   .     S
C360   C361    1.405   .     S
C360   C363    1.479   .     S
C361   C362    1.397   .     D
C361   H369    1.085   .     S
C362   H370    1.083   .     S
C363   N364    1.354   .     S
O371   C372    1.408   .     S
C372   C373    1.513   .     S
C372   O380    1.223   .     D
C373   C374    1.532   .     S
C373   C381    1.538   .     S
C373   H382    1.119   .     S
C374   C375    1.420   1_455 D
C374   C379    1.412   .     S
C375   C374    1.420   1_655 D
C375   C376    1.399   .     S
C375   H383    1.082   .     S
C376   C377    1.397   .     D
C376   H384    1.088   .     S
C377   C378    1.395   1_655 S
C377   H385    1.084   .     S
C378   C377    1.395   1_455 S
C378   C379    1.394   .     D
C378   H386    1.081   .     S
C379   H387    1.081   .     S
C381   H388    1.114   .     S
C381   H389    1.107   .     S
C381   H390    1.112   .     S
C391   C392    1.395   .     D
C391   C394    1.481   .     S
C391   C432    1.490   .     S
C392   C393    1.398   .     S
C392   H404    1.082   .     S
C393   C430    1.487   .     D
C394   N395    1.301   .     D
C394   H405    1.082   .     S
N395   C396    1.441   .     S
C396   C397    1.410   .     D
C396   C401    1.403   .     S
C397   C398    1.398   .     S
C397   H406    1.081   .     S
C398   C399    1.407   .     D
C398   H407    1.084   .     S
C399   C400    1.405   .     S
C399   C402    1.482   .     S
C400   C401    1.399   .     D
C400   H408    1.084   1_455 S
C401   H409    1.083   .     S
C402   N247    1.433   1_455 D
C402   N403    1.355   1_565 S
N403   C402    1.355   1_545 S
H408   C400    1.084   1_655 S
O410   C411    1.402   .     S
C411   C412    1.502   .     S
C411   O419    1.224   .     D
C412   C413    1.529   .     S
C412   C420    1.533   .     S
C412   H421    1.108   .     S
C413   C414    1.410   .     D
C413   C418    1.413   .     S
C414   C415    1.396   .     S
C414   H422    1.082   .     S
C415   C416    1.395   .     D
C415   H423    1.083   .     S
C416   C417    1.395   .     S
C416   H424    1.082   .     S
C417   C418    1.399   .     D
C417   H425    1.083   .     S
C418   H426    1.081   .     S
C420   H427    1.113   .     S
C420   H428    1.113   .     S
C420   H429    1.111   .     S
C430   C431    1.402   .     S
C430   C433    1.481   .     S
C431   C432    1.404   .     D
C431   H443    1.082   .     S
C433   N434    1.300   .     D
C433   H444    1.085   .     S
N434   C435    1.436   .     S
C435   C436    1.409   .     D
C435   C440    1.397   .     S
C436   C437    1.401   .     S
C436   H445    1.081   .     S
C437   C438    1.406   .     D
C437   H446    1.083   .     S
C438   C439    1.407   .     S
C438   C441    1.481   .     S
C439   C440    1.394   .     D
C439   H447    1.082   .     S
C440   H448    1.084   .     S
C441   N442    1.354   .     D
O449   C450    1.402   .     S
C450   C451    1.510   .     S
C450   O458    1.225   .     D
C451   C452    1.535   1_565 S
C451   C459    1.536   1_565 S
C451   H460    1.111   1_565 S
C452   C451    1.535   1_545 S
C452   C453    1.418   1_545 D
C452   C457    1.416   .     S
C453   C452    1.418   1_565 D
C453   C454    1.400   1_565 S
C453   H461    1.083   .     S
C454   C453    1.400   1_545 S
C454   C455    1.399   .     D
C454   H462    1.090   .     S
C455   C456    1.399   .     S
C455   H463    1.081   .     S
C456   C457    1.400   .     D
C456   H464    1.085   .     S
C457   H465    1.082   .     S
C459   C451    1.536   1_545 S
C459   H466    1.103   .     S
C459   H467    1.113   1_545 S
C459   H468    1.112   .     S
H460   C451    1.111   1_545 S
H467   C459    1.113   1_565 S
