data_381
_audit_creation_date              2023-09-08
_audit_creation_method            'Materials Studio'
_symmetry_space_group_name_H-M    'P1'
_symmetry_Int_Tables_number       1
_symmetry_cell_setting            triclinic
loop_
_symmetry_equiv_pos_as_xyz
  x,y,z
_cell_length_a                    33.8000
_cell_length_b                    34.0000
_cell_length_c                    7.7200
_cell_angle_alpha                 90.0000
_cell_angle_beta                  75.0000
_cell_angle_gamma                 90.0000
loop_
_atom_site_label
_atom_site_type_symbol
_atom_site_fract_x
_atom_site_fract_y
_atom_site_fract_z
_atom_site_U_iso_or_equiv
_atom_site_adp_type
_atom_site_occupancy
C1     C     0.46107   0.46371   0.87209   0.00000  Uiso   1.00
C2     C     0.52017   0.42853   0.68643   0.00000  Uiso   1.00
C3     C     0.58095   0.46377   0.50382   0.00000  Uiso   1.00
C4     C     0.60772   0.43091   0.46725   0.00000  Uiso   1.00
C5     C     0.64620   0.43410   0.50786   0.00000  Uiso   1.00
C6     C     0.67301   0.40204   0.48862   0.00000  Uiso   1.00
C7     C     0.66161   0.36533   0.43198   0.00000  Uiso   1.00
C8     C     0.62454   0.36212   0.38238   0.00000  Uiso   1.00
C9     C     0.59825   0.39473   0.39701   0.00000  Uiso   1.00
H10    H     0.53261   0.40171   0.64807   0.00000  Uiso   1.00
H11    H     0.65494   0.45977   0.55636   0.00000  Uiso   1.00
H12    H     0.70006   0.40561   0.52210   0.00000  Uiso   1.00
H13    H     0.61651   0.33582   0.33654   0.00000  Uiso   1.00
H14    H     0.57185   0.39155   0.35832   0.00000  Uiso   1.00
C15    C     0.76522   0.21171   0.51939   0.00000  Uiso   1.00
C16    C     0.79064   0.24516   0.50910   0.00000  Uiso   1.00
C17    C     0.77558   0.28297   0.49049   0.00000  Uiso   1.00
H18    H     0.82061   0.24229   0.51231   0.00000  Uiso   1.00
H19    H     0.79496   0.30652   0.48157   0.00000  Uiso   1.00
C20    C     0.77972   0.17366   0.53731   0.00000  Uiso   1.00
N21    N     0.81691   0.16804   0.56787   0.00000  Uiso   1.00
H22    H     0.23148   0.84985   0.02009   0.00000  Uiso   1.00
C23    C     0.95915   0.96371   0.37787   0.00000  Uiso   1.00
C24    C     0.01851   0.92852   0.19383   0.00000  Uiso   1.00
C25    C     0.07874   0.96379   0.00723   0.00000  Uiso   1.00
C26    C     0.10574   0.93113   0.96915   0.00000  Uiso   1.00
C27    C     0.14464   0.93493   0.00544   0.00000  Uiso   1.00
C28    C     0.17203   0.90333   0.98342   0.00000  Uiso   1.00
C29    C     0.16076   0.86638   0.92872   0.00000  Uiso   1.00
C30    C     0.12323   0.86252   0.88347   0.00000  Uiso   1.00
C31    C     0.09630   0.89470   0.90100   0.00000  Uiso   1.00
H32    H     0.03109   0.90172   0.15626   0.00000  Uiso   1.00
H33    H     0.15335   0.96079   0.05241   0.00000  Uiso   1.00
H34    H     0.19952   0.90749   0.01227   0.00000  Uiso   1.00
H35    H     0.11538   0.83593   0.83948   0.00000  Uiso   1.00
H36    H     0.06951   0.89101   0.86608   0.00000  Uiso   1.00
C37    C     0.26701   0.71168   0.01386   0.00000  Uiso   1.00
C38    C     0.28755   0.74616   0.04657   0.00000  Uiso   1.00
C39    C     0.27056   0.78392   0.03306   0.00000  Uiso   1.00
F40    F     0.32257   0.74353   0.09086   0.00000  Uiso   1.00
F41    F     0.28914   0.81608   0.06744   0.00000  Uiso   1.00
C42    C     0.28288   0.67349   0.02130   0.00000  Uiso   1.00
N43    N     0.31723   0.66671   0.07427   0.00000  Uiso   1.00
H44    H     0.73820   0.34986   0.47510   0.00000  Uiso   1.00
C45    C     0.96107   0.96371   0.87209   0.00000  Uiso   1.00
C46    C     0.02017   0.92853   0.68643   0.00000  Uiso   1.00
C47    C     0.08095   0.96377   0.50382   0.00000  Uiso   1.00
C48    C     0.10772   0.93090   0.46725   0.00000  Uiso   1.00
C49    C     0.14620   0.93409   0.50786   0.00000  Uiso   1.00
C50    C     0.17301   0.90204   0.48862   0.00000  Uiso   1.00
C51    C     0.16161   0.86533   0.43198   0.00000  Uiso   1.00
C52    C     0.12454   0.86212   0.38238   0.00000  Uiso   1.00
C53    C     0.09825   0.89473   0.39701   0.00000  Uiso   1.00
H54    H     0.03261   0.90171   0.64807   0.00000  Uiso   1.00
H55    H     0.15494   0.95977   0.55636   0.00000  Uiso   1.00
H56    H     0.20006   0.90561   0.52210   0.00000  Uiso   1.00
H57    H     0.11651   0.83582   0.33654   0.00000  Uiso   1.00
H58    H     0.07186   0.89155   0.35832   0.00000  Uiso   1.00
C59    C     0.26522   0.71171   0.51940   0.00000  Uiso   1.00
C60    C     0.29064   0.74516   0.50910   0.00000  Uiso   1.00
C61    C     0.27558   0.78297   0.49049   0.00000  Uiso   1.00
H62    H     0.32061   0.74229   0.51231   0.00000  Uiso   1.00
H63    H     0.29496   0.80651   0.48157   0.00000  Uiso   1.00
C64    C     0.27972   0.67366   0.53731   0.00000  Uiso   1.00
N65    N     0.31691   0.66804   0.56787   0.00000  Uiso   1.00
H66    H     0.73148   0.34985   0.02009   0.00000  Uiso   1.00
C67    C     0.45915   0.46371   0.37787   0.00000  Uiso   1.00
C68    C     0.51851   0.42852   0.19383   0.00000  Uiso   1.00
C69    C     0.57874   0.46379   0.00723   0.00000  Uiso   1.00
C70    C     0.60574   0.43113   0.96915   0.00000  Uiso   1.00
C71    C     0.64464   0.43493   0.00544   0.00000  Uiso   1.00
C72    C     0.67203   0.40333   0.98342   0.00000  Uiso   1.00
C73    C     0.66076   0.36639   0.92873   0.00000  Uiso   1.00
C74    C     0.62323   0.36252   0.88347   0.00000  Uiso   1.00
C75    C     0.59630   0.39470   0.90100   0.00000  Uiso   1.00
H76    H     0.53109   0.40172   0.15626   0.00000  Uiso   1.00
H77    H     0.65335   0.46079   0.05241   0.00000  Uiso   1.00
H78    H     0.69952   0.40749   0.01227   0.00000  Uiso   1.00
H79    H     0.61538   0.33593   0.83948   0.00000  Uiso   1.00
H80    H     0.56951   0.39101   0.86608   0.00000  Uiso   1.00
C81    C     0.76701   0.21168   0.01386   0.00000  Uiso   1.00
C82    C     0.78755   0.24616   0.04657   0.00000  Uiso   1.00
C83    C     0.77056   0.28392   0.03306   0.00000  Uiso   1.00
F84    F     0.82257   0.24353   0.09086   0.00000  Uiso   1.00
F85    F     0.78914   0.31608   0.06744   0.00000  Uiso   1.00
C86    C     0.78288   0.17349   0.02130   0.00000  Uiso   1.00
N87    N     0.81723   0.16671   0.07427   0.00000  Uiso   1.00
H88    H     0.23820   0.84986   0.47510   0.00000  Uiso   1.00
C89    C     0.53893   0.46371   0.12791   0.00000  Uiso   1.00
C90    C     0.47983   0.42853   0.31357   0.00000  Uiso   1.00
C91    C     0.41905   0.46377   0.49618   0.00000  Uiso   1.00
C92    C     0.39228   0.43091   0.53275   0.00000  Uiso   1.00
C93    C     0.35380   0.43410   0.49214   0.00000  Uiso   1.00
C94    C     0.32699   0.40204   0.51138   0.00000  Uiso   1.00
C95    C     0.33839   0.36533   0.56802   0.00000  Uiso   1.00
C96    C     0.37546   0.36212   0.61762   0.00000  Uiso   1.00
C97    C     0.40175   0.39473   0.60299   0.00000  Uiso   1.00
H98    H     0.46739   0.40171   0.35193   0.00000  Uiso   1.00
H99    H     0.34506   0.45977   0.44364   0.00000  Uiso   1.00
H100   H     0.29994   0.40561   0.47790   0.00000  Uiso   1.00
H101   H     0.38349   0.33582   0.66346   0.00000  Uiso   1.00
H102   H     0.42814   0.39155   0.64168   0.00000  Uiso   1.00
C103   C     0.23478   0.21171   0.48061   0.00000  Uiso   1.00
C104   C     0.20936   0.24516   0.49090   0.00000  Uiso   1.00
C105   C     0.22442   0.28297   0.50951   0.00000  Uiso   1.00
H106   H     0.17939   0.24229   0.48769   0.00000  Uiso   1.00
H107   H     0.20504   0.30652   0.51843   0.00000  Uiso   1.00
C108   C     0.22028   0.17366   0.46269   0.00000  Uiso   1.00
N109   N     0.18309   0.16804   0.43213   0.00000  Uiso   1.00
H110   H     0.76852   0.84985   0.97991   0.00000  Uiso   1.00
C111   C     0.04085   0.96371   0.62213   0.00000  Uiso   1.00
C112   C     0.98149   0.92852   0.80617   0.00000  Uiso   1.00
C113   C     0.92126   0.96379   0.99277   0.00000  Uiso   1.00
C114   C     0.89426   0.93113   0.03085   0.00000  Uiso   1.00
C115   C     0.85536   0.93493   0.99456   0.00000  Uiso   1.00
C116   C     0.82797   0.90333   0.01658   0.00000  Uiso   1.00
C117   C     0.83924   0.86638   0.07128   0.00000  Uiso   1.00
C118   C     0.87677   0.86252   0.11653   0.00000  Uiso   1.00
C119   C     0.90370   0.89470   0.09900   0.00000  Uiso   1.00
H120   H     0.96891   0.90172   0.84374   0.00000  Uiso   1.00
H121   H     0.84665   0.96079   0.94759   0.00000  Uiso   1.00
H122   H     0.80049   0.90749   0.98773   0.00000  Uiso   1.00
H123   H     0.88462   0.83593   0.16052   0.00000  Uiso   1.00
H124   H     0.93049   0.89101   0.13392   0.00000  Uiso   1.00
C125   C     0.73299   0.71168   0.98614   0.00000  Uiso   1.00
C126   C     0.71245   0.74616   0.95343   0.00000  Uiso   1.00
C127   C     0.72944   0.78392   0.96694   0.00000  Uiso   1.00
F128   F     0.67743   0.74353   0.90914   0.00000  Uiso   1.00
F129   F     0.71086   0.81608   0.93256   0.00000  Uiso   1.00
C130   C     0.71712   0.67349   0.97870   0.00000  Uiso   1.00
N131   N     0.68277   0.66671   0.92573   0.00000  Uiso   1.00
H132   H     0.26180   0.34986   0.52490   0.00000  Uiso   1.00
C133   C     0.03893   0.96371   0.12791   0.00000  Uiso   1.00
C134   C     0.97983   0.92853   0.31357   0.00000  Uiso   1.00
C135   C     0.91905   0.96377   0.49618   0.00000  Uiso   1.00
C136   C     0.89228   0.93090   0.53275   0.00000  Uiso   1.00
C137   C     0.85380   0.93409   0.49214   0.00000  Uiso   1.00
C138   C     0.82699   0.90204   0.51138   0.00000  Uiso   1.00
C139   C     0.83839   0.86533   0.56802   0.00000  Uiso   1.00
C140   C     0.87546   0.86212   0.61762   0.00000  Uiso   1.00
C141   C     0.90175   0.89473   0.60299   0.00000  Uiso   1.00
H142   H     0.96739   0.90171   0.35193   0.00000  Uiso   1.00
H143   H     0.84506   0.95977   0.44364   0.00000  Uiso   1.00
H144   H     0.79994   0.90561   0.47790   0.00000  Uiso   1.00
H145   H     0.88349   0.83582   0.66346   0.00000  Uiso   1.00
H146   H     0.92815   0.89155   0.64168   0.00000  Uiso   1.00
C147   C     0.73478   0.71171   0.48061   0.00000  Uiso   1.00
C148   C     0.70936   0.74516   0.49090   0.00000  Uiso   1.00
C149   C     0.72442   0.78297   0.50951   0.00000  Uiso   1.00
H150   H     0.67939   0.74229   0.48769   0.00000  Uiso   1.00
H151   H     0.70504   0.80651   0.51843   0.00000  Uiso   1.00
C152   C     0.72028   0.67366   0.46269   0.00000  Uiso   1.00
N153   N     0.68309   0.66804   0.43213   0.00000  Uiso   1.00
H154   H     0.26852   0.34985   0.97991   0.00000  Uiso   1.00
C155   C     0.54085   0.46371   0.62213   0.00000  Uiso   1.00
C156   C     0.48149   0.42852   0.80617   0.00000  Uiso   1.00
C157   C     0.42126   0.46379   0.99277   0.00000  Uiso   1.00
C158   C     0.39426   0.43113   0.03085   0.00000  Uiso   1.00
C159   C     0.35536   0.43493   0.99456   0.00000  Uiso   1.00
C160   C     0.32797   0.40333   0.01658   0.00000  Uiso   1.00
C161   C     0.33924   0.36639   0.07128   0.00000  Uiso   1.00
C162   C     0.37677   0.36252   0.11653   0.00000  Uiso   1.00
C163   C     0.40370   0.39470   0.09900   0.00000  Uiso   1.00
H164   H     0.46891   0.40172   0.84374   0.00000  Uiso   1.00
H165   H     0.34665   0.46079   0.94759   0.00000  Uiso   1.00
H166   H     0.30049   0.40749   0.98773   0.00000  Uiso   1.00
H167   H     0.38462   0.33593   0.16052   0.00000  Uiso   1.00
H168   H     0.43049   0.39101   0.13392   0.00000  Uiso   1.00
C169   C     0.23299   0.21168   0.98614   0.00000  Uiso   1.00
C170   C     0.21245   0.24616   0.95343   0.00000  Uiso   1.00
C171   C     0.22944   0.28392   0.96694   0.00000  Uiso   1.00
F172   F     0.17743   0.24353   0.90914   0.00000  Uiso   1.00
F173   F     0.21086   0.31608   0.93256   0.00000  Uiso   1.00
C174   C     0.21712   0.17349   0.97870   0.00000  Uiso   1.00
N175   N     0.18277   0.16671   0.92573   0.00000  Uiso   1.00
H176   H     0.76180   0.84986   0.52490   0.00000  Uiso   1.00
C177   C     0.53893   0.53629   0.12791   0.00000  Uiso   1.00
C178   C     0.47983   0.57148   0.31357   0.00000  Uiso   1.00
C179   C     0.41905   0.53623   0.49618   0.00000  Uiso   1.00
C180   C     0.39228   0.56910   0.53275   0.00000  Uiso   1.00
C181   C     0.35380   0.56591   0.49214   0.00000  Uiso   1.00
C182   C     0.32699   0.59796   0.51138   0.00000  Uiso   1.00
C183   C     0.33839   0.63467   0.56802   0.00000  Uiso   1.00
C184   C     0.37546   0.63788   0.61762   0.00000  Uiso   1.00
C185   C     0.40175   0.60527   0.60299   0.00000  Uiso   1.00
H186   H     0.46739   0.59829   0.35193   0.00000  Uiso   1.00
H187   H     0.34506   0.54023   0.44364   0.00000  Uiso   1.00
H188   H     0.29994   0.59439   0.47790   0.00000  Uiso   1.00
H189   H     0.38349   0.66418   0.66346   0.00000  Uiso   1.00
H190   H     0.42814   0.60845   0.64168   0.00000  Uiso   1.00
C191   C     0.23478   0.78829   0.48061   0.00000  Uiso   1.00
C192   C     0.20936   0.75484   0.49090   0.00000  Uiso   1.00
C193   C     0.22442   0.71703   0.50951   0.00000  Uiso   1.00
H194   H     0.17939   0.75771   0.48769   0.00000  Uiso   1.00
H195   H     0.20504   0.69349   0.51843   0.00000  Uiso   1.00
C196   C     0.22028   0.82634   0.46269   0.00000  Uiso   1.00
N197   N     0.18309   0.83196   0.43213   0.00000  Uiso   1.00
H198   H     0.76852   0.15015   0.97991   0.00000  Uiso   1.00
C199   C     0.04085   0.03629   0.62213   0.00000  Uiso   1.00
C200   C     0.98149   0.07148   0.80617   0.00000  Uiso   1.00
C201   C     0.92126   0.03621   0.99277   0.00000  Uiso   1.00
C202   C     0.89426   0.06887   0.03085   0.00000  Uiso   1.00
C203   C     0.85536   0.06507   0.99456   0.00000  Uiso   1.00
C204   C     0.82797   0.09668   0.01658   0.00000  Uiso   1.00
C205   C     0.83924   0.13362   0.07128   0.00000  Uiso   1.00
C206   C     0.87677   0.13748   0.11653   0.00000  Uiso   1.00
C207   C     0.90370   0.10530   0.09900   0.00000  Uiso   1.00
H208   H     0.96891   0.09828   0.84374   0.00000  Uiso   1.00
H209   H     0.84665   0.03921   0.94759   0.00000  Uiso   1.00
H210   H     0.80049   0.09251   0.98773   0.00000  Uiso   1.00
H211   H     0.88462   0.16407   0.16052   0.00000  Uiso   1.00
H212   H     0.93049   0.10899   0.13392   0.00000  Uiso   1.00
C213   C     0.73299   0.28832   0.98614   0.00000  Uiso   1.00
C214   C     0.71245   0.25384   0.95343   0.00000  Uiso   1.00
C215   C     0.72944   0.21608   0.96694   0.00000  Uiso   1.00
F216   F     0.67743   0.25647   0.90914   0.00000  Uiso   1.00
F217   F     0.71086   0.18392   0.93256   0.00000  Uiso   1.00
C218   C     0.71712   0.32651   0.97870   0.00000  Uiso   1.00
N219   N     0.68277   0.33329   0.92573   0.00000  Uiso   1.00
H220   H     0.26180   0.65015   0.52490   0.00000  Uiso   1.00
C221   C     0.03893   0.03629   0.12791   0.00000  Uiso   1.00
C222   C     0.97983   0.07148   0.31357   0.00000  Uiso   1.00
C223   C     0.91905   0.03623   0.49618   0.00000  Uiso   1.00
C224   C     0.89228   0.06910   0.53275   0.00000  Uiso   1.00
C225   C     0.85380   0.06591   0.49214   0.00000  Uiso   1.00
C226   C     0.82699   0.09796   0.51138   0.00000  Uiso   1.00
C227   C     0.83839   0.13467   0.56802   0.00000  Uiso   1.00
C228   C     0.87546   0.13788   0.61762   0.00000  Uiso   1.00
C229   C     0.90175   0.10527   0.60299   0.00000  Uiso   1.00
H230   H     0.96739   0.09829   0.35193   0.00000  Uiso   1.00
H231   H     0.84506   0.04022   0.44364   0.00000  Uiso   1.00
H232   H     0.79994   0.09439   0.47790   0.00000  Uiso   1.00
H233   H     0.88349   0.16418   0.66346   0.00000  Uiso   1.00
H234   H     0.92815   0.10845   0.64168   0.00000  Uiso   1.00
C235   C     0.73478   0.28829   0.48061   0.00000  Uiso   1.00
C236   C     0.70936   0.25484   0.49090   0.00000  Uiso   1.00
C237   C     0.72442   0.21703   0.50951   0.00000  Uiso   1.00
H238   H     0.67939   0.25771   0.48769   0.00000  Uiso   1.00
H239   H     0.70504   0.19349   0.51843   0.00000  Uiso   1.00
C240   C     0.72028   0.32634   0.46269   0.00000  Uiso   1.00
N241   N     0.68309   0.33196   0.43213   0.00000  Uiso   1.00
H242   H     0.26852   0.65015   0.97991   0.00000  Uiso   1.00
C243   C     0.54085   0.53629   0.62213   0.00000  Uiso   1.00
C244   C     0.48149   0.57148   0.80617   0.00000  Uiso   1.00
C245   C     0.42126   0.53621   0.99277   0.00000  Uiso   1.00
C246   C     0.39426   0.56887   0.03085   0.00000  Uiso   1.00
C247   C     0.35536   0.56507   0.99456   0.00000  Uiso   1.00
C248   C     0.32797   0.59668   0.01658   0.00000  Uiso   1.00
C249   C     0.33924   0.63362   0.07128   0.00000  Uiso   1.00
C250   C     0.37677   0.63748   0.11653   0.00000  Uiso   1.00
C251   C     0.40370   0.60530   0.09900   0.00000  Uiso   1.00
H252   H     0.46891   0.59828   0.84374   0.00000  Uiso   1.00
H253   H     0.34665   0.53921   0.94759   0.00000  Uiso   1.00
H254   H     0.30049   0.59251   0.98773   0.00000  Uiso   1.00
H255   H     0.38462   0.66407   0.16052   0.00000  Uiso   1.00
H256   H     0.43049   0.60899   0.13392   0.00000  Uiso   1.00
C257   C     0.23299   0.78832   0.98614   0.00000  Uiso   1.00
C258   C     0.21245   0.75384   0.95343   0.00000  Uiso   1.00
C259   C     0.22944   0.71608   0.96694   0.00000  Uiso   1.00
F260   F     0.17743   0.75647   0.90914   0.00000  Uiso   1.00
F261   F     0.21086   0.68392   0.93256   0.00000  Uiso   1.00
C262   C     0.21712   0.82651   0.97870   0.00000  Uiso   1.00
N263   N     0.18277   0.83329   0.92573   0.00000  Uiso   1.00
H264   H     0.76180   0.15015   0.52490   0.00000  Uiso   1.00
C265   C     0.46107   0.53629   0.87209   0.00000  Uiso   1.00
C266   C     0.52017   0.57148   0.68643   0.00000  Uiso   1.00
C267   C     0.58095   0.53623   0.50382   0.00000  Uiso   1.00
C268   C     0.60772   0.56910   0.46725   0.00000  Uiso   1.00
C269   C     0.64620   0.56591   0.50786   0.00000  Uiso   1.00
C270   C     0.67301   0.59796   0.48862   0.00000  Uiso   1.00
C271   C     0.66161   0.63467   0.43198   0.00000  Uiso   1.00
C272   C     0.62454   0.63788   0.38238   0.00000  Uiso   1.00
C273   C     0.59825   0.60527   0.39701   0.00000  Uiso   1.00
H274   H     0.53261   0.59829   0.64807   0.00000  Uiso   1.00
H275   H     0.65494   0.54023   0.55636   0.00000  Uiso   1.00
H276   H     0.70006   0.59439   0.52210   0.00000  Uiso   1.00
H277   H     0.61651   0.66418   0.33654   0.00000  Uiso   1.00
H278   H     0.57185   0.60845   0.35832   0.00000  Uiso   1.00
C279   C     0.76522   0.78829   0.51939   0.00000  Uiso   1.00
C280   C     0.79064   0.75484   0.50910   0.00000  Uiso   1.00
C281   C     0.77558   0.71703   0.49049   0.00000  Uiso   1.00
H282   H     0.82061   0.75771   0.51231   0.00000  Uiso   1.00
H283   H     0.79496   0.69349   0.48157   0.00000  Uiso   1.00
C284   C     0.77972   0.82634   0.53731   0.00000  Uiso   1.00
N285   N     0.81691   0.83196   0.56787   0.00000  Uiso   1.00
H286   H     0.23148   0.15015   0.02009   0.00000  Uiso   1.00
C287   C     0.95915   0.03629   0.37787   0.00000  Uiso   1.00
C288   C     0.01851   0.07148   0.19383   0.00000  Uiso   1.00
C289   C     0.07874   0.03621   0.00723   0.00000  Uiso   1.00
C290   C     0.10574   0.06887   0.96915   0.00000  Uiso   1.00
C291   C     0.14464   0.06507   0.00544   0.00000  Uiso   1.00
C292   C     0.17203   0.09668   0.98342   0.00000  Uiso   1.00
C293   C     0.16076   0.13362   0.92872   0.00000  Uiso   1.00
C294   C     0.12323   0.13748   0.88347   0.00000  Uiso   1.00
C295   C     0.09630   0.10530   0.90100   0.00000  Uiso   1.00
H296   H     0.03109   0.09828   0.15626   0.00000  Uiso   1.00
H297   H     0.15335   0.03921   0.05241   0.00000  Uiso   1.00
H298   H     0.19952   0.09251   0.01227   0.00000  Uiso   1.00
H299   H     0.11538   0.16407   0.83948   0.00000  Uiso   1.00
H300   H     0.06951   0.10899   0.86608   0.00000  Uiso   1.00
C301   C     0.26701   0.28832   0.01386   0.00000  Uiso   1.00
C302   C     0.28755   0.25384   0.04657   0.00000  Uiso   1.00
C303   C     0.27056   0.21608   0.03306   0.00000  Uiso   1.00
F304   F     0.32257   0.25647   0.09086   0.00000  Uiso   1.00
F305   F     0.28914   0.18392   0.06744   0.00000  Uiso   1.00
C306   C     0.28288   0.32651   0.02130   0.00000  Uiso   1.00
N307   N     0.31723   0.33329   0.07427   0.00000  Uiso   1.00
H308   H     0.73820   0.65015   0.47510   0.00000  Uiso   1.00
C309   C     0.96107   0.03629   0.87209   0.00000  Uiso   1.00
C310   C     0.02017   0.07148   0.68643   0.00000  Uiso   1.00
C311   C     0.08095   0.03623   0.50382   0.00000  Uiso   1.00
C312   C     0.10772   0.06910   0.46725   0.00000  Uiso   1.00
C313   C     0.14620   0.06591   0.50786   0.00000  Uiso   1.00
C314   C     0.17301   0.09796   0.48862   0.00000  Uiso   1.00
C315   C     0.16161   0.13467   0.43198   0.00000  Uiso   1.00
C316   C     0.12454   0.13788   0.38238   0.00000  Uiso   1.00
C317   C     0.09825   0.10527   0.39701   0.00000  Uiso   1.00
H318   H     0.03261   0.09829   0.64807   0.00000  Uiso   1.00
H319   H     0.15494   0.04022   0.55636   0.00000  Uiso   1.00
H320   H     0.20006   0.09439   0.52210   0.00000  Uiso   1.00
H321   H     0.11651   0.16418   0.33654   0.00000  Uiso   1.00
H322   H     0.07186   0.10845   0.35832   0.00000  Uiso   1.00
C323   C     0.26522   0.28829   0.51940   0.00000  Uiso   1.00
C324   C     0.29064   0.25484   0.50910   0.00000  Uiso   1.00
C325   C     0.27558   0.21703   0.49049   0.00000  Uiso   1.00
H326   H     0.32061   0.25771   0.51231   0.00000  Uiso   1.00
H327   H     0.29496   0.19349   0.48157   0.00000  Uiso   1.00
C328   C     0.27972   0.32634   0.53731   0.00000  Uiso   1.00
N329   N     0.31691   0.33196   0.56787   0.00000  Uiso   1.00
H330   H     0.73148   0.65015   0.02009   0.00000  Uiso   1.00
C331   C     0.45915   0.53629   0.37787   0.00000  Uiso   1.00
C332   C     0.51851   0.57148   0.19383   0.00000  Uiso   1.00
C333   C     0.57874   0.53621   0.00723   0.00000  Uiso   1.00
C334   C     0.60574   0.56887   0.96915   0.00000  Uiso   1.00
C335   C     0.64464   0.56507   0.00544   0.00000  Uiso   1.00
C336   C     0.67203   0.59668   0.98342   0.00000  Uiso   1.00
C337   C     0.66076   0.63362   0.92873   0.00000  Uiso   1.00
C338   C     0.62323   0.63748   0.88347   0.00000  Uiso   1.00
C339   C     0.59630   0.60530   0.90100   0.00000  Uiso   1.00
H340   H     0.53109   0.59828   0.15626   0.00000  Uiso   1.00
H341   H     0.65335   0.53921   0.05241   0.00000  Uiso   1.00
H342   H     0.69952   0.59251   0.01227   0.00000  Uiso   1.00
H343   H     0.61538   0.66407   0.83948   0.00000  Uiso   1.00
H344   H     0.56951   0.60899   0.86608   0.00000  Uiso   1.00
C345   C     0.76701   0.78832   0.01386   0.00000  Uiso   1.00
C346   C     0.78755   0.75384   0.04657   0.00000  Uiso   1.00
C347   C     0.77056   0.71608   0.03306   0.00000  Uiso   1.00
F348   F     0.82257   0.75647   0.09086   0.00000  Uiso   1.00
F349   F     0.78914   0.68392   0.06744   0.00000  Uiso   1.00
C350   C     0.78288   0.82651   0.02130   0.00000  Uiso   1.00
N351   N     0.81723   0.83329   0.07427   0.00000  Uiso   1.00
H352   H     0.23820   0.15015   0.47510   0.00000  Uiso   1.00
C353   C     0.59807   0.50000   0.43449   0.00000  Uiso   1.00
C354   C     0.48119   0.50000   0.81037   0.00000  Uiso   1.00
H355   H     0.62552   0.50000   0.33871   0.00000  Uiso   1.00
C356   C     0.09807   0.00000   0.43449   0.00000  Uiso   1.00
C357   C     0.98119   0.00000   0.81037   0.00000  Uiso   1.00
H358   H     0.12552   0.00000   0.33871   0.00000  Uiso   1.00
C359   C     0.40193   0.50000   0.56551   0.00000  Uiso   1.00
C360   C     0.51881   0.50000   0.18963   0.00000  Uiso   1.00
H361   H     0.37448   0.50000   0.66129   0.00000  Uiso   1.00
C362   C     0.90193   0.00000   0.56551   0.00000  Uiso   1.00
C363   C     0.01881   0.00000   0.18963   0.00000  Uiso   1.00
H364   H     0.87448   0.00000   0.66129   0.00000  Uiso   1.00
C365   C     0.09546   0.00000   0.93587   0.00000  Uiso   1.00
C366   C     0.97928   0.00000   0.31640   0.00000  Uiso   1.00
H367   H     0.12244   0.00000   0.83716   0.00000  Uiso   1.00
C368   C     0.59546   0.50000   0.93587   0.00000  Uiso   1.00
C369   C     0.47928   0.50000   0.31640   0.00000  Uiso   1.00
H370   H     0.62244   0.50000   0.83716   0.00000  Uiso   1.00
C371   C     0.90454   0.00000   0.06413   0.00000  Uiso   1.00
C372   C     0.02072   0.00000   0.68360   0.00000  Uiso   1.00
H373   H     0.87756   0.00000   0.16284   0.00000  Uiso   1.00
C374   C     0.40454   0.50000   0.06413   0.00000  Uiso   1.00
C375   C     0.52072   0.50000   0.68360   0.00000  Uiso   1.00
H376   H     0.37756   0.50000   0.16284   0.00000  Uiso   1.00
loop_
_geom_bond_atom_site_label_1
_geom_bond_atom_site_label_2
_geom_bond_distance
_geom_bond_site_symmetry_2
_ccdc_geom_bond_type
C1     C156    1.409   .     S
C1     C157    1.425   .     S
C1     C354    1.430   .     D
C2     H10     1.016   .     S
C2     C155    1.410   .     S
C2     C156    1.392   .     D
C3     C4      1.419   .     S
C3     C155    1.425   .     S
C3     C353    1.407   .     D
C4     C5      1.419   .     S
C4     C9      1.414   .     D
C5     C6      1.400   .     D
C5     H11     1.023   .     S
C6     C7      1.409   .     S
C6     H12     1.020   .     S
C7     C8      1.406   .     D
C7     N241    1.347   .     S
C8     C9      1.407   .     S
C8     H13     1.024   .     S
C9     H14     1.017   .     S
C15    C16     1.415   .     S
C15    C20     1.403   .     S
C15    C237    1.412   .     D
C16    C17     1.404   .     D
C16    H18     1.024   .     S
C17    H19     1.025   .     S
C17    C235    1.412   .     S
C20    N21     1.351   .     D
C20    H264    1.023   .     S
N21    C227    1.347   .     S
H22    C262    1.024   1_554 S
C23    C134    1.410   .     S
C23    C135    1.425   .     S
C23    C366    1.429   1_565 D
C24    H32     1.016   .     S
C24    C133    1.409   .     S
C24    C134    1.392   1_455 D
C25    C26     1.419   1_554 S
C25    C133    1.425   .     D
C25    C365    1.406   1_564 S
C26    C25     1.419   1_556 S
C26    C27     1.419   1_556 D
C26    C31     1.414   .     S
C27    C26     1.419   1_554 D
C27    C28     1.400   1_554 S
C27    H33     1.023   .     S
C28    C27     1.400   1_556 S
C28    C29     1.409   .     D
C28    H34     1.020   1_556 S
C29    C30     1.406   .     S
C29    N263    1.346   .     S
C30    C31     1.407   .     D
C30    H35     1.025   .     S
C31    H36     1.017   .     S
H34    C28     1.020   1_554 S
C37    C38     1.418   .     D
C37    C42     1.412   .     S
C37    C259    1.416   1_554 S
C38    C39     1.421   .     S
C38    F40     1.317   .     S
C39    F41     1.321   .     S
C39    C257    1.416   1_554 D
C42    N43     1.347   .     D
C42    H242    1.024   1_554 S
N43    C249    1.346   .     S
H44    C240    1.023   .     S
C45    C112    1.409   .     S
C45    C113    1.425   .     S
C45    C357    1.430   1_565 D
C46    H54     1.016   .     S
C46    C111    1.410   .     S
C46    C112    1.392   1_455 D
C47    C48     1.419   .     S
C47    C111    1.425   .     D
C47    C356    1.407   1_565 S
C48    C49     1.419   .     D
C48    C53     1.414   .     S
C49    C50     1.400   .     S
C49    H55     1.023   .     S
C50    C51     1.409   .     D
C50    H56     1.020   .     S
C51    C52     1.406   .     S
C51    N197    1.347   .     S
C52    C53     1.407   .     D
C52    H57     1.024   .     S
C53    H58     1.017   .     S
C59    C60     1.415   .     D
C59    C64     1.403   .     S
C59    C193    1.412   .     S
C60    C61     1.404   .     S
C60    H62     1.024   .     S
C61    H63     1.025   .     S
C61    C191    1.412   .     D
C64    N65     1.351   .     D
C64    H220    1.023   .     S
N65    C183    1.347   .     S
H66    C218    1.024   1_554 S
C67    C90     1.410   .     S
C67    C91     1.425   .     S
C67    C369    1.429   .     D
C68    H76     1.016   .     S
C68    C89     1.409   .     S
C68    C90     1.392   .     D
C69    C70     1.419   1_554 S
C69    C89     1.425   .     D
C69    C368    1.406   1_554 S
C70    C69     1.419   1_556 S
C70    C71     1.419   1_556 D
C70    C75     1.414   .     S
C71    C70     1.419   1_554 D
C71    C72     1.400   1_554 S
C71    H77     1.023   .     S
C72    C71     1.400   1_556 S
C72    C73     1.409   .     D
C72    H78     1.020   1_556 S
C73    C74     1.406   .     S
C73    N219    1.346   .     S
C74    C75     1.407   .     D
C74    H79     1.025   .     S
C75    H80     1.017   .     S
H78    C72     1.020   1_554 S
C81    C82     1.418   .     D
C81    C86     1.412   .     S
C81    C215    1.416   1_554 S
C82    C83     1.421   .     S
C82    F84     1.317   .     S
C83    F85     1.321   .     S
C83    C213    1.416   1_554 D
C86    N87     1.347   .     D
C86    H198    1.024   1_554 S
N87    C205    1.346   .     S
H88    C196    1.023   .     S
C89    C360    1.430   .     S
C90    H98     1.016   .     S
C91    C92     1.419   .     S
C91    C359    1.407   .     D
C92    C93     1.419   .     S
C92    C97     1.414   .     D
C93    C94     1.400   .     D
C93    H99     1.023   .     S
C94    C95     1.409   .     S
C94    H100    1.020   .     S
C95    C96     1.406   .     D
C95    N329    1.347   .     S
C96    C97     1.407   .     S
C96    H101    1.024   .     S
C97    H102    1.017   .     S
C103   C104    1.415   .     S
C103   C108    1.403   .     S
C103   C325    1.412   .     D
C104   C105    1.404   .     D
C104   H106    1.024   .     S
C105   H107    1.025   .     S
C105   C323    1.412   .     S
C108   N109    1.351   .     D
C108   H352    1.023   .     S
N109   C315    1.347   .     S
H110   C350    1.024   1_556 S
C111   C372    1.429   1_565 S
C112   C46     1.392   1_655 D
C112   H120    1.016   .     S
C113   C114    1.419   1_556 S
C113   C371    1.406   1_566 D
C114   C113    1.419   1_554 S
C114   C115    1.419   1_554 S
C114   C119    1.414   .     D
C115   C114    1.419   1_556 S
C115   C116    1.400   1_556 D
C115   H121    1.023   .     S
C116   C115    1.400   1_554 D
C116   C117    1.409   .     S
C116   H122    1.020   1_554 S
C117   C118    1.406   .     D
C117   N351    1.346   .     S
C118   C119    1.407   .     S
C118   H123    1.025   .     S
C119   H124    1.017   .     S
H122   C116    1.020   1_556 S
C125   C126    1.418   .     S
C125   C130    1.412   .     S
C125   C347    1.416   1_556 D
C126   C127    1.421   .     D
C126   F128    1.317   .     S
C127   F129    1.321   .     S
C127   C345    1.416   1_556 S
C130   N131    1.347   .     D
C130   H330    1.024   1_556 S
N131   C337    1.346   .     S
H132   C328    1.023   .     S
C133   C363    1.430   1_565 S
C134   C24     1.392   1_655 D
C134   H142    1.016   .     S
C135   C136    1.419   .     S
C135   C362    1.407   1_565 D
C136   C137    1.419   .     S
C136   C141    1.414   .     D
C137   C138    1.400   .     D
C137   H143    1.023   .     S
C138   C139    1.409   .     S
C138   H144    1.020   .     S
C139   C140    1.406   .     D
C139   N285    1.347   .     S
C140   C141    1.407   .     S
C140   H145    1.024   .     S
C141   H146    1.017   .     S
C147   C148    1.415   .     S
C147   C152    1.403   .     S
C147   C281    1.412   .     D
C148   C149    1.404   .     D
C148   H150    1.024   .     S
C149   H151    1.025   .     S
C149   C279    1.412   .     S
C152   N153    1.351   .     D
C152   H308    1.023   .     S
N153   C271    1.347   .     S
H154   C306    1.024   1_556 S
C155   C375    1.429   .     D
C156   H164    1.016   .     S
C157   C158    1.419   1_556 S
C157   C374    1.406   1_556 D
C158   C157    1.419   1_554 S
C158   C159    1.419   1_554 S
C158   C163    1.414   .     D
C159   C158    1.419   1_556 S
C159   C160    1.400   1_556 D
C159   H165    1.023   .     S
C160   C159    1.400   1_554 D
C160   C161    1.409   .     S
C160   H166    1.020   1_554 S
C161   C162    1.406   .     D
C161   N307    1.346   .     S
C162   C163    1.407   .     S
C162   H167    1.025   .     S
C163   H168    1.017   .     S
H166   C160    1.020   1_556 S
C169   C170    1.418   .     S
C169   C174    1.412   .     S
C169   C303    1.416   1_556 D
C170   C171    1.421   .     D
C170   F172    1.317   .     S
C171   F173    1.321   .     S
C171   C301    1.416   1_556 S
C174   N175    1.347   .     D
C174   H286    1.024   1_556 S
N175   C293    1.346   .     S
H176   C284    1.023   .     S
C177   C332    1.409   .     S
C177   C333    1.425   .     S
C177   C360    1.430   .     D
C178   H186    1.016   .     S
C178   C331    1.410   .     S
C178   C332    1.392   .     D
C179   C180    1.419   .     S
C179   C331    1.425   .     D
C179   C359    1.407   .     S
C180   C181    1.419   .     D
C180   C185    1.414   .     S
C181   C182    1.400   .     S
C181   H187    1.023   .     S
C182   C183    1.409   .     D
C182   H188    1.020   .     S
C183   C184    1.406   .     S
C184   C185    1.407   .     D
C184   H189    1.024   .     S
C185   H190    1.017   .     S
C191   C192    1.415   .     S
C191   C196    1.403   .     S
C192   C193    1.404   .     D
C192   H194    1.024   .     S
C193   H195    1.025   .     S
C196   N197    1.351   .     D
H198   C86     1.024   1_556 S
C199   C310    1.410   .     S
C199   C311    1.425   .     S
C199   C372    1.429   .     D
C200   H208    1.016   .     S
C200   C309    1.409   .     S
C200   C310    1.392   1_655 D
C201   C202    1.419   1_556 S
C201   C309    1.425   .     D
C201   C371    1.406   1_556 S
C202   C201    1.419   1_554 S
C202   C203    1.419   1_554 D
C202   C207    1.414   .     S
C203   C202    1.419   1_556 D
C203   C204    1.400   1_556 S
C203   H209    1.023   .     S
C204   C203    1.400   1_554 S
C204   C205    1.409   .     D
C204   H210    1.020   1_554 S
C205   C206    1.406   .     S
C206   C207    1.407   .     D
C206   H211    1.025   .     S
C207   H212    1.017   .     S
H210   C204    1.020   1_556 S
C213   C83     1.416   1_556 D
C213   C214    1.418   .     S
C213   C218    1.412   .     S
C214   C215    1.421   .     D
C214   F216    1.317   .     S
C215   C81     1.416   1_556 S
C215   F217    1.321   .     S
C218   H66     1.024   1_556 S
C218   N219    1.347   .     D
C221   C288    1.409   .     S
C221   C289    1.425   .     S
C221   C363    1.430   .     D
C222   H230    1.016   .     S
C222   C287    1.410   .     S
C222   C288    1.392   1_655 D
C223   C224    1.419   .     S
C223   C287    1.425   .     D
C223   C362    1.407   .     S
C224   C225    1.419   .     S
C224   C229    1.414   .     D
C225   C226    1.400   .     D
C225   H231    1.023   .     S
C226   C227    1.409   .     S
C226   H232    1.020   .     S
C227   C228    1.406   .     D
C228   C229    1.407   .     S
C228   H233    1.024   .     S
C229   H234    1.017   .     S
C235   C236    1.415   .     D
C235   C240    1.403   .     S
C236   C237    1.404   .     S
C236   H238    1.024   .     S
C237   H239    1.025   .     S
C240   N241    1.351   .     D
H242   C42     1.024   1_556 S
C243   C266    1.410   .     S
C243   C267    1.425   .     D
C243   C375    1.429   .     S
C244   H252    1.016   .     S
C244   C265    1.409   .     S
C244   C266    1.392   .     D
C245   C246    1.419   1_556 S
C245   C265    1.425   .     D
C245   C374    1.406   1_556 S
C246   C245    1.419   1_554 S
C246   C247    1.419   1_554 D
C246   C251    1.414   .     S
C247   C246    1.419   1_556 D
C247   C248    1.400   1_556 S
C247   H253    1.023   .     S
C248   C247    1.400   1_554 S
C248   C249    1.409   .     D
C248   H254    1.020   1_554 S
C249   C250    1.406   .     S
C250   C251    1.407   .     D
C250   H255    1.025   .     S
C251   H256    1.017   .     S
H254   C248    1.020   1_556 S
C257   C39     1.416   1_556 D
C257   C258    1.418   .     S
C257   C262    1.412   .     S
C258   C259    1.421   .     D
C258   F260    1.317   .     S
C259   C37     1.416   1_556 S
C259   F261    1.321   .     S
C262   H22     1.024   1_556 S
C262   N263    1.347   .     D
C265   C354    1.430   .     S
C266   H274    1.016   .     S
C267   C268    1.419   .     S
C267   C353    1.407   .     S
C268   C269    1.419   .     S
C268   C273    1.414   .     D
C269   C270    1.400   .     D
C269   H275    1.023   .     S
C270   C271    1.409   .     S
C270   H276    1.020   .     S
C271   C272    1.406   .     D
C272   C273    1.407   .     S
C272   H277    1.024   .     S
C273   H278    1.017   .     S
C279   C280    1.415   .     D
C279   C284    1.403   .     S
C280   C281    1.404   .     S
C280   H282    1.024   .     S
C281   H283    1.025   .     S
C284   N285    1.351   .     D
H286   C174    1.024   1_554 S
C287   C366    1.429   .     S
C288   C222    1.392   1_455 D
C288   H296    1.016   .     S
C289   C290    1.419   1_554 S
C289   C365    1.406   1_554 D
C290   C289    1.419   1_556 S
C290   C291    1.419   1_556 S
C290   C295    1.414   .     D
C291   C290    1.419   1_554 S
C291   C292    1.400   1_554 D
C291   H297    1.023   .     S
C292   C291    1.400   1_556 D
C292   C293    1.409   .     S
C292   H298    1.020   1_556 S
C293   C294    1.406   .     D
C294   C295    1.407   .     S
C294   H299    1.025   .     S
C295   H300    1.017   .     S
H298   C292    1.020   1_554 S
C301   C171    1.416   1_554 S
C301   C302    1.418   .     D
C301   C306    1.412   .     S
C302   C303    1.421   .     S
C302   F304    1.317   .     S
C303   C169    1.416   1_554 D
C303   F305    1.321   .     S
C306   H154    1.024   1_554 S
C306   N307    1.347   .     D
C309   C357    1.430   .     S
C310   C200    1.392   1_455 D
C310   H318    1.016   .     S
C311   C312    1.419   .     S
C311   C356    1.407   .     D
C312   C313    1.419   .     S
C312   C317    1.414   .     D
C313   C314    1.400   .     D
C313   H319    1.023   .     S
C314   C315    1.409   .     S
C314   H320    1.020   .     S
C315   C316    1.406   .     D
C316   C317    1.407   .     S
C316   H321    1.024   .     S
C317   H322    1.017   .     S
C323   C324    1.415   .     D
C323   C328    1.403   .     S
C324   C325    1.404   .     S
C324   H326    1.024   .     S
C325   H327    1.025   .     S
C328   N329    1.351   .     D
H330   C130    1.024   1_554 S
C331   C369    1.429   .     S
C332   H340    1.016   .     S
C333   C334    1.419   1_554 S
C333   C368    1.406   1_554 D
C334   C333    1.419   1_556 S
C334   C335    1.419   1_556 S
C334   C339    1.414   .     D
C335   C334    1.419   1_554 S
C335   C336    1.400   1_554 D
C335   H341    1.023   .     S
C336   C335    1.400   1_556 D
C336   C337    1.409   .     S
C336   H342    1.020   1_556 S
C337   C338    1.406   .     D
C338   C339    1.407   .     S
C338   H343    1.025   .     S
C339   H344    1.017   .     S
H342   C336    1.020   1_554 S
C345   C127    1.416   1_554 S
C345   C346    1.418   .     D
C345   C350    1.412   .     S
C346   C347    1.421   .     S
C346   F348    1.317   .     S
C347   C125    1.416   1_554 D
C347   F349    1.321   .     S
C350   H110    1.024   1_554 S
C350   N351    1.347   .     D
C353   H355    1.026   .     S
C354   C375    1.437   .     S
C356   C47     1.407   1_545 S
C356   H358    1.026   .     S
C357   C45     1.430   1_545 D
C357   C372    1.437   1_655 S
C359   H361    1.026   .     S
C360   C369    1.437   .     S
C362   C135    1.407   1_545 D
C362   H364    1.026   .     S
C363   C133    1.430   1_545 S
C363   C366    1.437   1_455 S
C365   C289    1.406   1_556 D
C365   C25     1.406   1_546 S
C365   H367    1.026   .     S
C366   C23     1.429   1_545 D
C366   C363    1.437   1_655 S
C368   C333    1.406   1_556 D
C368   C69     1.406   1_556 S
C368   H370    1.026   .     S
C371   C201    1.406   1_554 S
C371   C113    1.406   1_544 D
C371   H373    1.026   .     S
C372   C357    1.437   1_455 S
C372   C111    1.429   1_545 S
C374   C245    1.406   1_554 S
C374   C157    1.406   1_554 D
C374   H376    1.026   .     S
