data_402
_audit_creation_date              2023-09-08
_audit_creation_method            'Materials Studio'
_symmetry_space_group_name_H-M    'P1'
_symmetry_Int_Tables_number       1
_symmetry_cell_setting            triclinic
loop_
_symmetry_equiv_pos_as_xyz
  x,y,z
_cell_length_a                    55.2000
_cell_length_b                    56.2000
_cell_length_c                    3.8300
_cell_angle_alpha                 90.0000
_cell_angle_beta                  75.0000
_cell_angle_gamma                 90.0000
loop_
_atom_site_label
_atom_site_type_symbol
_atom_site_fract_x
_atom_site_fract_y
_atom_site_fract_z
_atom_site_U_iso_or_equiv
_atom_site_adp_type
_atom_site_occupancy
C1     C     0.44934   0.52176   0.45513   0.00000  Uiso   1.00
C2     C     0.94934   0.02176   0.45513   0.00000  Uiso   1.00
C3     C     0.55066   0.52176   0.54487   0.00000  Uiso   1.00
C4     C     0.05066   0.02176   0.54487   0.00000  Uiso   1.00
C5     C     0.55066   0.47824   0.54487   0.00000  Uiso   1.00
C6     C     0.05066   0.97824   0.54487   0.00000  Uiso   1.00
C7     C     0.44934   0.47824   0.45513   0.00000  Uiso   1.00
C8     C     0.94934   0.97824   0.45513   0.00000  Uiso   1.00
C9     C     0.47468   0.52189   0.47494   0.00000  Uiso   1.00
C10    C     0.97468   0.02189   0.47494   0.00000  Uiso   1.00
C11    C     0.52532   0.52189   0.52506   0.00000  Uiso   1.00
C12    C     0.02532   0.02189   0.52506   0.00000  Uiso   1.00
C13    C     0.52532   0.47811   0.52506   0.00000  Uiso   1.00
C14    C     0.02532   0.97811   0.52506   0.00000  Uiso   1.00
C15    C     0.47468   0.47811   0.47494   0.00000  Uiso   1.00
C16    C     0.97468   0.97811   0.47494   0.00000  Uiso   1.00
C17    C     0.48764   0.54314   0.49144   0.00000  Uiso   1.00
C18    C     0.98764   0.04314   0.49144   0.00000  Uiso   1.00
C19    C     0.51236   0.54314   0.50856   0.00000  Uiso   1.00
C20    C     0.01236   0.04314   0.50856   0.00000  Uiso   1.00
C21    C     0.51236   0.45686   0.50856   0.00000  Uiso   1.00
C22    C     0.01236   0.95686   0.50856   0.00000  Uiso   1.00
C23    C     0.48764   0.45686   0.49144   0.00000  Uiso   1.00
C24    C     0.98764   0.95686   0.49144   0.00000  Uiso   1.00
C25    C     0.43314   0.54336   0.49343   0.00000  Uiso   1.00
C26    C     0.93314   0.04336   0.49343   0.00000  Uiso   1.00
C27    C     0.56686   0.54336   0.50657   0.00000  Uiso   1.00
C28    C     0.06686   0.04336   0.50657   0.00000  Uiso   1.00
C29    C     0.56686   0.45664   0.50657   0.00000  Uiso   1.00
C30    C     0.06686   0.95664   0.50657   0.00000  Uiso   1.00
C31    C     0.43314   0.45664   0.49343   0.00000  Uiso   1.00
C32    C     0.93314   0.95664   0.49343   0.00000  Uiso   1.00
H33    H     0.47913   0.56033   0.49217   0.00000  Uiso   1.00
H34    H     0.97913   0.06033   0.49217   0.00000  Uiso   1.00
H35    H     0.52088   0.56033   0.50783   0.00000  Uiso   1.00
H36    H     0.02087   0.06033   0.50783   0.00000  Uiso   1.00
H37    H     0.52088   0.43967   0.50783   0.00000  Uiso   1.00
H38    H     0.02087   0.93967   0.50783   0.00000  Uiso   1.00
H39    H     0.47913   0.43967   0.49217   0.00000  Uiso   1.00
H40    H     0.97913   0.93967   0.49217   0.00000  Uiso   1.00
C41    C     0.55959   0.56369   0.72100   0.00000  Uiso   1.00
C42    C     0.05959   0.06369   0.72100   0.00000  Uiso   1.00
C43    C     0.44041   0.56369   0.27900   0.00000  Uiso   1.00
C44    C     0.94041   0.06369   0.27900   0.00000  Uiso   1.00
C45    C     0.44041   0.43631   0.27900   0.00000  Uiso   1.00
C46    C     0.94041   0.93631   0.27900   0.00000  Uiso   1.00
C47    C     0.55959   0.43631   0.72100   0.00000  Uiso   1.00
C48    C     0.05959   0.93631   0.72100   0.00000  Uiso   1.00
C49    C     0.57528   0.58352   0.68142   0.00000  Uiso   1.00
C50    C     0.07528   0.08352   0.68142   0.00000  Uiso   1.00
C51    C     0.42472   0.58352   0.31858   0.00000  Uiso   1.00
C52    C     0.92472   0.08352   0.31858   0.00000  Uiso   1.00
C53    C     0.42472   0.41648   0.31858   0.00000  Uiso   1.00
C54    C     0.92472   0.91648   0.31858   0.00000  Uiso   1.00
C55    C     0.57528   0.41648   0.68142   0.00000  Uiso   1.00
C56    C     0.07528   0.91648   0.68142   0.00000  Uiso   1.00
C57    C     0.59905   0.58297   0.43644   0.00000  Uiso   1.00
C58    C     0.09905   0.08297   0.43644   0.00000  Uiso   1.00
C59    C     0.40095   0.58297   0.56356   0.00000  Uiso   1.00
C60    C     0.90095   0.08297   0.56356   0.00000  Uiso   1.00
C61    C     0.40095   0.41703   0.56356   0.00000  Uiso   1.00
C62    C     0.90095   0.91703   0.56356   0.00000  Uiso   1.00
C63    C     0.59905   0.41703   0.43644   0.00000  Uiso   1.00
C64    C     0.09905   0.91703   0.43644   0.00000  Uiso   1.00
C65    C     0.60691   0.56246   0.23399   0.00000  Uiso   1.00
C66    C     0.10691   0.06246   0.23399   0.00000  Uiso   1.00
C67    C     0.39309   0.56246   0.76601   0.00000  Uiso   1.00
C68    C     0.89309   0.06246   0.76601   0.00000  Uiso   1.00
C69    C     0.39309   0.43754   0.76601   0.00000  Uiso   1.00
C70    C     0.89309   0.93754   0.76601   0.00000  Uiso   1.00
C71    C     0.60691   0.43754   0.23399   0.00000  Uiso   1.00
C72    C     0.10691   0.93754   0.23399   0.00000  Uiso   1.00
C73    C     0.59086   0.54296   0.26345   0.00000  Uiso   1.00
C74    C     0.09086   0.04296   0.26345   0.00000  Uiso   1.00
C75    C     0.40914   0.54296   0.73655   0.00000  Uiso   1.00
C76    C     0.90914   0.04296   0.73655   0.00000  Uiso   1.00
C77    C     0.40914   0.45704   0.73655   0.00000  Uiso   1.00
C78    C     0.90914   0.95705   0.73655   0.00000  Uiso   1.00
C79    C     0.59086   0.45704   0.26345   0.00000  Uiso   1.00
C80    C     0.09086   0.95705   0.26345   0.00000  Uiso   1.00
N81    N     0.61631   0.60225   0.40782   0.00000  Uiso   1.00
N82    N     0.11631   0.10225   0.40782   0.00000  Uiso   1.00
N83    N     0.38370   0.60225   0.59218   0.00000  Uiso   1.00
N84    N     0.88370   0.10225   0.59218   0.00000  Uiso   1.00
N85    N     0.38370   0.39775   0.59218   0.00000  Uiso   1.00
N86    N     0.88370   0.89775   0.59218   0.00000  Uiso   1.00
N87    N     0.61631   0.39775   0.40782   0.00000  Uiso   1.00
N88    N     0.11631   0.89775   0.40782   0.00000  Uiso   1.00
C89    C     0.60998   0.62449   0.45466   0.00000  Uiso   1.00
C90    C     0.10998   0.12449   0.45466   0.00000  Uiso   1.00
C91    C     0.39002   0.62449   0.54534   0.00000  Uiso   1.00
C92    C     0.89002   0.12449   0.54534   0.00000  Uiso   1.00
C93    C     0.39002   0.37551   0.54534   0.00000  Uiso   1.00
C94    C     0.89002   0.87551   0.54534   0.00000  Uiso   1.00
C95    C     0.60998   0.37551   0.45466   0.00000  Uiso   1.00
C96    C     0.10998   0.87551   0.45466   0.00000  Uiso   1.00
H97    H     0.54199   0.56413   0.92348   0.00000  Uiso   1.00
H98    H     0.04199   0.06413   0.92348   0.00000  Uiso   1.00
H99    H     0.45801   0.56413   0.07652   0.00000  Uiso   1.00
H100   H     0.95801   0.06413   0.07652   0.00000  Uiso   1.00
H101   H     0.45801   0.43587   0.07652   0.00000  Uiso   1.00
H102   H     0.95801   0.93587   0.07652   0.00000  Uiso   1.00
H103   H     0.54199   0.43587   0.92348   0.00000  Uiso   1.00
H104   H     0.04199   0.93587   0.92348   0.00000  Uiso   1.00
H105   H     0.56944   0.59876   0.85522   0.00000  Uiso   1.00
H106   H     0.06944   0.09876   0.85522   0.00000  Uiso   1.00
H107   H     0.43056   0.59876   0.14478   0.00000  Uiso   1.00
H108   H     0.93056   0.09876   0.14478   0.00000  Uiso   1.00
H109   H     0.43056   0.40124   0.14478   0.00000  Uiso   1.00
H110   H     0.93056   0.90125   0.14478   0.00000  Uiso   1.00
H111   H     0.56944   0.40124   0.85522   0.00000  Uiso   1.00
H112   H     0.06944   0.90125   0.85522   0.00000  Uiso   1.00
H113   H     0.62532   0.56198   0.04686   0.00000  Uiso   1.00
H114   H     0.12532   0.06198   0.04686   0.00000  Uiso   1.00
H115   H     0.37468   0.56198   0.95314   0.00000  Uiso   1.00
H116   H     0.87468   0.06198   0.95314   0.00000  Uiso   1.00
H117   H     0.37468   0.43802   0.95314   0.00000  Uiso   1.00
H118   H     0.87468   0.93802   0.95314   0.00000  Uiso   1.00
H119   H     0.62532   0.43802   0.04686   0.00000  Uiso   1.00
H120   H     0.12532   0.93802   0.04686   0.00000  Uiso   1.00
H121   H     0.59707   0.52758   0.09330   0.00000  Uiso   1.00
H122   H     0.09707   0.02758   0.09330   0.00000  Uiso   1.00
H123   H     0.40293   0.52758   0.90670   0.00000  Uiso   1.00
H124   H     0.90293   0.02758   0.90670   0.00000  Uiso   1.00
H125   H     0.40293   0.47242   0.90670   0.00000  Uiso   1.00
H126   H     0.90293   0.97242   0.90670   0.00000  Uiso   1.00
H127   H     0.59707   0.47242   0.09330   0.00000  Uiso   1.00
H128   H     0.09707   0.97242   0.09330   0.00000  Uiso   1.00
H129   H     0.59060   0.62992   0.49757   0.00000  Uiso   1.00
H130   H     0.09060   0.12992   0.49757   0.00000  Uiso   1.00
H131   H     0.40940   0.62992   0.50242   0.00000  Uiso   1.00
H132   H     0.90940   0.12992   0.50242   0.00000  Uiso   1.00
H133   H     0.40940   0.37008   0.50242   0.00000  Uiso   1.00
H134   H     0.90940   0.87008   0.50242   0.00000  Uiso   1.00
H135   H     0.59060   0.37008   0.49757   0.00000  Uiso   1.00
H136   H     0.09060   0.87008   0.49757   0.00000  Uiso   1.00
C137   C     0.62927   0.64272   0.44129   0.00000  Uiso   1.00
C138   C     0.12927   0.14272   0.44129   0.00000  Uiso   1.00
C139   C     0.37073   0.64272   0.55870   0.00000  Uiso   1.00
C140   C     0.87073   0.14272   0.55870   0.00000  Uiso   1.00
C141   C     0.37073   0.35728   0.55870   0.00000  Uiso   1.00
C142   C     0.87073   0.85728   0.55870   0.00000  Uiso   1.00
C143   C     0.62927   0.35728   0.44129   0.00000  Uiso   1.00
C144   C     0.12927   0.85728   0.44129   0.00000  Uiso   1.00
C145   C     0.62361   0.66679   0.40914   0.00000  Uiso   1.00
C146   C     0.12361   0.16679   0.40914   0.00000  Uiso   1.00
C147   C     0.37639   0.66679   0.59086   0.00000  Uiso   1.00
C148   C     0.87639   0.16679   0.59086   0.00000  Uiso   1.00
C149   C     0.37639   0.33321   0.59086   0.00000  Uiso   1.00
C150   C     0.87639   0.83321   0.59086   0.00000  Uiso   1.00
C151   C     0.62361   0.33321   0.40914   0.00000  Uiso   1.00
C152   C     0.12361   0.83321   0.40914   0.00000  Uiso   1.00
C153   C     0.64182   0.68420   0.40089   0.00000  Uiso   1.00
C154   C     0.14182   0.18420   0.40089   0.00000  Uiso   1.00
C155   C     0.35818   0.68420   0.59911   0.00000  Uiso   1.00
C156   C     0.85818   0.18420   0.59911   0.00000  Uiso   1.00
C157   C     0.35818   0.31580   0.59911   0.00000  Uiso   1.00
C158   C     0.85818   0.81580   0.59911   0.00000  Uiso   1.00
C159   C     0.64182   0.31580   0.40089   0.00000  Uiso   1.00
C160   C     0.14182   0.81580   0.40089   0.00000  Uiso   1.00
C161   C     0.66589   0.67774   0.42727   0.00000  Uiso   1.00
C162   C     0.16589   0.17774   0.42727   0.00000  Uiso   1.00
C163   C     0.33411   0.67774   0.57273   0.00000  Uiso   1.00
C164   C     0.83411   0.17774   0.57273   0.00000  Uiso   1.00
C165   C     0.33411   0.32226   0.57273   0.00000  Uiso   1.00
C166   C     0.83411   0.82226   0.57273   0.00000  Uiso   1.00
C167   C     0.66589   0.32226   0.42727   0.00000  Uiso   1.00
C168   C     0.16589   0.82226   0.42727   0.00000  Uiso   1.00
C169   C     0.67139   0.65361   0.46222   0.00000  Uiso   1.00
C170   C     0.17139   0.15361   0.46222   0.00000  Uiso   1.00
C171   C     0.32861   0.65361   0.53778   0.00000  Uiso   1.00
C172   C     0.82861   0.15361   0.53778   0.00000  Uiso   1.00
C173   C     0.32861   0.34639   0.53778   0.00000  Uiso   1.00
C174   C     0.82861   0.84639   0.53778   0.00000  Uiso   1.00
C175   C     0.67139   0.34639   0.46222   0.00000  Uiso   1.00
C176   C     0.17139   0.84639   0.46222   0.00000  Uiso   1.00
C177   C     0.65327   0.63626   0.46801   0.00000  Uiso   1.00
C178   C     0.15328   0.13626   0.46801   0.00000  Uiso   1.00
C179   C     0.34672   0.63626   0.53199   0.00000  Uiso   1.00
C180   C     0.84672   0.13626   0.53199   0.00000  Uiso   1.00
C181   C     0.34672   0.36374   0.53199   0.00000  Uiso   1.00
C182   C     0.84672   0.86374   0.53199   0.00000  Uiso   1.00
C183   C     0.65327   0.36374   0.46801   0.00000  Uiso   1.00
C184   C     0.15328   0.86374   0.46801   0.00000  Uiso   1.00
C185   C     0.68524   0.69595   0.42424   0.00000  Uiso   1.00
C186   C     0.18524   0.19595   0.42424   0.00000  Uiso   1.00
C187   C     0.31476   0.69595   0.57576   0.00000  Uiso   1.00
C188   C     0.81476   0.19595   0.57576   0.00000  Uiso   1.00
C189   C     0.31476   0.30405   0.57576   0.00000  Uiso   1.00
C190   C     0.81476   0.80405   0.57576   0.00000  Uiso   1.00
C191   C     0.68524   0.30405   0.42424   0.00000  Uiso   1.00
C192   C     0.18524   0.80405   0.42424   0.00000  Uiso   1.00
C193   C     0.71039   0.69181   0.23128   0.00000  Uiso   1.00
C194   C     0.21039   0.19181   0.23128   0.00000  Uiso   1.00
C195   C     0.28961   0.69181   0.76872   0.00000  Uiso   1.00
C196   C     0.78961   0.19181   0.76872   0.00000  Uiso   1.00
C197   C     0.28961   0.30819   0.76872   0.00000  Uiso   1.00
C198   C     0.78961   0.80819   0.76872   0.00000  Uiso   1.00
C199   C     0.71039   0.30819   0.23128   0.00000  Uiso   1.00
C200   C     0.21039   0.80819   0.23128   0.00000  Uiso   1.00
C201   C     0.72915   0.70844   0.23815   0.00000  Uiso   1.00
C202   C     0.22915   0.20844   0.23815   0.00000  Uiso   1.00
C203   C     0.27085   0.70844   0.76185   0.00000  Uiso   1.00
C204   C     0.77085   0.20844   0.76185   0.00000  Uiso   1.00
C205   C     0.27085   0.29156   0.76185   0.00000  Uiso   1.00
C206   C     0.77085   0.79156   0.76185   0.00000  Uiso   1.00
C207   C     0.72915   0.29156   0.23815   0.00000  Uiso   1.00
C208   C     0.22915   0.79156   0.23815   0.00000  Uiso   1.00
C209   C     0.72270   0.72875   0.45307   0.00000  Uiso   1.00
C210   C     0.22269   0.22875   0.45307   0.00000  Uiso   1.00
C211   C     0.27730   0.72875   0.54693   0.00000  Uiso   1.00
C212   C     0.77731   0.22875   0.54693   0.00000  Uiso   1.00
C213   C     0.27730   0.27125   0.54693   0.00000  Uiso   1.00
C214   C     0.77731   0.77125   0.54693   0.00000  Uiso   1.00
C215   C     0.72270   0.27125   0.45307   0.00000  Uiso   1.00
C216   C     0.22269   0.77125   0.45307   0.00000  Uiso   1.00
C217   C     0.69785   0.73379   0.61635   0.00000  Uiso   1.00
C218   C     0.19785   0.23379   0.61635   0.00000  Uiso   1.00
C219   C     0.30215   0.73379   0.38365   0.00000  Uiso   1.00
C220   C     0.80215   0.23379   0.38365   0.00000  Uiso   1.00
C221   C     0.30215   0.26621   0.38365   0.00000  Uiso   1.00
C222   C     0.80215   0.76622   0.38365   0.00000  Uiso   1.00
C223   C     0.69785   0.26621   0.61635   0.00000  Uiso   1.00
C224   C     0.19785   0.76622   0.61635   0.00000  Uiso   1.00
C225   C     0.67884   0.71763   0.60959   0.00000  Uiso   1.00
C226   C     0.17884   0.21763   0.60959   0.00000  Uiso   1.00
C227   C     0.32116   0.71763   0.39041   0.00000  Uiso   1.00
C228   C     0.82116   0.21763   0.39041   0.00000  Uiso   1.00
C229   C     0.32116   0.28238   0.39041   0.00000  Uiso   1.00
C230   C     0.82116   0.78238   0.39041   0.00000  Uiso   1.00
C231   C     0.67884   0.28238   0.60959   0.00000  Uiso   1.00
C232   C     0.17884   0.78238   0.60959   0.00000  Uiso   1.00
N233   N     0.69450   0.24247   0.74948   0.00000  Uiso   1.00
N234   N     0.19450   0.74247   0.74948   0.00000  Uiso   1.00
N235   N     0.30550   0.24247   0.25052   0.00000  Uiso   1.00
N236   N     0.80550   0.74247   0.25052   0.00000  Uiso   1.00
N237   N     0.30550   0.75754   0.25052   0.00000  Uiso   1.00
N238   N     0.80550   0.25753   0.25052   0.00000  Uiso   1.00
N239   N     0.69450   0.75754   0.74948   0.00000  Uiso   1.00
N240   N     0.19450   0.25753   0.74948   0.00000  Uiso   1.00
C241   C     0.71803   0.23271   0.65459   0.00000  Uiso   1.00
C242   C     0.21803   0.73271   0.65459   0.00000  Uiso   1.00
C243   C     0.28197   0.23271   0.34541   0.00000  Uiso   1.00
C244   C     0.78197   0.73271   0.34541   0.00000  Uiso   1.00
C245   C     0.28197   0.76729   0.34541   0.00000  Uiso   1.00
C246   C     0.78197   0.26729   0.34541   0.00000  Uiso   1.00
C247   C     0.71803   0.76729   0.65459   0.00000  Uiso   1.00
C248   C     0.21803   0.26729   0.65459   0.00000  Uiso   1.00
C249   C     0.73758   0.25058   0.50883   0.00000  Uiso   1.00
C250   C     0.23759   0.75058   0.50883   0.00000  Uiso   1.00
C251   C     0.26242   0.25058   0.49117   0.00000  Uiso   1.00
C252   C     0.76241   0.75058   0.49117   0.00000  Uiso   1.00
C253   C     0.26242   0.74942   0.49117   0.00000  Uiso   1.00
C254   C     0.76241   0.24942   0.49117   0.00000  Uiso   1.00
C255   C     0.73758   0.74942   0.50883   0.00000  Uiso   1.00
C256   C     0.23759   0.24942   0.50883   0.00000  Uiso   1.00
O257   O     0.72169   0.21136   0.64973   0.00000  Uiso   1.00
O258   O     0.22169   0.71136   0.64973   0.00000  Uiso   1.00
O259   O     0.27831   0.21136   0.35027   0.00000  Uiso   1.00
O260   O     0.77831   0.71136   0.35027   0.00000  Uiso   1.00
O261   O     0.27831   0.78864   0.35027   0.00000  Uiso   1.00
O262   O     0.77831   0.28864   0.35027   0.00000  Uiso   1.00
O263   O     0.72169   0.78864   0.64973   0.00000  Uiso   1.00
O264   O     0.22169   0.28864   0.64973   0.00000  Uiso   1.00
C265   C     0.67014   0.23199   0.93815   0.00000  Uiso   1.00
C266   C     0.17014   0.73199   0.93815   0.00000  Uiso   1.00
C267   C     0.32986   0.23199   0.06185   0.00000  Uiso   1.00
C268   C     0.82986   0.73199   0.06185   0.00000  Uiso   1.00
C269   C     0.32986   0.76801   0.06185   0.00000  Uiso   1.00
C270   C     0.82986   0.26801   0.06185   0.00000  Uiso   1.00
C271   C     0.67014   0.76801   0.93815   0.00000  Uiso   1.00
C272   C     0.17014   0.26801   0.93815   0.00000  Uiso   1.00
C273   C     0.67204   0.20603   1.05067   0.00000  Uiso   1.00
C274   C     0.17204   0.70603   1.05067   0.00000  Uiso   1.00
C275   C     0.32797   0.20603  -0.05067   0.00000  Uiso   1.00
C276   C     0.82797   0.70603  -0.05067   0.00000  Uiso   1.00
C277   C     0.32797   0.79398  -0.05067   0.00000  Uiso   1.00
C278   C     0.82797   0.29398  -0.05067   0.00000  Uiso   1.00
C279   C     0.67204   0.79398   1.05067   0.00000  Uiso   1.00
C280   C     0.17204   0.29398   1.05067   0.00000  Uiso   1.00
C281   C     0.64618   0.19588   1.24161   0.00000  Uiso   1.00
C282   C     0.14618   0.69588   1.24161   0.00000  Uiso   1.00
C283   C     0.35382   0.19588  -0.24161   0.00000  Uiso   1.00
C284   C     0.85382   0.69588  -0.24161   0.00000  Uiso   1.00
C285   C     0.35382   0.80412  -0.24161   0.00000  Uiso   1.00
C286   C     0.85382   0.30412  -0.24161   0.00000  Uiso   1.00
C287   C     0.64618   0.80412   1.24161   0.00000  Uiso   1.00
C288   C     0.14618   0.30412   1.24161   0.00000  Uiso   1.00
C289   C     0.64853   0.16985   1.34434   0.00000  Uiso   1.00
C290   C     0.14853   0.66985   1.34434   0.00000  Uiso   1.00
C291   C     0.35147   0.16985  -0.34434   0.00000  Uiso   1.00
C292   C     0.85147   0.66985  -0.34434   0.00000  Uiso   1.00
C293   C     0.35147   0.83015  -0.34434   0.00000  Uiso   1.00
C294   C     0.85147   0.33015  -0.34434   0.00000  Uiso   1.00
C295   C     0.64853   0.83015   1.34434   0.00000  Uiso   1.00
C296   C     0.14853   0.33015   1.34434   0.00000  Uiso   1.00
H297   H     0.60521   0.67207   0.38658   0.00000  Uiso   1.00
H298   H     0.10521   0.17207   0.38658   0.00000  Uiso   1.00
H299   H     0.39479   0.67207   0.61342   0.00000  Uiso   1.00
H300   H     0.89479   0.17207   0.61342   0.00000  Uiso   1.00
H301   H     0.39479   0.32794   0.61342   0.00000  Uiso   1.00
H302   H     0.89479   0.82794   0.61342   0.00000  Uiso   1.00
H303   H     0.60521   0.32794   0.38658   0.00000  Uiso   1.00
H304   H     0.10521   0.82794   0.38658   0.00000  Uiso   1.00
H305   H     0.63723   0.70265   0.36920   0.00000  Uiso   1.00
H306   H     0.13723   0.20265   0.36920   0.00000  Uiso   1.00
H307   H     0.36278   0.70265   0.63079   0.00000  Uiso   1.00
H308   H     0.86278   0.20265   0.63079   0.00000  Uiso   1.00
H309   H     0.36278   0.29735   0.63079   0.00000  Uiso   1.00
H310   H     0.86278   0.79735   0.63079   0.00000  Uiso   1.00
H311   H     0.63723   0.29735   0.36920   0.00000  Uiso   1.00
H312   H     0.13723   0.79735   0.36920   0.00000  Uiso   1.00
H313   H     0.68957   0.64824   0.49274   0.00000  Uiso   1.00
H314   H     0.18957   0.14824   0.49274   0.00000  Uiso   1.00
H315   H     0.31043   0.64824   0.50726   0.00000  Uiso   1.00
H316   H     0.81043   0.14824   0.50726   0.00000  Uiso   1.00
H317   H     0.31043   0.35176   0.50726   0.00000  Uiso   1.00
H318   H     0.81043   0.85176   0.50726   0.00000  Uiso   1.00
H319   H     0.68957   0.35176   0.49274   0.00000  Uiso   1.00
H320   H     0.18957   0.85176   0.49274   0.00000  Uiso   1.00
H321   H     0.65780   0.61777   0.50026   0.00000  Uiso   1.00
H322   H     0.15780   0.11777   0.50026   0.00000  Uiso   1.00
H323   H     0.34220   0.61777   0.49974   0.00000  Uiso   1.00
H324   H     0.84220   0.11777   0.49974   0.00000  Uiso   1.00
H325   H     0.34220   0.38223   0.49974   0.00000  Uiso   1.00
H326   H     0.84220   0.88223   0.49974   0.00000  Uiso   1.00
H327   H     0.65780   0.38223   0.50026   0.00000  Uiso   1.00
H328   H     0.15780   0.88223   0.50026   0.00000  Uiso   1.00
H329   H     0.71533   0.67605   0.06527   0.00000  Uiso   1.00
H330   H     0.21533   0.17605   0.06527   0.00000  Uiso   1.00
H331   H     0.28467   0.67605   0.93473   0.00000  Uiso   1.00
H332   H     0.78467   0.17605   0.93473   0.00000  Uiso   1.00
H333   H     0.28467   0.32395   0.93473   0.00000  Uiso   1.00
H334   H     0.78467   0.82395   0.93473   0.00000  Uiso   1.00
H335   H     0.71533   0.32395   0.06527   0.00000  Uiso   1.00
H336   H     0.21533   0.82395   0.06527   0.00000  Uiso   1.00
H337   H     0.74768   0.70582   0.06186   0.00000  Uiso   1.00
H338   H     0.24768   0.20582   0.06186   0.00000  Uiso   1.00
H339   H     0.25232   0.70582   0.93814   0.00000  Uiso   1.00
H340   H     0.75232   0.20582   0.93814   0.00000  Uiso   1.00
H341   H     0.25232   0.29418   0.93814   0.00000  Uiso   1.00
H342   H     0.75232   0.79418   0.93814   0.00000  Uiso   1.00
H343   H     0.74768   0.29418   0.06186   0.00000  Uiso   1.00
H344   H     0.24768   0.79418   0.06186   0.00000  Uiso   1.00
H345   H     0.65964   0.72171   0.74794   0.00000  Uiso   1.00
H346   H     0.15964   0.22171   0.74794   0.00000  Uiso   1.00
H347   H     0.34036   0.72171   0.25206   0.00000  Uiso   1.00
H348   H     0.84036   0.22171   0.25206   0.00000  Uiso   1.00
H349   H     0.34036   0.27829   0.25206   0.00000  Uiso   1.00
H350   H     0.84036   0.77829   0.25206   0.00000  Uiso   1.00
H351   H     0.65964   0.27829   0.74794   0.00000  Uiso   1.00
H352   H     0.15964   0.77829   0.74794   0.00000  Uiso   1.00
H353   H     0.65708   0.23326   0.76384   0.00000  Uiso   1.00
H354   H     0.15708   0.73326   0.76384   0.00000  Uiso   1.00
H355   H     0.34292   0.23326   0.23616   0.00000  Uiso   1.00
H356   H     0.84292   0.73326   0.23616   0.00000  Uiso   1.00
H357   H     0.34292   0.76674   0.23616   0.00000  Uiso   1.00
H358   H     0.84292   0.26674   0.23616   0.00000  Uiso   1.00
H359   H     0.65708   0.76674   0.76384   0.00000  Uiso   1.00
H360   H     0.15708   0.26674   0.76384   0.00000  Uiso   1.00
H361   H     0.66191   0.24292   1.18119   0.00000  Uiso   1.00
H362   H     0.16191   0.74292   1.18119   0.00000  Uiso   1.00
H363   H     0.33809   0.24292  -0.18119   0.00000  Uiso   1.00
H364   H     0.83809   0.74292  -0.18119   0.00000  Uiso   1.00
H365   H     0.33809   0.75708  -0.18119   0.00000  Uiso   1.00
H366   H     0.83809   0.25708  -0.18119   0.00000  Uiso   1.00
H367   H     0.66191   0.75708   1.18119   0.00000  Uiso   1.00
H368   H     0.16191   0.25708   1.18119   0.00000  Uiso   1.00
H369   H     0.68528   0.20505   1.22539   0.00000  Uiso   1.00
H370   H     0.18528   0.70505   1.22539   0.00000  Uiso   1.00
H371   H     0.31472   0.20505  -0.22539   0.00000  Uiso   1.00
H372   H     0.81472   0.70505  -0.22539   0.00000  Uiso   1.00
H373   H     0.31472   0.79495  -0.22539   0.00000  Uiso   1.00
H374   H     0.81472   0.29495  -0.22539   0.00000  Uiso   1.00
H375   H     0.68528   0.79495   1.22539   0.00000  Uiso   1.00
H376   H     0.18528   0.29495   1.22539   0.00000  Uiso   1.00
H377   H     0.68045   0.19500   0.81029   0.00000  Uiso   1.00
H378   H     0.18045   0.69500   0.81029   0.00000  Uiso   1.00
H379   H     0.31955   0.19500   0.18971   0.00000  Uiso   1.00
H380   H     0.81955   0.69500   0.18971   0.00000  Uiso   1.00
H381   H     0.31955   0.80500   0.18971   0.00000  Uiso   1.00
H382   H     0.81955   0.30500   0.18971   0.00000  Uiso   1.00
H383   H     0.68045   0.80500   0.81029   0.00000  Uiso   1.00
H384   H     0.18045   0.30500   0.81029   0.00000  Uiso   1.00
H385   H     0.63318   0.19701   1.06397   0.00000  Uiso   1.00
H386   H     0.13318   0.69701   1.06397   0.00000  Uiso   1.00
H387   H     0.36682   0.19701  -0.06397   0.00000  Uiso   1.00
H388   H     0.86682   0.69701  -0.06397   0.00000  Uiso   1.00
H389   H     0.36682   0.80299  -0.06397   0.00000  Uiso   1.00
H390   H     0.86682   0.30299  -0.06397   0.00000  Uiso   1.00
H391   H     0.63318   0.80299   1.06397   0.00000  Uiso   1.00
H392   H     0.13318   0.30299   1.06397   0.00000  Uiso   1.00
H393   H     0.63751   0.20658   1.48503   0.00000  Uiso   1.00
H394   H     0.13751   0.70658   1.48503   0.00000  Uiso   1.00
H395   H     0.36249   0.20658  -0.48503   0.00000  Uiso   1.00
H396   H     0.86250   0.70658  -0.48503   0.00000  Uiso   1.00
H397   H     0.36249   0.79342  -0.48503   0.00000  Uiso   1.00
H398   H     0.86250   0.29342  -0.48503   0.00000  Uiso   1.00
H399   H     0.63751   0.79342   1.48503   0.00000  Uiso   1.00
H400   H     0.13751   0.29342   1.48503   0.00000  Uiso   1.00
H401   H     0.66364   0.16745   1.48401   0.00000  Uiso   1.00
H402   H     0.16364   0.66745   1.48401   0.00000  Uiso   1.00
H403   H     0.33636   0.16745  -0.48401   0.00000  Uiso   1.00
H404   H     0.83636   0.66745  -0.48401   0.00000  Uiso   1.00
H405   H     0.33636   0.83255  -0.48401   0.00000  Uiso   1.00
H406   H     0.83636   0.33255  -0.48401   0.00000  Uiso   1.00
H407   H     0.66364   0.83255   1.48401   0.00000  Uiso   1.00
H408   H     0.16364   0.33255   1.48401   0.00000  Uiso   1.00
H409   H     0.65302   0.15831   1.10083   0.00000  Uiso   1.00
H410   H     0.15302   0.65831   1.10083   0.00000  Uiso   1.00
H411   H     0.34698   0.15831  -0.10083   0.00000  Uiso   1.00
H412   H     0.84698   0.65831  -0.10083   0.00000  Uiso   1.00
H413   H     0.34698   0.84169  -0.10083   0.00000  Uiso   1.00
H414   H     0.84698   0.34169  -0.10083   0.00000  Uiso   1.00
H415   H     0.65302   0.84169   1.10083   0.00000  Uiso   1.00
H416   H     0.15302   0.34169   1.10083   0.00000  Uiso   1.00
H417   H     0.63059   0.16354   1.52656   0.00000  Uiso   1.00
H418   H     0.13059   0.66354   1.52656   0.00000  Uiso   1.00
H419   H     0.36941   0.16354  -0.52656   0.00000  Uiso   1.00
H420   H     0.86941   0.66354  -0.52656   0.00000  Uiso   1.00
H421   H     0.36941   0.83646  -0.52656   0.00000  Uiso   1.00
H422   H     0.86941   0.33646  -0.52656   0.00000  Uiso   1.00
H423   H     0.63059   0.83646   1.52656   0.00000  Uiso   1.00
H424   H     0.13059   0.33646   1.52656   0.00000  Uiso   1.00
C425   C     0.48737   0.50000   0.48490   0.00000  Uiso   1.00
C426   C     0.98737   0.00000   0.48490   0.00000  Uiso   1.00
C427   C     0.51263   0.50000   0.51510   0.00000  Uiso   1.00
C428   C     0.01263   0.00000   0.51510   0.00000  Uiso   1.00
C429   C     0.43773   0.50000   0.42934   0.00000  Uiso   1.00
C430   C     0.93773   0.00000   0.42934   0.00000  Uiso   1.00
C431   C     0.56227   0.50000   0.57066   0.00000  Uiso   1.00
C432   C     0.06227   0.00000   0.57066   0.00000  Uiso   1.00
H433   H     0.41867   0.50000   0.40169   0.00000  Uiso   1.00
H434   H     0.91867   0.00000   0.40169   0.00000  Uiso   1.00
H435   H     0.58133   0.50000   0.59831   0.00000  Uiso   1.00
H436   H     0.08133   0.00000   0.59831   0.00000  Uiso   1.00
loop_
_geom_bond_atom_site_label_1
_geom_bond_atom_site_label_2
_geom_bond_distance
_geom_bond_site_symmetry_2
_ccdc_geom_bond_type
C1     C9      1.420   .     S
C1     C25     1.492   .     S
C1     C429    1.396   .     D
C2     C10     1.420   .     S
C2     C26     1.492   .     S
C2     C430    1.396   .     D
C3     C11     1.420   .     S
C3     C27     1.492   .     D
C3     C431    1.396   .     S
C4     C12     1.420   .     S
C4     C28     1.492   .     D
C4     C432    1.396   .     S
C5     C13     1.420   .     S
C5     C29     1.492   .     S
C5     C431    1.396   .     D
C6     C14     1.420   .     S
C6     C30     1.492   .     S
C6     C432    1.396   1_565 D
C7     C15     1.420   .     S
C7     C31     1.492   .     D
C7     C429    1.396   .     S
C8     C16     1.420   .     S
C8     C32     1.492   .     D
C8     C430    1.396   1_565 S
C9     C17     1.402   .     D
C9     C425    1.421   .     S
C10    C18     1.402   .     D
C10    C426    1.421   .     S
C11    C19     1.402   .     D
C11    C427    1.421   .     S
C12    C20     1.402   .     D
C12    C428    1.421   .     S
C13    C21     1.402   .     S
C13    C427    1.421   .     D
C14    C22     1.402   .     S
C14    C428    1.421   1_565 D
C15    C23     1.402   .     S
C15    C425    1.421   .     D
C16    C24     1.402   .     S
C16    C426    1.421   1_565 D
C17    C19     1.383   .     S
C17    H33     1.074   .     S
C18    C20     1.383   1_655 S
C18    H34     1.074   .     S
C19    H35     1.074   .     S
C20    C18     1.383   1_455 S
C20    H36     1.074   .     S
C21    C23     1.383   .     D
C21    H37     1.074   .     S
C22    C24     1.383   1_455 D
C22    H38     1.074   .     S
C23    H39     1.074   .     S
C24    C22     1.383   1_655 D
C24    H40     1.074   .     S
C25    C43     1.404   .     S
C25    C75     1.409   .     D
C26    C44     1.404   .     S
C26    C76     1.409   .     D
C27    C41     1.404   .     S
C27    C73     1.409   .     S
C28    C42     1.404   .     S
C28    C74     1.409   .     S
C29    C47     1.404   .     D
C29    C79     1.409   .     S
C30    C48     1.404   .     D
C30    C80     1.409   .     S
C31    C45     1.404   .     S
C31    C77     1.409   .     S
C32    C46     1.404   .     S
C32    C78     1.409   .     S
C41    C49     1.396   .     D
C41    H97     1.075   .     S
C42    C50     1.396   .     D
C42    H98     1.075   .     S
C43    C51     1.396   .     D
C43    H99     1.075   .     S
C44    C52     1.396   .     D
C44    H100    1.075   .     S
C45    C53     1.396   .     D
C45    H101    1.075   .     S
C46    C54     1.396   .     D
C46    H102    1.075   .     S
C47    C55     1.396   .     S
C47    H103    1.075   .     S
C48    C56     1.396   .     S
C48    H104    1.075   .     S
C49    C57     1.402   .     S
C49    H105    1.081   .     S
C50    C58     1.402   .     S
C50    H106    1.081   .     S
C51    C59     1.402   .     S
C51    H107    1.081   .     S
C52    C60     1.402   .     S
C52    H108    1.081   .     S
C53    C61     1.402   .     S
C53    H109    1.081   .     S
C54    C62     1.402   .     S
C54    H110    1.081   .     S
C55    C63     1.402   .     D
C55    H111    1.081   .     S
C56    C64     1.402   .     D
C56    H112    1.081   .     S
C57    C65     1.394   .     S
C57    N81     1.428   .     D
C58    C66     1.394   .     S
C58    N82     1.428   .     D
C59    C67     1.394   .     D
C59    N83     1.428   .     S
C60    C68     1.394   .     D
C60    N84     1.428   .     S
C61    C69     1.394   .     S
C61    N85     1.428   .     D
C62    C70     1.394   .     S
C62    N86     1.428   .     D
C63    C71     1.394   .     S
C63    N87     1.428   .     S
C64    C72     1.394   .     S
C64    N88     1.428   .     S
C65    C73     1.396   .     D
C65    H113    1.082   .     S
C66    C74     1.396   .     D
C66    H114    1.082   .     S
C67    C75     1.396   .     S
C67    H115    1.082   .     S
C68    C76     1.396   .     S
C68    H116    1.082   .     S
C69    C77     1.396   .     D
C69    H117    1.082   .     S
C70    C78     1.396   .     D
C70    H118    1.082   .     S
C71    C79     1.396   .     D
C71    H119    1.082   .     S
C72    C80     1.396   .     D
C72    H120    1.082   .     S
C73    H121    1.083   .     S
C74    H122    1.083   .     S
C75    H123    1.083   .     S
C76    H124    1.083   .     S
C77    H125    1.083   .     S
C78    H126    1.083   .     S
C79    H127    1.083   .     S
C80    H128    1.083   .     S
N81    C89     1.298   .     S
N82    C90     1.298   .     S
N83    C91     1.298   .     D
N84    C92     1.298   .     D
N85    C93     1.298   .     S
N86    C94     1.298   .     S
N87    C95     1.298   .     D
N88    C96     1.298   .     D
C89    H129    1.083   .     S
C89    C137    1.469   .     D
C90    H130    1.083   .     S
C90    C138    1.469   .     D
C91    H131    1.083   .     S
C91    C139    1.469   .     S
C92    H132    1.083   .     S
C92    C140    1.469   .     S
C93    H133    1.083   .     S
C93    C141    1.469   .     D
C94    H134    1.083   .     S
C94    C142    1.469   .     D
C95    H135    1.083   .     S
C95    C143    1.469   .     S
C96    H136    1.083   .     S
C96    C144    1.469   .     S
C137   C145    1.401   .     S
C137   C177    1.403   .     S
C138   C146    1.401   .     S
C138   C178    1.403   .     S
C139   C147    1.401   .     S
C139   C179    1.403   .     D
C140   C148    1.401   .     S
C140   C180    1.403   .     D
C141   C149    1.401   .     S
C141   C181    1.403   .     S
C142   C150    1.401   .     S
C142   C182    1.403   .     S
C143   C151    1.401   .     D
C143   C183    1.403   .     S
C144   C152    1.401   .     D
C144   C184    1.403   .     S
C145   C153    1.397   .     D
C145   H297    1.083   .     S
C146   C154    1.397   .     D
C146   H298    1.083   .     S
C147   C155    1.397   .     D
C147   H299    1.083   .     S
C148   C156    1.397   .     D
C148   H300    1.083   .     S
C149   C157    1.397   .     D
C149   H301    1.083   .     S
C150   C158    1.397   .     D
C150   H302    1.083   .     S
C151   C159    1.397   .     S
C151   H303    1.083   .     S
C152   C160    1.397   .     S
C152   H304    1.083   .     S
C153   C161    1.406   .     S
C153   H305    1.082   .     S
C154   C162    1.406   .     S
C154   H306    1.082   .     S
C155   C163    1.406   .     S
C155   H307    1.082   .     S
C156   C164    1.406   .     S
C156   H308    1.082   .     S
C157   C165    1.406   .     S
C157   H309    1.082   .     S
C158   C166    1.406   .     S
C158   H310    1.082   .     S
C159   C167    1.406   .     D
C159   H311    1.082   .     S
C160   C168    1.406   .     D
C160   H312    1.082   .     S
C161   C169    1.403   .     S
C161   C185    1.478   .     D
C162   C170    1.403   .     S
C162   C186    1.478   .     D
C163   C171    1.403   .     D
C163   C187    1.478   .     S
C164   C172    1.403   .     D
C164   C188    1.477   .     S
C165   C173    1.403   .     S
C165   C189    1.478   .     D
C166   C174    1.403   .     S
C166   C190    1.477   .     D
C167   C175    1.403   .     S
C167   C191    1.478   .     S
C168   C176    1.403   .     S
C168   C192    1.478   .     S
C169   C177    1.393   .     D
C169   H313    1.083   .     S
C170   C178    1.393   .     D
C170   H314    1.083   .     S
C171   C179    1.393   .     S
C171   H315    1.083   .     S
C172   C180    1.393   .     S
C172   H316    1.083   .     S
C173   C181    1.393   .     D
C173   H317    1.083   .     S
C174   C182    1.393   .     D
C174   H318    1.083   .     S
C175   C183    1.393   .     D
C175   H319    1.083   .     S
C176   C184    1.393   .     D
C176   H320    1.083   .     S
C177   H321    1.083   .     S
C178   H322    1.083   .     S
C179   H323    1.083   .     S
C180   H324    1.083   .     S
C181   H325    1.083   .     S
C182   H326    1.083   .     S
C183   H327    1.083   .     S
C184   H328    1.083   .     S
C185   C193    1.413   .     S
C185   C225    1.408   .     S
C186   C194    1.413   .     S
C186   C226    1.408   .     S
C187   C195    1.413   .     S
C187   C227    1.408   .     D
C188   C196    1.413   .     S
C188   C228    1.408   .     D
C189   C197    1.413   .     S
C189   C229    1.408   .     S
C190   C198    1.413   .     S
C190   C230    1.408   .     S
C191   C199    1.413   .     D
C191   C231    1.408   .     S
C192   C200    1.413   .     D
C192   C232    1.408   .     S
C193   C201    1.400   .     D
C193   H329    1.083   .     S
C194   C202    1.400   .     D
C194   H330    1.083   .     S
C195   C203    1.400   .     D
C195   H331    1.083   .     S
C196   C204    1.400   .     D
C196   H332    1.083   .     S
C197   C205    1.400   .     D
C197   H333    1.083   .     S
C198   C206    1.400   .     D
C198   H334    1.083   .     S
C199   C207    1.400   .     S
C199   H335    1.083   .     S
C200   C208    1.400   .     S
C200   H336    1.083   .     S
C201   C209    1.399   .     S
C201   H337    1.080   .     S
C202   C210    1.398   .     S
C202   H338    1.080   .     S
C203   C211    1.399   .     S
C203   H339    1.080   .     S
C204   C212    1.398   .     S
C204   H340    1.080   .     S
C205   C213    1.398   .     S
C205   H341    1.080   .     S
C206   C214    1.398   .     S
C206   H342    1.080   .     S
C207   C215    1.398   .     D
C207   H343    1.080   .     S
C208   C216    1.398   .     D
C208   H344    1.080   .     S
C209   C217    1.381   .     S
C209   C255    1.470   .     D
C210   C218    1.381   .     S
C210   C256    1.470   .     D
C211   C219    1.381   .     D
C211   C253    1.470   .     S
C212   C220    1.381   .     D
C212   C254    1.470   .     S
C213   C221    1.381   .     S
C213   C251    1.470   .     D
C214   C222    1.381   .     S
C214   C252    1.470   .     D
C215   C223    1.381   .     S
C215   C249    1.470   .     S
C216   C224    1.381   .     S
C216   C250    1.470   .     S
C217   C225    1.393   .     D
C217   N239    1.424   .     S
C218   C226    1.393   .     D
C218   N240    1.424   .     S
C219   C227    1.393   .     S
C219   N237    1.424   .     S
C220   C228    1.393   .     S
C220   N238    1.424   .     S
C221   C229    1.393   .     D
C221   N235    1.424   .     S
C222   C230    1.393   .     D
C222   N236    1.424   .     S
C223   C231    1.393   .     D
C223   N233    1.424   .     S
C224   C232    1.393   .     D
C224   N234    1.424   .     S
C225   H345    1.080   .     S
C226   H346    1.080   .     S
C227   H347    1.080   .     S
C228   H348    1.080   .     S
C229   H349    1.080   .     S
C230   H350    1.080   .     S
C231   H351    1.080   .     S
C232   H352    1.080   .     S
N233   C241    1.370   .     S
N233   C265    1.474   .     S
N234   C242    1.370   .     S
N234   C266    1.474   .     S
N235   C243    1.370   .     S
N235   C267    1.474   .     S
N236   C244    1.370   .     S
N236   C268    1.474   .     S
N237   C245    1.370   .     S
N237   C269    1.474   .     S
N238   C246    1.370   .     S
N238   C270    1.474   .     S
N239   C247    1.370   .     S
N239   C271    1.474   .     S
N240   C248    1.370   .     S
N240   C272    1.474   .     S
C241   C249    1.475   .     S
C241   O257    1.216   .     D
C242   C250    1.475   .     S
C242   O258    1.216   .     D
C243   C251    1.475   .     S
C243   O259    1.216   .     D
C244   C252    1.475   .     S
C244   O260    1.216   .     D
C245   C253    1.475   .     S
C245   O261    1.216   .     D
C246   C254    1.475   .     S
C246   O262    1.216   .     D
C247   C255    1.475   .     S
C247   O263    1.216   .     D
C248   C256    1.475   .     S
C248   O264    1.216   .     D
C249   C254    1.356   .     D
C250   C253    1.356   .     D
C251   C256    1.356   .     S
C252   C255    1.356   .     S
C265   C273    1.533   .     S
C265   H353    1.104   .     S
C265   H361    1.110   .     S
C266   C274    1.533   .     S
C266   H354    1.104   .     S
C266   H362    1.110   .     S
C267   C275    1.533   .     S
C267   H355    1.104   .     S
C267   H363    1.110   .     S
C268   C276    1.533   .     S
C268   H356    1.104   .     S
C268   H364    1.110   .     S
C269   C277    1.533   .     S
C269   H357    1.104   .     S
C269   H365    1.110   .     S
C270   C278    1.533   .     S
C270   H358    1.104   .     S
C270   H366    1.110   .     S
C271   C279    1.533   .     S
C271   H359    1.104   .     S
C271   H367    1.110   .     S
C272   C280    1.533   .     S
C272   H360    1.104   .     S
C272   H368    1.110   .     S
C273   C281    1.535   .     S
C273   H369    1.113   .     S
C273   H377    1.107   .     S
C274   C282    1.535   .     S
C274   H370    1.113   .     S
C274   H378    1.107   .     S
C275   C283    1.535   .     S
C275   H371    1.113   .     S
C275   H379    1.107   .     S
C276   C284    1.535   .     S
C276   H372    1.113   .     S
C276   H380    1.107   .     S
C277   C285    1.535   .     S
C277   H373    1.113   .     S
C277   H381    1.107   .     S
C278   C286    1.535   .     S
C278   H374    1.113   .     S
C278   H382    1.107   .     S
C279   C287    1.535   .     S
C279   H375    1.113   .     S
C279   H383    1.107   .     S
C280   C288    1.535   .     S
C280   H376    1.113   .     S
C280   H384    1.107   .     S
C281   C289    1.529   .     S
C281   H385    1.111   .     S
C281   H393    1.108   .     S
C282   C290    1.529   .     S
C282   H386    1.111   .     S
C282   H394    1.108   .     S
C283   C291    1.529   .     S
C283   H387    1.111   .     S
C283   H395    1.108   .     S
C284   C292    1.529   .     S
C284   H388    1.111   .     S
C284   H396    1.108   .     S
C285   C293    1.529   .     S
C285   H389    1.111   .     S
C285   H397    1.108   .     S
C286   C294    1.529   .     S
C286   H390    1.111   .     S
C286   H398    1.108   .     S
C287   C295    1.529   .     S
C287   H391    1.111   .     S
C287   H399    1.108   .     S
C288   C296    1.529   .     S
C288   H392    1.111   .     S
C288   H400    1.108   .     S
C289   H401    1.109   .     S
C289   H409    1.110   .     S
C289   H417    1.112   .     S
C290   H402    1.109   .     S
C290   H410    1.110   .     S
C290   H418    1.112   .     S
C291   H403    1.109   .     S
C291   H411    1.110   .     S
C291   H419    1.112   .     S
C292   H404    1.109   .     S
C292   H412    1.110   .     S
C292   H420    1.112   .     S
C293   H405    1.109   .     S
C293   H413    1.110   .     S
C293   H421    1.112   .     S
C294   H406    1.109   .     S
C294   H414    1.110   .     S
C294   H422    1.112   .     S
C295   H407    1.109   .     S
C295   H415    1.110   .     S
C295   H423    1.112   .     S
C296   H408    1.109   .     S
C296   H416    1.110   .     S
C296   H424    1.112   .     S
C425   C427    1.429   .     S
C426   C16     1.421   1_545 D
C426   C428    1.429   1_655 S
C428   C14     1.421   1_545 D
C428   C426    1.429   1_455 S
C429   H433    1.084   .     S
C430   C8      1.396   1_545 S
C430   H434    1.084   .     S
C431   H435    1.084   .     S
C432   C6      1.396   1_545 D
C432   H436    1.084   .     S
