data_403
_audit_creation_date              2023-09-08
_audit_creation_method            'Materials Studio'
_symmetry_space_group_name_H-M    'P1'
_symmetry_Int_Tables_number       1
_symmetry_cell_setting            triclinic
loop_
_symmetry_equiv_pos_as_xyz
  x,y,z
_cell_length_a                    52.8000
_cell_length_b                    53.7000
_cell_length_c                    3.8300
_cell_angle_alpha                 90.0000
_cell_angle_beta                  75.0000
_cell_angle_gamma                 90.0000
loop_
_atom_site_label
_atom_site_type_symbol
_atom_site_fract_x
_atom_site_fract_y
_atom_site_fract_z
_atom_site_U_iso_or_equiv
_atom_site_adp_type
_atom_site_occupancy
C1     C     0.44605   0.52278   0.49620   0.00000  Uiso   1.00
C2     C     0.94605   0.02278   0.49620   0.00000  Uiso   1.00
C3     C     0.55395   0.52278   0.50380   0.00000  Uiso   1.00
C4     C     0.05395   0.02278   0.50380   0.00000  Uiso   1.00
C5     C     0.55395   0.47721   0.50380   0.00000  Uiso   1.00
C6     C     0.05395   0.97721   0.50380   0.00000  Uiso   1.00
C7     C     0.44605   0.47721   0.49620   0.00000  Uiso   1.00
C8     C     0.94605   0.97721   0.49620   0.00000  Uiso   1.00
C9     C     0.47303   0.52286   0.49561   0.00000  Uiso   1.00
C10    C     0.97303   0.02286   0.49560   0.00000  Uiso   1.00
C11    C     0.52698   0.52286   0.50440   0.00000  Uiso   1.00
C12    C     0.02698   0.02286   0.50439   0.00000  Uiso   1.00
C13    C     0.52698   0.47714   0.50440   0.00000  Uiso   1.00
C14    C     0.02698   0.97714   0.50439   0.00000  Uiso   1.00
C15    C     0.47303   0.47714   0.49561   0.00000  Uiso   1.00
C16    C     0.97303   0.97714   0.49560   0.00000  Uiso   1.00
C17    C     0.48690   0.54506   0.50142   0.00000  Uiso   1.00
C18    C     0.98690   0.04506   0.50142   0.00000  Uiso   1.00
C19    C     0.51310   0.54506   0.49858   0.00000  Uiso   1.00
C20    C     0.01310   0.04506   0.49858   0.00000  Uiso   1.00
C21    C     0.51310   0.45494   0.49858   0.00000  Uiso   1.00
C22    C     0.01310   0.95494   0.49858   0.00000  Uiso   1.00
C23    C     0.48690   0.45494   0.50142   0.00000  Uiso   1.00
C24    C     0.98690   0.95494   0.50142   0.00000  Uiso   1.00
C25    C     0.42973   0.54578   0.52297   0.00000  Uiso   1.00
C26    C     0.92973   0.04578   0.52297   0.00000  Uiso   1.00
C27    C     0.57026   0.54578   0.47703   0.00000  Uiso   1.00
C28    C     0.07027   0.04578   0.47703   0.00000  Uiso   1.00
C29    C     0.57026   0.45422   0.47703   0.00000  Uiso   1.00
C30    C     0.07027   0.95422   0.47703   0.00000  Uiso   1.00
C31    C     0.42973   0.45422   0.52297   0.00000  Uiso   1.00
C32    C     0.92973   0.95422   0.52297   0.00000  Uiso   1.00
H33    H     0.47803   0.56312   0.51094   0.00000  Uiso   1.00
H34    H     0.97803   0.06312   0.51094   0.00000  Uiso   1.00
H35    H     0.52197   0.56312   0.48906   0.00000  Uiso   1.00
H36    H     0.02197   0.06312   0.48906   0.00000  Uiso   1.00
H37    H     0.52197   0.43688   0.48906   0.00000  Uiso   1.00
H38    H     0.02197   0.93688   0.48906   0.00000  Uiso   1.00
H39    H     0.47803   0.43688   0.51094   0.00000  Uiso   1.00
H40    H     0.97803   0.93688   0.51094   0.00000  Uiso   1.00
C41    C     0.56173   0.56629   0.70281   0.00000  Uiso   1.00
C42    C     0.06173   0.06629   0.70281   0.00000  Uiso   1.00
C43    C     0.43827   0.56629   0.29719   0.00000  Uiso   1.00
C44    C     0.93827   0.06629   0.29719   0.00000  Uiso   1.00
C45    C     0.43827   0.43371   0.29719   0.00000  Uiso   1.00
C46    C     0.93827   0.93371   0.29719   0.00000  Uiso   1.00
C47    C     0.56173   0.43371   0.70281   0.00000  Uiso   1.00
C48    C     0.06173   0.93371   0.70281   0.00000  Uiso   1.00
C49    C     0.57612   0.58830   0.65973   0.00000  Uiso   1.00
C50    C     0.07612   0.08830   0.65973   0.00000  Uiso   1.00
C51    C     0.42388   0.58830   0.34027   0.00000  Uiso   1.00
C52    C     0.92388   0.08830   0.34027   0.00000  Uiso   1.00
C53    C     0.42388   0.41170   0.34027   0.00000  Uiso   1.00
C54    C     0.92388   0.91170   0.34027   0.00000  Uiso   1.00
C55    C     0.57612   0.41170   0.65973   0.00000  Uiso   1.00
C56    C     0.07612   0.91170   0.65973   0.00000  Uiso   1.00
C57    C     0.60015   0.58996   0.39721   0.00000  Uiso   1.00
C58    C     0.10015   0.08996   0.39721   0.00000  Uiso   1.00
C59    C     0.39985   0.58996   0.60279   0.00000  Uiso   1.00
C60    C     0.89985   0.08996   0.60279   0.00000  Uiso   1.00
C61    C     0.39985   0.41004   0.60279   0.00000  Uiso   1.00
C62    C     0.89985   0.91004   0.60279   0.00000  Uiso   1.00
C63    C     0.60015   0.41004   0.39721   0.00000  Uiso   1.00
C64    C     0.10015   0.91004   0.39721   0.00000  Uiso   1.00
C65    C     0.60994   0.56893   0.19135   0.00000  Uiso   1.00
C66    C     0.10994   0.06893   0.19135   0.00000  Uiso   1.00
C67    C     0.39006   0.56893   0.80865   0.00000  Uiso   1.00
C68    C     0.89006   0.06893   0.80865   0.00000  Uiso   1.00
C69    C     0.39006   0.43106   0.80865   0.00000  Uiso   1.00
C70    C     0.89006   0.93106   0.80865   0.00000  Uiso   1.00
C71    C     0.60994   0.43106   0.19135   0.00000  Uiso   1.00
C72    C     0.10994   0.93106   0.19135   0.00000  Uiso   1.00
C73    C     0.59505   0.54706   0.22748   0.00000  Uiso   1.00
C74    C     0.09505   0.04705   0.22748   0.00000  Uiso   1.00
C75    C     0.40495   0.54706   0.77252   0.00000  Uiso   1.00
C76    C     0.90495   0.04705   0.77252   0.00000  Uiso   1.00
C77    C     0.40495   0.45294   0.77252   0.00000  Uiso   1.00
C78    C     0.90495   0.95294   0.77252   0.00000  Uiso   1.00
C79    C     0.59505   0.45294   0.22748   0.00000  Uiso   1.00
C80    C     0.09505   0.95294   0.22748   0.00000  Uiso   1.00
N81    N     0.61548   0.61233   0.34319   0.00000  Uiso   1.00
N82    N     0.11548   0.11233   0.34319   0.00000  Uiso   1.00
N83    N     0.38452   0.61233   0.65681   0.00000  Uiso   1.00
N84    N     0.88452   0.11233   0.65681   0.00000  Uiso   1.00
N85    N     0.38452   0.38767   0.65681   0.00000  Uiso   1.00
N86    N     0.88452   0.88767   0.65681   0.00000  Uiso   1.00
N87    N     0.61548   0.38767   0.34319   0.00000  Uiso   1.00
N88    N     0.11548   0.88767   0.34319   0.00000  Uiso   1.00
C89    C     0.60638   0.63449   0.43817   0.00000  Uiso   1.00
C90    C     0.10638   0.13449   0.43817   0.00000  Uiso   1.00
C91    C     0.39363   0.63449   0.56183   0.00000  Uiso   1.00
C92    C     0.89363   0.13449   0.56183   0.00000  Uiso   1.00
C93    C     0.39363   0.36551   0.56183   0.00000  Uiso   1.00
C94    C     0.89363   0.86551   0.56183   0.00000  Uiso   1.00
C95    C     0.60638   0.36551   0.43817   0.00000  Uiso   1.00
C96    C     0.10638   0.86551   0.43817   0.00000  Uiso   1.00
H97    H     0.54374   0.56537   0.91176   0.00000  Uiso   1.00
H98    H     0.04374   0.06537   0.91176   0.00000  Uiso   1.00
H99    H     0.45626   0.56537   0.08824   0.00000  Uiso   1.00
H100   H     0.95626   0.06537   0.08824   0.00000  Uiso   1.00
H101   H     0.45626   0.43463   0.08824   0.00000  Uiso   1.00
H102   H     0.95626   0.93463   0.08824   0.00000  Uiso   1.00
H103   H     0.54374   0.43463   0.91176   0.00000  Uiso   1.00
H104   H     0.04374   0.93463   0.91176   0.00000  Uiso   1.00
H105   H     0.56884   0.60354   0.84198   0.00000  Uiso   1.00
H106   H     0.06884   0.10354   0.84198   0.00000  Uiso   1.00
H107   H     0.43116   0.60354   0.15802   0.00000  Uiso   1.00
H108   H     0.93116   0.10354   0.15802   0.00000  Uiso   1.00
H109   H     0.43116   0.39646   0.15802   0.00000  Uiso   1.00
H110   H     0.93116   0.89646   0.15802   0.00000  Uiso   1.00
H111   H     0.56884   0.39646   0.84198   0.00000  Uiso   1.00
H112   H     0.06884   0.89646   0.84198   0.00000  Uiso   1.00
H113   H     0.62864   0.57000  -0.00789   0.00000  Uiso   1.00
H114   H     0.12864   0.07001  -0.00789   0.00000  Uiso   1.00
H115   H     0.37136   0.57000   1.00789   0.00000  Uiso   1.00
H116   H     0.87136   0.07001   1.00789   0.00000  Uiso   1.00
H117   H     0.37136   0.42999   1.00789   0.00000  Uiso   1.00
H118   H     0.87136   0.92999   1.00789   0.00000  Uiso   1.00
H119   H     0.62864   0.42999  -0.00789   0.00000  Uiso   1.00
H120   H     0.12864   0.92999  -0.00789   0.00000  Uiso   1.00
H121   H     0.60241   0.53148   0.05063   0.00000  Uiso   1.00
H122   H     0.10241   0.03148   0.05063   0.00000  Uiso   1.00
H123   H     0.39759   0.53148   0.94937   0.00000  Uiso   1.00
H124   H     0.89759   0.03148   0.94937   0.00000  Uiso   1.00
H125   H     0.39759   0.46852   0.94937   0.00000  Uiso   1.00
H126   H     0.89759   0.96852   0.94937   0.00000  Uiso   1.00
H127   H     0.60241   0.46852   0.05063   0.00000  Uiso   1.00
H128   H     0.10241   0.96852   0.05063   0.00000  Uiso   1.00
H129   H     0.58571   0.63754   0.55822   0.00000  Uiso   1.00
H130   H     0.08571   0.13754   0.55822   0.00000  Uiso   1.00
H131   H     0.41429   0.63754   0.44178   0.00000  Uiso   1.00
H132   H     0.91429   0.13754   0.44178   0.00000  Uiso   1.00
H133   H     0.41429   0.36246   0.44178   0.00000  Uiso   1.00
H134   H     0.91429   0.86246   0.44178   0.00000  Uiso   1.00
H135   H     0.58571   0.36246   0.55822   0.00000  Uiso   1.00
H136   H     0.08571   0.86246   0.55822   0.00000  Uiso   1.00
C137   C     0.62411   0.65595   0.40177   0.00000  Uiso   1.00
C138   C     0.12411   0.15595   0.40177   0.00000  Uiso   1.00
C139   C     0.37589   0.65595   0.59823   0.00000  Uiso   1.00
C140   C     0.87589   0.15595   0.59823   0.00000  Uiso   1.00
C141   C     0.37589   0.34405   0.59823   0.00000  Uiso   1.00
C142   C     0.87589   0.84405   0.59823   0.00000  Uiso   1.00
C143   C     0.62411   0.34405   0.40177   0.00000  Uiso   1.00
C144   C     0.12411   0.84405   0.40177   0.00000  Uiso   1.00
C145   C     0.61495   0.67815   0.58289   0.00000  Uiso   1.00
C146   C     0.11495   0.17815   0.58289   0.00000  Uiso   1.00
C147   C     0.38505   0.67815   0.41711   0.00000  Uiso   1.00
C148   C     0.88505   0.17815   0.41711   0.00000  Uiso   1.00
C149   C     0.38505   0.32185   0.41711   0.00000  Uiso   1.00
C150   C     0.88505   0.82185   0.41711   0.00000  Uiso   1.00
C151   C     0.61495   0.32185   0.58289   0.00000  Uiso   1.00
C152   C     0.11495   0.82185   0.58289   0.00000  Uiso   1.00
C153   C     0.63213   0.69791   0.58250   0.00000  Uiso   1.00
C154   C     0.13213   0.19791   0.58250   0.00000  Uiso   1.00
C155   C     0.36787   0.69791   0.41750   0.00000  Uiso   1.00
C156   C     0.86787   0.19791   0.41750   0.00000  Uiso   1.00
C157   C     0.36787   0.30209   0.41750   0.00000  Uiso   1.00
C158   C     0.86787   0.80209   0.41750   0.00000  Uiso   1.00
C159   C     0.63213   0.30209   0.58250   0.00000  Uiso   1.00
C160   C     0.13213   0.80209   0.58250   0.00000  Uiso   1.00
C161   C     0.65878   0.69590   0.39663   0.00000  Uiso   1.00
C162   C     0.15878   0.19590   0.39663   0.00000  Uiso   1.00
C163   C     0.34122   0.69590   0.60337   0.00000  Uiso   1.00
C164   C     0.84122   0.19590   0.60337   0.00000  Uiso   1.00
C165   C     0.34122   0.30410   0.60337   0.00000  Uiso   1.00
C166   C     0.84122   0.80410   0.60337   0.00000  Uiso   1.00
C167   C     0.65878   0.30410   0.39663   0.00000  Uiso   1.00
C168   C     0.15878   0.80410   0.39663   0.00000  Uiso   1.00
C169   C     0.66750   0.67406   0.19925   0.00000  Uiso   1.00
C170   C     0.16750   0.17406   0.19925   0.00000  Uiso   1.00
C171   C     0.33250   0.67406   0.80075   0.00000  Uiso   1.00
C172   C     0.83250   0.17406   0.80075   0.00000  Uiso   1.00
C173   C     0.33250   0.32594   0.80075   0.00000  Uiso   1.00
C174   C     0.83250   0.82594   0.80075   0.00000  Uiso   1.00
C175   C     0.66750   0.32594   0.19925   0.00000  Uiso   1.00
C176   C     0.16750   0.82594   0.19925   0.00000  Uiso   1.00
C177   C     0.65038   0.65422   0.20347   0.00000  Uiso   1.00
C178   C     0.15038   0.15421   0.20347   0.00000  Uiso   1.00
C179   C     0.34962   0.65422   0.79653   0.00000  Uiso   1.00
C180   C     0.84963   0.15421   0.79653   0.00000  Uiso   1.00
C181   C     0.34962   0.34578   0.79653   0.00000  Uiso   1.00
C182   C     0.84963   0.84578   0.79653   0.00000  Uiso   1.00
C183   C     0.65038   0.34578   0.20347   0.00000  Uiso   1.00
C184   C     0.15038   0.84578   0.20347   0.00000  Uiso   1.00
C185   C     0.67795   0.71545   0.42585   0.00000  Uiso   1.00
C186   C     0.17795   0.21545   0.42586   0.00000  Uiso   1.00
C187   C     0.32205   0.71545   0.57414   0.00000  Uiso   1.00
C188   C     0.82205   0.21545   0.57414   0.00000  Uiso   1.00
C189   C     0.32205   0.28454   0.57414   0.00000  Uiso   1.00
C190   C     0.82205   0.78454   0.57414   0.00000  Uiso   1.00
C191   C     0.67795   0.28454   0.42585   0.00000  Uiso   1.00
C192   C     0.17795   0.78454   0.42586   0.00000  Uiso   1.00
S193   S     0.71121   0.70909   0.33304   0.00000  Uiso   1.00
S194   S     0.21121   0.20909   0.33304   0.00000  Uiso   1.00
S195   S     0.28879   0.70909   0.66696   0.00000  Uiso   1.00
S196   S     0.78879   0.20909   0.66696   0.00000  Uiso   1.00
S197   S     0.28879   0.29091   0.66696   0.00000  Uiso   1.00
S198   S     0.78879   0.79091   0.66696   0.00000  Uiso   1.00
S199   S     0.71121   0.29091   0.33304   0.00000  Uiso   1.00
S200   S     0.21121   0.79091   0.33304   0.00000  Uiso   1.00
C201   C     0.71562   0.73879   0.45616   0.00000  Uiso   1.00
C202   C     0.21562   0.23879   0.45616   0.00000  Uiso   1.00
C203   C     0.28438   0.73879   0.54384   0.00000  Uiso   1.00
C204   C     0.78438   0.23879   0.54384   0.00000  Uiso   1.00
C205   C     0.28438   0.26121   0.54384   0.00000  Uiso   1.00
C206   C     0.78438   0.76121   0.54384   0.00000  Uiso   1.00
C207   C     0.71562   0.26121   0.45616   0.00000  Uiso   1.00
C208   C     0.21562   0.76121   0.45616   0.00000  Uiso   1.00
C209   C     0.69341   0.75199   0.56747   0.00000  Uiso   1.00
C210   C     0.19341   0.25199   0.56747   0.00000  Uiso   1.00
C211   C     0.30659   0.75199   0.43253   0.00000  Uiso   1.00
C212   C     0.80659   0.25199   0.43253   0.00000  Uiso   1.00
C213   C     0.30659   0.24801   0.43253   0.00000  Uiso   1.00
C214   C     0.80659   0.74801   0.43253   0.00000  Uiso   1.00
C215   C     0.69341   0.24801   0.56747   0.00000  Uiso   1.00
C216   C     0.19341   0.74801   0.56747   0.00000  Uiso   1.00
C217   C     0.67120   0.73941   0.55798   0.00000  Uiso   1.00
C218   C     0.17120   0.23941   0.55798   0.00000  Uiso   1.00
C219   C     0.32880   0.73941   0.44202   0.00000  Uiso   1.00
C220   C     0.82880   0.23941   0.44202   0.00000  Uiso   1.00
C221   C     0.32880   0.26059   0.44202   0.00000  Uiso   1.00
C222   C     0.82880   0.76059   0.44202   0.00000  Uiso   1.00
C223   C     0.67120   0.26059   0.55798   0.00000  Uiso   1.00
C224   C     0.17120   0.76059   0.55798   0.00000  Uiso   1.00
N225   N     0.69683   0.22485   0.72680   0.00000  Uiso   1.00
N226   N     0.19683   0.72485   0.72680   0.00000  Uiso   1.00
N227   N     0.30317   0.22485   0.27320   0.00000  Uiso   1.00
N228   N     0.80317   0.72485   0.27320   0.00000  Uiso   1.00
N229   N     0.30317   0.77515   0.27320   0.00000  Uiso   1.00
N230   N     0.80317   0.27515   0.27320   0.00000  Uiso   1.00
N231   N     0.69683   0.77515   0.72680   0.00000  Uiso   1.00
N232   N     0.19683   0.27515   0.72680   0.00000  Uiso   1.00
C233   C     0.72311   0.22461   0.71454   0.00000  Uiso   1.00
C234   C     0.22311   0.72461   0.71454   0.00000  Uiso   1.00
C235   C     0.27689   0.22461   0.28546   0.00000  Uiso   1.00
C236   C     0.77689   0.72461   0.28546   0.00000  Uiso   1.00
C237   C     0.27689   0.77539   0.28546   0.00000  Uiso   1.00
C238   C     0.77689   0.27539   0.28546   0.00000  Uiso   1.00
C239   C     0.72311   0.77539   0.71454   0.00000  Uiso   1.00
C240   C     0.22311   0.27539   0.71454   0.00000  Uiso   1.00
C241   C     0.73717   0.24699   0.53314   0.00000  Uiso   1.00
C242   C     0.23717   0.74699   0.53314   0.00000  Uiso   1.00
C243   C     0.26283   0.24699   0.46686   0.00000  Uiso   1.00
C244   C     0.76283   0.74699   0.46686   0.00000  Uiso   1.00
C245   C     0.26283   0.75301   0.46686   0.00000  Uiso   1.00
C246   C     0.76283   0.25301   0.46686   0.00000  Uiso   1.00
C247   C     0.73717   0.75301   0.53314   0.00000  Uiso   1.00
C248   C     0.23717   0.25301   0.53314   0.00000  Uiso   1.00
O249   O     0.73280   0.20880   0.86598   0.00000  Uiso   1.00
O250   O     0.23280   0.70879   0.86598   0.00000  Uiso   1.00
O251   O     0.26720   0.20880   0.13402   0.00000  Uiso   1.00
O252   O     0.76720   0.70879   0.13402   0.00000  Uiso   1.00
O253   O     0.26720   0.79120   0.13402   0.00000  Uiso   1.00
O254   O     0.76720   0.29120   0.13402   0.00000  Uiso   1.00
O255   O     0.73280   0.79120   0.86598   0.00000  Uiso   1.00
O256   O     0.23280   0.29120   0.86598   0.00000  Uiso   1.00
C257   C     0.67537   0.20816   0.91000   0.00000  Uiso   1.00
C258   C     0.17537   0.70816   0.91000   0.00000  Uiso   1.00
C259   C     0.32463   0.20816   0.09000   0.00000  Uiso   1.00
C260   C     0.82463   0.70816   0.09000   0.00000  Uiso   1.00
C261   C     0.32463   0.79184   0.09000   0.00000  Uiso   1.00
C262   C     0.82463   0.29184   0.09000   0.00000  Uiso   1.00
C263   C     0.67537   0.79184   0.91000   0.00000  Uiso   1.00
C264   C     0.17537   0.29184   0.91000   0.00000  Uiso   1.00
C265   C     0.68517   0.18292   1.00879   0.00000  Uiso   1.00
C266   C     0.18517   0.68292   1.00879   0.00000  Uiso   1.00
C267   C     0.31483   0.18292  -0.00879   0.00000  Uiso   1.00
C268   C     0.81483   0.68292  -0.00879   0.00000  Uiso   1.00
C269   C     0.31483   0.81708  -0.00879   0.00000  Uiso   1.00
C270   C     0.81483   0.31708  -0.00879   0.00000  Uiso   1.00
C271   C     0.68517   0.81708   1.00879   0.00000  Uiso   1.00
C272   C     0.18517   0.31708   1.00879   0.00000  Uiso   1.00
C273   C     0.66235   0.16479   1.14810   0.00000  Uiso   1.00
C274   C     0.16234   0.66478   1.14810   0.00000  Uiso   1.00
C275   C     0.33765   0.16479  -0.14810   0.00000  Uiso   1.00
C276   C     0.83766   0.66478  -0.14810   0.00000  Uiso   1.00
C277   C     0.33765   0.83521  -0.14810   0.00000  Uiso   1.00
C278   C     0.83766   0.33522  -0.14810   0.00000  Uiso   1.00
C279   C     0.66235   0.83521   1.14810   0.00000  Uiso   1.00
C280   C     0.16234   0.33522   1.14810   0.00000  Uiso   1.00
C281   C     0.67267   0.13980   1.24517   0.00000  Uiso   1.00
C282   C     0.17267   0.63980   1.24517   0.00000  Uiso   1.00
C283   C     0.32733   0.13980  -0.24517   0.00000  Uiso   1.00
C284   C     0.82733   0.63980  -0.24517   0.00000  Uiso   1.00
C285   C     0.32733   0.86020  -0.24517   0.00000  Uiso   1.00
C286   C     0.82733   0.36020  -0.24517   0.00000  Uiso   1.00
C287   C     0.67267   0.86020   1.24517   0.00000  Uiso   1.00
C288   C     0.17267   0.36020   1.24517   0.00000  Uiso   1.00
H289   H     0.59474   0.67977   0.73863   0.00000  Uiso   1.00
H290   H     0.09474   0.17977   0.73863   0.00000  Uiso   1.00
H291   H     0.40526   0.67977   0.26137   0.00000  Uiso   1.00
H292   H     0.90526   0.17977   0.26137   0.00000  Uiso   1.00
H293   H     0.40526   0.32023   0.26137   0.00000  Uiso   1.00
H294   H     0.90526   0.82023   0.26137   0.00000  Uiso   1.00
H295   H     0.59474   0.32023   0.73863   0.00000  Uiso   1.00
H296   H     0.09474   0.82023   0.73863   0.00000  Uiso   1.00
H297   H     0.62465   0.71416   0.74227   0.00000  Uiso   1.00
H298   H     0.12465   0.21416   0.74227   0.00000  Uiso   1.00
H299   H     0.37535   0.71416   0.25773   0.00000  Uiso   1.00
H300   H     0.87535   0.21416   0.25773   0.00000  Uiso   1.00
H301   H     0.37535   0.28584   0.25773   0.00000  Uiso   1.00
H302   H     0.87535   0.78584   0.25773   0.00000  Uiso   1.00
H303   H     0.62465   0.28584   0.74227   0.00000  Uiso   1.00
H304   H     0.12465   0.78584   0.74227   0.00000  Uiso   1.00
H305   H     0.68775   0.67218   0.04510   0.00000  Uiso   1.00
H306   H     0.18775   0.17218   0.04510   0.00000  Uiso   1.00
H307   H     0.31225   0.67218   0.95490   0.00000  Uiso   1.00
H308   H     0.81225   0.17218   0.95490   0.00000  Uiso   1.00
H309   H     0.31225   0.32782   0.95490   0.00000  Uiso   1.00
H310   H     0.81225   0.82782   0.95490   0.00000  Uiso   1.00
H311   H     0.68775   0.32782   0.04510   0.00000  Uiso   1.00
H312   H     0.18775   0.82782   0.04510   0.00000  Uiso   1.00
H313   H     0.65763   0.63736   0.05571   0.00000  Uiso   1.00
H314   H     0.15763   0.13736   0.05571   0.00000  Uiso   1.00
H315   H     0.34237   0.63736   0.94429   0.00000  Uiso   1.00
H316   H     0.84237   0.13736   0.94429   0.00000  Uiso   1.00
H317   H     0.34237   0.36264   0.94429   0.00000  Uiso   1.00
H318   H     0.84237   0.86264   0.94429   0.00000  Uiso   1.00
H319   H     0.65763   0.36264   0.05571   0.00000  Uiso   1.00
H320   H     0.15763   0.86264   0.05571   0.00000  Uiso   1.00
H321   H     0.65167   0.74699   0.64857   0.00000  Uiso   1.00
H322   H     0.15167   0.24699   0.64857   0.00000  Uiso   1.00
H323   H     0.34833   0.74699   0.35143   0.00000  Uiso   1.00
H324   H     0.84833   0.24699   0.35143   0.00000  Uiso   1.00
H325   H     0.34833   0.25301   0.35143   0.00000  Uiso   1.00
H326   H     0.84833   0.75301   0.35143   0.00000  Uiso   1.00
H327   H     0.65167   0.25301   0.64857   0.00000  Uiso   1.00
H328   H     0.15167   0.75301   0.64857   0.00000  Uiso   1.00
H329   H     0.66223   0.20502   0.73098   0.00000  Uiso   1.00
H330   H     0.16222   0.70502   0.73098   0.00000  Uiso   1.00
H331   H     0.33777   0.20502   0.26901   0.00000  Uiso   1.00
H332   H     0.83778   0.70502   0.26902   0.00000  Uiso   1.00
H333   H     0.33777   0.79498   0.26901   0.00000  Uiso   1.00
H334   H     0.83778   0.29498   0.26902   0.00000  Uiso   1.00
H335   H     0.66223   0.79498   0.73098   0.00000  Uiso   1.00
H336   H     0.16222   0.29498   0.73098   0.00000  Uiso   1.00
H337   H     0.66336   0.21754   1.15528   0.00000  Uiso   1.00
H338   H     0.16336   0.71754   1.15528   0.00000  Uiso   1.00
H339   H     0.33664   0.21754  -0.15528   0.00000  Uiso   1.00
H340   H     0.83664   0.71754  -0.15528   0.00000  Uiso   1.00
H341   H     0.33664   0.78246  -0.15528   0.00000  Uiso   1.00
H342   H     0.83664   0.28246  -0.15528   0.00000  Uiso   1.00
H343   H     0.66336   0.78246   1.15528   0.00000  Uiso   1.00
H344   H     0.16336   0.28246   1.15528   0.00000  Uiso   1.00
H345   H     0.69598   0.18592   1.21795   0.00000  Uiso   1.00
H346   H     0.19598   0.68592   1.21795   0.00000  Uiso   1.00
H347   H     0.30402   0.18592  -0.21795   0.00000  Uiso   1.00
H348   H     0.80402   0.68592  -0.21795   0.00000  Uiso   1.00
H349   H     0.30402   0.81408  -0.21795   0.00000  Uiso   1.00
H350   H     0.80402   0.31408  -0.21795   0.00000  Uiso   1.00
H351   H     0.69598   0.81408   1.21795   0.00000  Uiso   1.00
H352   H     0.19598   0.31408   1.21795   0.00000  Uiso   1.00
H353   H     0.69970   0.17490   0.77235   0.00000  Uiso   1.00
H354   H     0.19969   0.67490   0.77235   0.00000  Uiso   1.00
H355   H     0.30030   0.17490   0.22765   0.00000  Uiso   1.00
H356   H     0.80031   0.67490   0.22765   0.00000  Uiso   1.00
H357   H     0.30030   0.82510   0.22765   0.00000  Uiso   1.00
H358   H     0.80031   0.32510   0.22765   0.00000  Uiso   1.00
H359   H     0.69970   0.82510   0.77235   0.00000  Uiso   1.00
H360   H     0.19969   0.32510   0.77235   0.00000  Uiso   1.00
H361   H     0.65133   0.16169   0.94108   0.00000  Uiso   1.00
H362   H     0.15133   0.66169   0.94108   0.00000  Uiso   1.00
H363   H     0.34867   0.16169   0.05892   0.00000  Uiso   1.00
H364   H     0.84867   0.66169   0.05891   0.00000  Uiso   1.00
H365   H     0.34867   0.83831   0.05892   0.00000  Uiso   1.00
H366   H     0.84867   0.33831   0.05891   0.00000  Uiso   1.00
H367   H     0.65133   0.83831   0.94108   0.00000  Uiso   1.00
H368   H     0.15133   0.33831   0.94108   0.00000  Uiso   1.00
H369   H     0.64813   0.17289   1.38718   0.00000  Uiso   1.00
H370   H     0.14813   0.67289   1.38718   0.00000  Uiso   1.00
H371   H     0.35187   0.17289  -0.38718   0.00000  Uiso   1.00
H372   H     0.85187   0.67289  -0.38718   0.00000  Uiso   1.00
H373   H     0.35187   0.82711  -0.38718   0.00000  Uiso   1.00
H374   H     0.85187   0.32711  -0.38718   0.00000  Uiso   1.00
H375   H     0.64813   0.82711   1.38718   0.00000  Uiso   1.00
H376   H     0.14813   0.32711   1.38718   0.00000  Uiso   1.00
H377   H     0.68612   0.14248   1.42141   0.00000  Uiso   1.00
H378   H     0.18612   0.64248   1.42141   0.00000  Uiso   1.00
H379   H     0.31388   0.14248  -0.42141   0.00000  Uiso   1.00
H380   H     0.81388   0.64248  -0.42141   0.00000  Uiso   1.00
H381   H     0.31388   0.85752  -0.42141   0.00000  Uiso   1.00
H382   H     0.81388   0.35752  -0.42141   0.00000  Uiso   1.00
H383   H     0.68612   0.85752   1.42141   0.00000  Uiso   1.00
H384   H     0.18612   0.35752   1.42141   0.00000  Uiso   1.00
H385   H     0.68377   0.12976   0.99993   0.00000  Uiso   1.00
H386   H     0.18377   0.62976   0.99993   0.00000  Uiso   1.00
H387   H     0.31623   0.12976   0.00007   0.00000  Uiso   1.00
H388   H     0.81623   0.62976   0.00007   0.00000  Uiso   1.00
H389   H     0.31623   0.87024   0.00007   0.00000  Uiso   1.00
H390   H     0.81623   0.37024   0.00007   0.00000  Uiso   1.00
H391   H     0.68377   0.87024   0.99993   0.00000  Uiso   1.00
H392   H     0.18377   0.37024   0.99993   0.00000  Uiso   1.00
H393   H     0.65613   0.12776   1.38908   0.00000  Uiso   1.00
H394   H     0.15613   0.62776   1.38908   0.00000  Uiso   1.00
H395   H     0.34387   0.12776  -0.38908   0.00000  Uiso   1.00
H396   H     0.84387   0.62776  -0.38908   0.00000  Uiso   1.00
H397   H     0.34387   0.87224  -0.38908   0.00000  Uiso   1.00
H398   H     0.84387   0.37224  -0.38908   0.00000  Uiso   1.00
H399   H     0.65613   0.87224   1.38908   0.00000  Uiso   1.00
H400   H     0.15613   0.37224   1.38908   0.00000  Uiso   1.00
C401   C     0.48651   0.50000   0.49592   0.00000  Uiso   1.00
C402   C     0.98651   0.00000   0.49592   0.00000  Uiso   1.00
C403   C     0.51349   0.50000   0.50408   0.00000  Uiso   1.00
C404   C     0.01349   0.00000   0.50408   0.00000  Uiso   1.00
C405   C     0.43341   0.50000   0.48842   0.00000  Uiso   1.00
C406   C     0.93341   0.00000   0.48842   0.00000  Uiso   1.00
C407   C     0.56659   0.50000   0.51157   0.00000  Uiso   1.00
C408   C     0.06659   0.00000   0.51157   0.00000  Uiso   1.00
H409   H     0.41310   0.50000   0.47765   0.00000  Uiso   1.00
H410   H     0.91310   0.00000   0.47765   0.00000  Uiso   1.00
H411   H     0.58690   0.50000   0.52235   0.00000  Uiso   1.00
H412   H     0.08690   0.00000   0.52235   0.00000  Uiso   1.00
loop_
_geom_bond_atom_site_label_1
_geom_bond_atom_site_label_2
_geom_bond_distance
_geom_bond_site_symmetry_2
_ccdc_geom_bond_type
C1     C9      1.424   .     S
C1     C25     1.494   .     S
C1     C405    1.398   .     D
C2     C10     1.424   .     S
C2     C26     1.494   .     S
C2     C406    1.398   .     D
C3     C11     1.424   .     S
C3     C27     1.494   .     D
C3     C407    1.398   .     S
C4     C12     1.424   .     S
C4     C28     1.494   .     D
C4     C408    1.398   .     S
C5     C13     1.424   .     S
C5     C29     1.494   .     S
C5     C407    1.398   .     D
C6     C14     1.424   .     S
C6     C30     1.494   .     S
C6     C408    1.398   1_565 D
C7     C15     1.424   .     S
C7     C31     1.494   .     D
C7     C405    1.398   .     S
C8     C16     1.424   .     S
C8     C32     1.494   .     D
C8     C406    1.398   1_565 S
C9     C17     1.402   .     D
C9     C401    1.420   .     S
C10    C18     1.402   .     D
C10    C402    1.420   .     S
C11    C19     1.402   .     D
C11    C403    1.420   .     S
C12    C20     1.402   .     D
C12    C404    1.420   .     S
C13    C21     1.402   .     D
C13    C403    1.420   .     S
C14    C22     1.402   .     S
C14    C404    1.420   1_565 D
C15    C23     1.402   .     D
C15    C401    1.420   .     S
C16    C24     1.402   .     S
C16    C402    1.420   1_565 D
C17    C19     1.380   .     S
C17    H33     1.073   .     S
C18    C20     1.380   1_655 S
C18    H34     1.073   .     S
C19    H35     1.073   .     S
C20    C18     1.380   1_455 S
C20    H36     1.073   .     S
C21    C23     1.380   .     S
C21    H37     1.073   .     S
C22    C24     1.380   1_455 D
C22    H38     1.073   .     S
C23    H39     1.073   .     S
C24    C22     1.380   1_655 D
C24    H40     1.073   .     S
C25    C43     1.401   .     S
C25    C75     1.408   .     D
C26    C44     1.401   .     S
C26    C76     1.408   .     D
C27    C41     1.401   .     S
C27    C73     1.408   .     S
C28    C42     1.401   .     S
C28    C74     1.408   .     S
C29    C47     1.401   .     S
C29    C79     1.408   .     D
C30    C48     1.401   .     D
C30    C80     1.408   .     S
C31    C45     1.401   .     S
C31    C77     1.408   .     S
C32    C46     1.401   .     S
C32    C78     1.408   .     S
C41    C49     1.392   .     D
C41    H97     1.073   .     S
C42    C50     1.392   .     D
C42    H98     1.073   .     S
C43    C51     1.392   .     D
C43    H99     1.073   .     S
C44    C52     1.392   .     D
C44    H100    1.073   .     S
C45    C53     1.392   .     D
C45    H101    1.073   .     S
C46    C54     1.392   .     D
C46    H102    1.073   .     S
C47    C55     1.392   .     D
C47    H103    1.073   .     S
C48    C56     1.392   .     S
C48    H104    1.073   .     S
C49    C57     1.403   .     S
C49    H105    1.080   .     S
C50    C58     1.403   .     S
C50    H106    1.080   .     S
C51    C59     1.403   .     S
C51    H107    1.080   .     S
C52    C60     1.403   .     S
C52    H108    1.080   .     S
C53    C61     1.403   .     S
C53    H109    1.080   .     S
C54    C62     1.403   .     S
C54    H110    1.080   .     S
C55    C63     1.403   .     S
C55    H111    1.080   .     S
C56    C64     1.403   .     D
C56    H112    1.080   .     S
C57    C65     1.397   .     S
C57    N81     1.433   .     D
C58    C66     1.397   .     S
C58    N82     1.433   .     D
C59    C67     1.397   .     D
C59    N83     1.433   .     S
C60    C68     1.397   .     D
C60    N84     1.433   .     S
C61    C69     1.397   .     S
C61    N85     1.433   .     D
C62    C70     1.397   .     S
C62    N86     1.433   .     D
C63    C71     1.397   .     D
C63    N87     1.433   .     S
C64    C72     1.397   .     S
C64    N88     1.433   .     S
C65    C73     1.400   .     D
C65    H113    1.082   .     S
C66    C74     1.400   .     D
C66    H114    1.082   .     S
C67    C75     1.400   .     S
C67    H115    1.082   .     S
C68    C76     1.400   .     S
C68    H116    1.082   .     S
C69    C77     1.400   .     D
C69    H117    1.082   .     S
C70    C78     1.400   .     D
C70    H118    1.082   .     S
C71    C79     1.400   .     S
C71    H119    1.082   .     S
C72    C80     1.400   .     D
C72    H120    1.082   .     S
C73    H121    1.083   .     S
C74    H122    1.083   .     S
C75    H123    1.083   .     S
C76    H124    1.083   .     S
C77    H125    1.083   .     S
C78    H126    1.083   .     S
C79    H127    1.083   .     S
C80    H128    1.083   .     S
N81    C89     1.300   .     S
N82    C90     1.300   .     S
N83    C91     1.300   .     D
N84    C92     1.300   .     D
N85    C93     1.300   .     S
N86    C94     1.300   .     S
N87    C95     1.300   .     D
N88    C96     1.300   .     D
C89    H129    1.081   .     S
C89    C137    1.469   .     D
C90    H130    1.081   .     S
C90    C138    1.469   .     D
C91    H131    1.081   .     S
C91    C139    1.469   .     S
C92    H132    1.081   .     S
C92    C140    1.469   .     S
C93    H133    1.081   .     S
C93    C141    1.469   .     D
C94    H134    1.081   .     S
C94    C142    1.469   .     D
C95    H135    1.081   .     S
C95    C143    1.469   .     S
C96    H136    1.081   .     S
C96    C144    1.469   .     S
C137   C145    1.401   .     S
C137   C177    1.401   .     S
C138   C146    1.401   .     S
C138   C178    1.401   .     S
C139   C147    1.401   .     S
C139   C179    1.401   .     D
C140   C148    1.401   .     S
C140   C180    1.401   .     D
C141   C149    1.401   .     S
C141   C181    1.401   .     S
C142   C150    1.401   .     S
C142   C182    1.401   .     S
C143   C151    1.401   .     S
C143   C183    1.401   .     D
C144   C152    1.401   .     D
C144   C184    1.401   .     S
C145   C153    1.396   .     D
C145   H289    1.083   .     S
C146   C154    1.396   .     D
C146   H290    1.083   .     S
C147   C155    1.396   .     D
C147   H291    1.083   .     S
C148   C156    1.396   .     D
C148   H292    1.083   .     S
C149   C157    1.396   .     D
C149   H293    1.083   .     S
C150   C158    1.396   .     D
C150   H294    1.083   .     S
C151   C159    1.396   .     D
C151   H295    1.083   .     S
C152   C160    1.396   .     S
C152   H296    1.083   .     S
C153   C161    1.407   .     S
C153   H297    1.080   .     S
C154   C162    1.407   .     S
C154   H298    1.080   .     S
C155   C163    1.407   .     S
C155   H299    1.080   .     S
C156   C164    1.407   .     S
C156   H300    1.080   .     S
C157   C165    1.407   .     S
C157   H301    1.080   .     S
C158   C166    1.407   .     S
C158   H302    1.080   .     S
C159   C167    1.407   .     S
C159   H303    1.080   .     S
C160   C168    1.407   .     D
C160   H304    1.080   .     S
C161   C169    1.407   .     S
C161   C185    1.483   .     D
C162   C170    1.407   .     S
C162   C186    1.483   .     D
C163   C171    1.407   .     D
C163   C187    1.483   .     S
C164   C172    1.407   .     D
C164   C188    1.483   .     S
C165   C173    1.407   .     S
C165   C189    1.483   .     D
C166   C174    1.407   .     S
C166   C190    1.483   .     D
C167   C175    1.407   .     D
C167   C191    1.483   .     S
C168   C176    1.407   .     S
C168   C192    1.483   .     S
C169   C177    1.395   .     D
C169   H305    1.084   .     S
C170   C178    1.395   .     D
C170   H306    1.084   .     S
C171   C179    1.395   .     S
C171   H307    1.084   .     S
C172   C180    1.395   .     S
C172   H308    1.084   .     S
C173   C181    1.395   .     D
C173   H309    1.084   .     S
C174   C182    1.395   .     D
C174   H310    1.084   .     S
C175   C183    1.395   .     S
C175   H311    1.084   .     S
C176   C184    1.395   .     D
C176   H312    1.084   .     S
C177   H313    1.083   .     S
C178   H314    1.083   .     S
C179   H315    1.083   .     S
C180   H316    1.083   .     S
C181   H317    1.083   .     S
C182   H318    1.083   .     S
C183   H319    1.083   .     S
C184   H320    1.083   .     S
C185   S193    1.733   .     S
C185   C217    1.394   .     S
C186   S194    1.733   .     S
C186   C218    1.394   .     S
C187   S195    1.733   .     S
C187   C219    1.394   .     D
C188   S196    1.733   .     S
C188   C220    1.394   .     D
C189   S197    1.733   .     S
C189   C221    1.394   .     S
C190   S198    1.733   .     S
C190   C222    1.394   .     S
C191   S199    1.733   .     S
C191   C223    1.394   .     D
C192   S200    1.733   .     S
C192   C224    1.394   .     D
S193   C201    1.696   .     S
S194   C202    1.696   .     S
S195   C203    1.696   .     S
S196   C204    1.696   .     S
S197   C205    1.696   .     S
S198   C206    1.696   .     S
S199   C207    1.696   .     S
S200   C208    1.696   .     S
C201   C209    1.342   .     S
C201   C247    1.462   .     D
C202   C210    1.342   .     S
C202   C248    1.462   .     D
C203   C211    1.342   .     D
C203   C245    1.462   .     S
C204   C212    1.342   .     D
C204   C246    1.462   .     S
C205   C213    1.342   .     S
C205   C243    1.462   .     D
C206   C214    1.342   .     S
C206   C244    1.462   .     D
C207   C215    1.342   .     D
C207   C241    1.462   .     S
C208   C216    1.342   .     D
C208   C242    1.462   .     S
C209   C217    1.362   .     D
C209   N231    1.417   .     S
C210   C218    1.362   .     D
C210   N232    1.417   .     S
C211   C219    1.362   .     S
C211   N229    1.417   .     S
C212   C220    1.362   .     S
C212   N230    1.417   .     S
C213   C221    1.362   .     D
C213   N227    1.417   .     S
C214   C222    1.362   .     D
C214   N228    1.417   .     S
C215   C223    1.362   .     S
C215   N225    1.417   .     S
C216   C224    1.362   .     S
C216   N226    1.417   .     S
C217   H321    1.079   .     S
C218   H322    1.079   .     S
C219   H323    1.079   .     S
C220   H324    1.079   .     S
C221   H325    1.079   .     S
C222   H326    1.079   .     S
C223   H327    1.079   .     S
C224   H328    1.079   .     S
N225   C233    1.376   .     S
N225   C257    1.472   .     S
N226   C234    1.376   .     S
N226   C258    1.472   .     S
N227   C235    1.376   .     S
N227   C259    1.472   .     S
N228   C236    1.376   .     S
N228   C260    1.472   .     S
N229   C237    1.376   .     S
N229   C261    1.472   .     S
N230   C238    1.376   .     S
N230   C262    1.472   .     S
N231   C239    1.376   .     S
N231   C263    1.472   .     S
N232   C240    1.376   .     S
N232   C264    1.472   .     S
C233   C241    1.487   .     S
C233   O249    1.214   .     D
C234   C242    1.487   .     S
C234   O250    1.214   .     D
C235   C243    1.487   .     S
C235   O251    1.214   .     D
C236   C244    1.487   .     S
C236   O252    1.214   .     D
C237   C245    1.487   .     S
C237   O253    1.214   .     D
C238   C246    1.487   .     S
C238   O254    1.214   .     D
C239   C247    1.487   .     S
C239   O255    1.214   .     D
C240   C248    1.487   .     S
C240   O256    1.214   .     D
C241   C246    1.352   .     D
C242   C245    1.352   .     D
C243   C248    1.352   .     S
C244   C247    1.352   .     S
C257   C265    1.532   .     S
C257   H329    1.108   .     S
C257   H337    1.109   .     S
C258   C266    1.532   .     S
C258   H330    1.108   .     S
C258   H338    1.109   .     S
C259   C267    1.532   .     S
C259   H331    1.108   .     S
C259   H339    1.109   .     S
C260   C268    1.532   .     S
C260   H332    1.108   .     S
C260   H340    1.109   .     S
C261   C269    1.532   .     S
C261   H333    1.108   .     S
C261   H341    1.109   .     S
C262   C270    1.532   .     S
C262   H334    1.108   .     S
C262   H342    1.109   .     S
C263   C271    1.532   .     S
C263   H335    1.108   .     S
C263   H343    1.109   .     S
C264   C272    1.532   .     S
C264   H336    1.108   .     S
C264   H344    1.109   .     S
C265   C273    1.534   .     S
C265   H345    1.109   .     S
C265   H353    1.111   .     S
C266   C274    1.534   .     S
C266   H346    1.109   .     S
C266   H354    1.111   .     S
C267   C275    1.534   .     S
C267   H347    1.109   .     S
C267   H355    1.111   .     S
C268   C276    1.534   .     S
C268   H348    1.109   .     S
C268   H356    1.111   .     S
C269   C277    1.534   .     S
C269   H349    1.109   .     S
C269   H357    1.111   .     S
C270   C278    1.534   .     S
C270   H350    1.109   .     S
C270   H358    1.111   .     S
C271   C279    1.534   .     S
C271   H351    1.109   .     S
C271   H359    1.111   .     S
C272   C280    1.534   .     S
C272   H352    1.109   .     S
C272   H360    1.111   .     S
C273   C281    1.530   .     S
C273   H361    1.111   .     S
C273   H369    1.111   .     S
C274   C282    1.530   .     S
C274   H362    1.111   .     S
C274   H370    1.111   .     S
C275   C283    1.530   .     S
C275   H363    1.111   .     S
C275   H371    1.111   .     S
C276   C284    1.530   .     S
C276   H364    1.111   .     S
C276   H372    1.111   .     S
C277   C285    1.530   .     S
C277   H365    1.111   .     S
C277   H373    1.111   .     S
C278   C286    1.530   .     S
C278   H366    1.111   .     S
C278   H374    1.111   .     S
C279   C287    1.530   .     S
C279   H367    1.111   .     S
C279   H375    1.111   .     S
C280   C288    1.530   .     S
C280   H368    1.111   .     S
C280   H376    1.111   .     S
C281   H377    1.108   .     S
C281   H385    1.110   .     S
C281   H393    1.112   .     S
C282   H378    1.108   .     S
C282   H386    1.110   .     S
C282   H394    1.112   .     S
C283   H379    1.108   .     S
C283   H387    1.110   .     S
C283   H395    1.112   .     S
C284   H380    1.108   .     S
C284   H388    1.110   .     S
C284   H396    1.112   .     S
C285   H381    1.108   .     S
C285   H389    1.110   .     S
C285   H397    1.112   .     S
C286   H382    1.108   .     S
C286   H390    1.110   .     S
C286   H398    1.112   .     S
C287   H383    1.108   .     S
C287   H391    1.110   .     S
C287   H399    1.112   .     S
C288   H384    1.108   .     S
C288   H392    1.110   .     S
C288   H400    1.112   .     S
C401   C403    1.433   .     D
C402   C16     1.420   1_545 D
C402   C404    1.433   1_655 S
C404   C402    1.433   1_455 S
C404   C14     1.420   1_545 D
C405   H409    1.084   .     S
C406   C8      1.398   1_545 S
C406   H410    1.084   .     S
C407   H411    1.084   .     S
C408   C6      1.398   1_545 D
C408   H412    1.084   .     S
