data_406
_audit_creation_date              2023-09-08
_audit_creation_method            'Materials Studio'
_symmetry_space_group_name_H-M    'P1'
_symmetry_Int_Tables_number       1
_symmetry_cell_setting            triclinic
loop_
_symmetry_equiv_pos_as_xyz
  x,y,z
_cell_length_a                    42.6323
_cell_length_b                    43.7221
_cell_length_c                    4.5734
_cell_angle_alpha                 90.0000
_cell_angle_beta                  78.8000
_cell_angle_gamma                 90.0000
loop_
_atom_site_label
_atom_site_type_symbol
_atom_site_fract_x
_atom_site_fract_y
_atom_site_fract_z
_atom_site_U_iso_or_equiv
_atom_site_adp_type
_atom_site_occupancy
C1     C     0.47202   0.06528   0.46498   0.00000  Uiso   1.00
C2     C     0.47169   0.03270   0.48205   0.00000  Uiso   1.00
C3     C     0.44383   0.01599   0.49006   0.00000  Uiso   1.00
C4     C     0.42471   0.07573   0.19343   0.00000  Uiso   1.00
C5     C     0.44389   0.08380   0.40661   0.00000  Uiso   1.00
C6     C     0.43669   0.11045   0.55790   0.00000  Uiso   1.00
C7     C     0.41054   0.12801   0.50268   0.00000  Uiso   1.00
C8     C     0.39069   0.11887   0.29994   0.00000  Uiso   1.00
C9     C     0.39783   0.09264   0.14592   0.00000  Uiso   1.00
N10    N     0.36138   0.13376   0.27678   0.00000  Uiso   1.00
C11    C     0.35848   0.16298   0.23142   0.00000  Uiso   1.00
C12    C     0.32822   0.17794   0.27260   0.00000  Uiso   1.00
C13    C     0.30870   0.16889   0.48846   0.00000  Uiso   1.00
C14    C     0.28269   0.18635   0.56123   0.00000  Uiso   1.00
C15    C     0.27511   0.21322   0.41781   0.00000  Uiso   1.00
C16    C     0.29272   0.21964   0.18114   0.00000  Uiso   1.00
C17    C     0.31983   0.20319   0.11618   0.00000  Uiso   1.00
C18    C     0.02695   0.06497   0.56568   0.00000  Uiso   1.00
C19    C     0.02682   0.03253   0.57549   0.00000  Uiso   1.00
C20    C     0.05260   0.01600   0.66331   0.00000  Uiso   1.00
C21    C     0.07985   0.08050   0.40852   0.00000  Uiso   1.00
C22    C     0.05530   0.08332   0.59855   0.00000  Uiso   1.00
C23    C     0.05624   0.10627   0.79692   0.00000  Uiso   1.00
C24    C     0.08127   0.12656   0.80208   0.00000  Uiso   1.00
C25    C     0.10551   0.12417   0.60698   0.00000  Uiso   1.00
C26    C     0.10468   0.10090   0.41224   0.00000  Uiso   1.00
N27    N     0.13025   0.14596   0.58777   0.00000  Uiso   1.00
C28    C     0.13918   0.16412   0.77992   0.00000  Uiso   1.00
C29    C     0.16565   0.18440   0.72700   0.00000  Uiso   1.00
C30    C     0.19094   0.18342   0.89416   0.00000  Uiso   1.00
C31    C     0.21711   0.20124   0.83331   0.00000  Uiso   1.00
C32    C     0.21920   0.21888   0.59520   0.00000  Uiso   1.00
C33    C     0.19266   0.22172   0.44147   0.00000  Uiso   1.00
C34    C     0.16624   0.20425   0.50420   0.00000  Uiso   1.00
C35    C     0.24887   0.23419   0.50825   0.00000  Uiso   1.00
H36    H     0.42159   0.02739   0.50066   0.00000  Uiso   1.00
H37    H     0.43021   0.05602   0.06671   0.00000  Uiso   1.00
H38    H     0.45095   0.11734   0.72311   0.00000  Uiso   1.00
H39    H     0.40488   0.14792   0.62681   0.00000  Uiso   1.00
H40    H     0.38256   0.08544  -0.01088   0.00000  Uiso   1.00
H41    H     0.37867   0.17698   0.18388   0.00000  Uiso   1.00
H42    H     0.31439   0.14931   0.61173   0.00000  Uiso   1.00
H43    H     0.26994   0.17879   0.73775   0.00000  Uiso   1.00
H44    H     0.33413   0.21013  -0.05613   0.00000  Uiso   1.00
H45    H     0.07294   0.02767   0.73457   0.00000  Uiso   1.00
H46    H     0.07913   0.06330   0.25072   0.00000  Uiso   1.00
H47    H     0.03723   0.10895   0.94323   0.00000  Uiso   1.00
H48    H     0.08078   0.14483   0.95052   0.00000  Uiso   1.00
H49    H     0.12289   0.09924   0.25781   0.00000  Uiso   1.00
H50    H     0.12984   0.16198   0.98504   0.00000  Uiso   1.00
H51    H     0.19064   0.16853   1.06955   0.00000  Uiso   1.00
H52    H     0.23549   0.20137   0.97478   0.00000  Uiso   1.00
H53    H     0.14642   0.20593   0.37712   0.00000  Uiso   1.00
H54    H     0.21427   0.26189   0.94832   0.00000  Uiso   1.00
H55    H     0.19222   0.23720   0.27127   0.00000  Uiso   1.00
C56    C     0.97202   0.56528   0.46498   0.00000  Uiso   1.00
C57    C     0.97169   0.53270   0.48205   0.00000  Uiso   1.00
C58    C     0.94383   0.51599   0.49006   0.00000  Uiso   1.00
C59    C     0.92471   0.57573   0.19343   0.00000  Uiso   1.00
C60    C     0.94389   0.58380   0.40661   0.00000  Uiso   1.00
C61    C     0.93669   0.61045   0.55790   0.00000  Uiso   1.00
C62    C     0.91054   0.62801   0.50268   0.00000  Uiso   1.00
C63    C     0.89069   0.61887   0.29994   0.00000  Uiso   1.00
C64    C     0.89783   0.59264   0.14592   0.00000  Uiso   1.00
N65    N     0.86138   0.63376   0.27678   0.00000  Uiso   1.00
C66    C     0.85848   0.66298   0.23142   0.00000  Uiso   1.00
C67    C     0.82822   0.67794   0.27260   0.00000  Uiso   1.00
C68    C     0.80870   0.66889   0.48846   0.00000  Uiso   1.00
C69    C     0.78269   0.68635   0.56123   0.00000  Uiso   1.00
C70    C     0.77511   0.71322   0.41781   0.00000  Uiso   1.00
C71    C     0.79272   0.71964   0.18114   0.00000  Uiso   1.00
C72    C     0.81983   0.70319   0.11618   0.00000  Uiso   1.00
C73    C     0.52695   0.56497   0.56568   0.00000  Uiso   1.00
C74    C     0.52682   0.53253   0.57549   0.00000  Uiso   1.00
C75    C     0.55260   0.51600   0.66331   0.00000  Uiso   1.00
C76    C     0.57985   0.58050   0.40852   0.00000  Uiso   1.00
C77    C     0.55530   0.58332   0.59855   0.00000  Uiso   1.00
C78    C     0.55624   0.60627   0.79692   0.00000  Uiso   1.00
C79    C     0.58127   0.62656   0.80208   0.00000  Uiso   1.00
C80    C     0.60551   0.62417   0.60698   0.00000  Uiso   1.00
C81    C     0.60468   0.60090   0.41224   0.00000  Uiso   1.00
N82    N     0.63025   0.64596   0.58777   0.00000  Uiso   1.00
C83    C     0.63918   0.66412   0.77992   0.00000  Uiso   1.00
C84    C     0.66565   0.68440   0.72700   0.00000  Uiso   1.00
C85    C     0.69094   0.68342   0.89416   0.00000  Uiso   1.00
C86    C     0.71711   0.70124   0.83331   0.00000  Uiso   1.00
C87    C     0.71920   0.71888   0.59520   0.00000  Uiso   1.00
C88    C     0.69266   0.72172   0.44147   0.00000  Uiso   1.00
C89    C     0.66624   0.70425   0.50420   0.00000  Uiso   1.00
C90    C     0.74887   0.73419   0.50825   0.00000  Uiso   1.00
H91    H     0.92159   0.52739   0.50066   0.00000  Uiso   1.00
H92    H     0.93021   0.55602   0.06671   0.00000  Uiso   1.00
H93    H     0.95095   0.61734   0.72311   0.00000  Uiso   1.00
H94    H     0.90488   0.64792   0.62681   0.00000  Uiso   1.00
H95    H     0.88256   0.58544  -0.01088   0.00000  Uiso   1.00
H96    H     0.87867   0.67698   0.18388   0.00000  Uiso   1.00
H97    H     0.81439   0.64931   0.61173   0.00000  Uiso   1.00
H98    H     0.76994   0.67879   0.73775   0.00000  Uiso   1.00
H99    H     0.83413   0.71013  -0.05613   0.00000  Uiso   1.00
H100   H     0.57294   0.52767   0.73457   0.00000  Uiso   1.00
H101   H     0.57913   0.56330   0.25072   0.00000  Uiso   1.00
H102   H     0.53723   0.60895   0.94323   0.00000  Uiso   1.00
H103   H     0.58078   0.64483   0.95052   0.00000  Uiso   1.00
H104   H     0.62289   0.59924   0.25781   0.00000  Uiso   1.00
H105   H     0.62984   0.66198   0.98504   0.00000  Uiso   1.00
H106   H     0.69064   0.66853   1.06955   0.00000  Uiso   1.00
H107   H     0.73549   0.70137   0.97478   0.00000  Uiso   1.00
H108   H     0.64642   0.70593   0.37712   0.00000  Uiso   1.00
H109   H     0.71427   0.76189   0.94832   0.00000  Uiso   1.00
H110   H     0.69222   0.73720   0.27127   0.00000  Uiso   1.00
C111   C     0.52798   0.06528   0.53502   0.00000  Uiso   1.00
C112   C     0.52831   0.03270   0.51795   0.00000  Uiso   1.00
C113   C     0.55617   0.01599   0.50994   0.00000  Uiso   1.00
C114   C     0.57529   0.07573   0.80657   0.00000  Uiso   1.00
C115   C     0.55611   0.08380   0.59339   0.00000  Uiso   1.00
C116   C     0.56331   0.11045   0.44210   0.00000  Uiso   1.00
C117   C     0.58946   0.12801   0.49732   0.00000  Uiso   1.00
C118   C     0.60931   0.11887   0.70006   0.00000  Uiso   1.00
C119   C     0.60217   0.09264   0.85408   0.00000  Uiso   1.00
N120   N     0.63862   0.13376   0.72322   0.00000  Uiso   1.00
C121   C     0.64152   0.16298   0.76858   0.00000  Uiso   1.00
C122   C     0.67178   0.17794   0.72740   0.00000  Uiso   1.00
C123   C     0.69130   0.16889   0.51154   0.00000  Uiso   1.00
C124   C     0.71731   0.18635   0.43877   0.00000  Uiso   1.00
C125   C     0.72489   0.21322   0.58219   0.00000  Uiso   1.00
C126   C     0.70728   0.21964   0.81886   0.00000  Uiso   1.00
C127   C     0.68017   0.20319   0.88382   0.00000  Uiso   1.00
C128   C     0.97305   0.06497   0.43432   0.00000  Uiso   1.00
C129   C     0.97318   0.03253   0.42451   0.00000  Uiso   1.00
C130   C     0.94740   0.01600   0.33669   0.00000  Uiso   1.00
C131   C     0.92015   0.08050   0.59148   0.00000  Uiso   1.00
C132   C     0.94470   0.08332   0.40145   0.00000  Uiso   1.00
C133   C     0.94376   0.10627   0.20308   0.00000  Uiso   1.00
C134   C     0.91873   0.12656   0.19792   0.00000  Uiso   1.00
C135   C     0.89449   0.12417   0.39302   0.00000  Uiso   1.00
C136   C     0.89532   0.10090   0.58776   0.00000  Uiso   1.00
N137   N     0.86975   0.14596   0.41223   0.00000  Uiso   1.00
C138   C     0.86082   0.16412   0.22008   0.00000  Uiso   1.00
C139   C     0.83435   0.18440   0.27300   0.00000  Uiso   1.00
C140   C     0.80906   0.18342   0.10584   0.00000  Uiso   1.00
C141   C     0.78289   0.20124   0.16669   0.00000  Uiso   1.00
C142   C     0.78080   0.21888   0.40480   0.00000  Uiso   1.00
C143   C     0.80734   0.22172   0.55853   0.00000  Uiso   1.00
C144   C     0.83376   0.20425   0.49580   0.00000  Uiso   1.00
C145   C     0.75113   0.23419   0.49175   0.00000  Uiso   1.00
H146   H     0.57841   0.02739   0.49934   0.00000  Uiso   1.00
H147   H     0.56979   0.05602   0.93329   0.00000  Uiso   1.00
H148   H     0.54905   0.11734   0.27689   0.00000  Uiso   1.00
H149   H     0.59512   0.14792   0.37319   0.00000  Uiso   1.00
H150   H     0.61744   0.08544   1.01088   0.00000  Uiso   1.00
H151   H     0.62133   0.17698   0.81612   0.00000  Uiso   1.00
H152   H     0.68561   0.14931   0.38827   0.00000  Uiso   1.00
H153   H     0.73006   0.17879   0.26225   0.00000  Uiso   1.00
H154   H     0.66587   0.21013   1.05613   0.00000  Uiso   1.00
H155   H     0.92706   0.02767   0.26543   0.00000  Uiso   1.00
H156   H     0.92087   0.06330   0.74928   0.00000  Uiso   1.00
H157   H     0.96277   0.10895   0.05677   0.00000  Uiso   1.00
H158   H     0.91922   0.14483   0.04948   0.00000  Uiso   1.00
H159   H     0.87711   0.09924   0.74219   0.00000  Uiso   1.00
H160   H     0.87016   0.16198   0.01496   0.00000  Uiso   1.00
H161   H     0.80936   0.16853  -0.06955   0.00000  Uiso   1.00
H162   H     0.76451   0.20137   0.02522   0.00000  Uiso   1.00
H163   H     0.85358   0.20593   0.62288   0.00000  Uiso   1.00
H164   H     0.78573   0.26189   0.05168   0.00000  Uiso   1.00
H165   H     0.80778   0.23720   0.72873   0.00000  Uiso   1.00
C166   C     0.02798   0.56528   0.53502   0.00000  Uiso   1.00
C167   C     0.02831   0.53270   0.51795   0.00000  Uiso   1.00
C168   C     0.05617   0.51599   0.50994   0.00000  Uiso   1.00
C169   C     0.07529   0.57573   0.80657   0.00000  Uiso   1.00
C170   C     0.05611   0.58380   0.59339   0.00000  Uiso   1.00
C171   C     0.06331   0.61045   0.44210   0.00000  Uiso   1.00
C172   C     0.08946   0.62801   0.49732   0.00000  Uiso   1.00
C173   C     0.10931   0.61887   0.70006   0.00000  Uiso   1.00
C174   C     0.10217   0.59264   0.85408   0.00000  Uiso   1.00
N175   N     0.13862   0.63376   0.72322   0.00000  Uiso   1.00
C176   C     0.14152   0.66298   0.76858   0.00000  Uiso   1.00
C177   C     0.17178   0.67794   0.72740   0.00000  Uiso   1.00
C178   C     0.19130   0.66889   0.51154   0.00000  Uiso   1.00
C179   C     0.21731   0.68635   0.43877   0.00000  Uiso   1.00
C180   C     0.22489   0.71322   0.58219   0.00000  Uiso   1.00
C181   C     0.20728   0.71964   0.81886   0.00000  Uiso   1.00
C182   C     0.18017   0.70319   0.88382   0.00000  Uiso   1.00
C183   C     0.47305   0.56497   0.43432   0.00000  Uiso   1.00
C184   C     0.47318   0.53253   0.42451   0.00000  Uiso   1.00
C185   C     0.44740   0.51600   0.33669   0.00000  Uiso   1.00
C186   C     0.42015   0.58050   0.59148   0.00000  Uiso   1.00
C187   C     0.44470   0.58332   0.40145   0.00000  Uiso   1.00
C188   C     0.44376   0.60627   0.20308   0.00000  Uiso   1.00
C189   C     0.41873   0.62656   0.19792   0.00000  Uiso   1.00
C190   C     0.39449   0.62417   0.39302   0.00000  Uiso   1.00
C191   C     0.39532   0.60090   0.58776   0.00000  Uiso   1.00
N192   N     0.36975   0.64596   0.41223   0.00000  Uiso   1.00
C193   C     0.36082   0.66412   0.22008   0.00000  Uiso   1.00
C194   C     0.33435   0.68440   0.27300   0.00000  Uiso   1.00
C195   C     0.30906   0.68342   0.10584   0.00000  Uiso   1.00
C196   C     0.28289   0.70124   0.16669   0.00000  Uiso   1.00
C197   C     0.28080   0.71888   0.40480   0.00000  Uiso   1.00
C198   C     0.30734   0.72172   0.55853   0.00000  Uiso   1.00
C199   C     0.33376   0.70425   0.49580   0.00000  Uiso   1.00
C200   C     0.25113   0.73419   0.49175   0.00000  Uiso   1.00
H201   H     0.07841   0.52739   0.49934   0.00000  Uiso   1.00
H202   H     0.06979   0.55602   0.93329   0.00000  Uiso   1.00
H203   H     0.04905   0.61734   0.27689   0.00000  Uiso   1.00
H204   H     0.09512   0.64792   0.37319   0.00000  Uiso   1.00
H205   H     0.11744   0.58544   1.01088   0.00000  Uiso   1.00
H206   H     0.12133   0.67698   0.81612   0.00000  Uiso   1.00
H207   H     0.18561   0.64931   0.38827   0.00000  Uiso   1.00
H208   H     0.23006   0.67879   0.26225   0.00000  Uiso   1.00
H209   H     0.16587   0.71013   1.05613   0.00000  Uiso   1.00
H210   H     0.42706   0.52767   0.26543   0.00000  Uiso   1.00
H211   H     0.42087   0.56330   0.74928   0.00000  Uiso   1.00
H212   H     0.46277   0.60895   0.05677   0.00000  Uiso   1.00
H213   H     0.41922   0.64483   0.04948   0.00000  Uiso   1.00
H214   H     0.37711   0.59924   0.74219   0.00000  Uiso   1.00
H215   H     0.37016   0.66198   0.01496   0.00000  Uiso   1.00
H216   H     0.30936   0.66853  -0.06955   0.00000  Uiso   1.00
H217   H     0.26451   0.70137   0.02522   0.00000  Uiso   1.00
H218   H     0.35358   0.70593   0.62288   0.00000  Uiso   1.00
H219   H     0.28573   0.76189   0.05168   0.00000  Uiso   1.00
H220   H     0.30778   0.73720   0.72873   0.00000  Uiso   1.00
C221   C     0.52798   0.93472   0.53502   0.00000  Uiso   1.00
C222   C     0.52831   0.96730   0.51795   0.00000  Uiso   1.00
C223   C     0.55617   0.98401   0.50994   0.00000  Uiso   1.00
C224   C     0.57529   0.92427   0.80657   0.00000  Uiso   1.00
C225   C     0.55611   0.91620   0.59339   0.00000  Uiso   1.00
C226   C     0.56331   0.88955   0.44210   0.00000  Uiso   1.00
C227   C     0.58946   0.87199   0.49732   0.00000  Uiso   1.00
C228   C     0.60931   0.88113   0.70006   0.00000  Uiso   1.00
C229   C     0.60217   0.90736   0.85408   0.00000  Uiso   1.00
N230   N     0.63862   0.86624   0.72322   0.00000  Uiso   1.00
C231   C     0.64152   0.83702   0.76858   0.00000  Uiso   1.00
C232   C     0.67178   0.82206   0.72740   0.00000  Uiso   1.00
C233   C     0.69130   0.83111   0.51154   0.00000  Uiso   1.00
C234   C     0.71731   0.81365   0.43877   0.00000  Uiso   1.00
C235   C     0.72489   0.78678   0.58219   0.00000  Uiso   1.00
C236   C     0.70728   0.78036   0.81886   0.00000  Uiso   1.00
C237   C     0.68017   0.79681   0.88382   0.00000  Uiso   1.00
C238   C     0.97305   0.93503   0.43432   0.00000  Uiso   1.00
C239   C     0.97318   0.96747   0.42451   0.00000  Uiso   1.00
C240   C     0.94740   0.98400   0.33669   0.00000  Uiso   1.00
C241   C     0.92015   0.91950   0.59148   0.00000  Uiso   1.00
C242   C     0.94470   0.91668   0.40145   0.00000  Uiso   1.00
C243   C     0.94376   0.89373   0.20308   0.00000  Uiso   1.00
C244   C     0.91873   0.87344   0.19792   0.00000  Uiso   1.00
C245   C     0.89449   0.87583   0.39302   0.00000  Uiso   1.00
C246   C     0.89532   0.89910   0.58776   0.00000  Uiso   1.00
N247   N     0.86975   0.85404   0.41223   0.00000  Uiso   1.00
C248   C     0.86082   0.83588   0.22008   0.00000  Uiso   1.00
C249   C     0.83435   0.81560   0.27300   0.00000  Uiso   1.00
C250   C     0.80906   0.81658   0.10584   0.00000  Uiso   1.00
C251   C     0.78289   0.79876   0.16669   0.00000  Uiso   1.00
C252   C     0.78080   0.78112   0.40480   0.00000  Uiso   1.00
C253   C     0.80734   0.77828   0.55853   0.00000  Uiso   1.00
C254   C     0.83376   0.79575   0.49580   0.00000  Uiso   1.00
C255   C     0.75113   0.76581   0.49175   0.00000  Uiso   1.00
H256   H     0.57841   0.97261   0.49934   0.00000  Uiso   1.00
H257   H     0.56979   0.94398   0.93329   0.00000  Uiso   1.00
H258   H     0.54905   0.88266   0.27689   0.00000  Uiso   1.00
H259   H     0.59512   0.85208   0.37319   0.00000  Uiso   1.00
H260   H     0.61744   0.91456   1.01088   0.00000  Uiso   1.00
H261   H     0.62133   0.82302   0.81612   0.00000  Uiso   1.00
H262   H     0.68561   0.85069   0.38827   0.00000  Uiso   1.00
H263   H     0.73006   0.82121   0.26225   0.00000  Uiso   1.00
H264   H     0.66587   0.78987   1.05613   0.00000  Uiso   1.00
H265   H     0.92706   0.97233   0.26543   0.00000  Uiso   1.00
H266   H     0.92087   0.93670   0.74928   0.00000  Uiso   1.00
H267   H     0.96277   0.89105   0.05677   0.00000  Uiso   1.00
H268   H     0.91922   0.85517   0.04948   0.00000  Uiso   1.00
H269   H     0.87711   0.90076   0.74219   0.00000  Uiso   1.00
H270   H     0.87016   0.83802   0.01496   0.00000  Uiso   1.00
H271   H     0.80936   0.83147  -0.06955   0.00000  Uiso   1.00
H272   H     0.76451   0.79863   0.02522   0.00000  Uiso   1.00
H273   H     0.85358   0.79407   0.62288   0.00000  Uiso   1.00
H274   H     0.78573   0.73811   0.05168   0.00000  Uiso   1.00
H275   H     0.80778   0.76280   0.72873   0.00000  Uiso   1.00
C276   C     0.02798   0.43472   0.53502   0.00000  Uiso   1.00
C277   C     0.02831   0.46730   0.51795   0.00000  Uiso   1.00
C278   C     0.05617   0.48401   0.50994   0.00000  Uiso   1.00
C279   C     0.07529   0.42427   0.80657   0.00000  Uiso   1.00
C280   C     0.05611   0.41620   0.59339   0.00000  Uiso   1.00
C281   C     0.06331   0.38955   0.44210   0.00000  Uiso   1.00
C282   C     0.08946   0.37199   0.49732   0.00000  Uiso   1.00
C283   C     0.10931   0.38113   0.70006   0.00000  Uiso   1.00
C284   C     0.10217   0.40736   0.85408   0.00000  Uiso   1.00
N285   N     0.13862   0.36624   0.72322   0.00000  Uiso   1.00
C286   C     0.14152   0.33702   0.76858   0.00000  Uiso   1.00
C287   C     0.17178   0.32206   0.72740   0.00000  Uiso   1.00
C288   C     0.19130   0.33111   0.51154   0.00000  Uiso   1.00
C289   C     0.21731   0.31365   0.43877   0.00000  Uiso   1.00
C290   C     0.22489   0.28678   0.58219   0.00000  Uiso   1.00
C291   C     0.20728   0.28036   0.81886   0.00000  Uiso   1.00
C292   C     0.18017   0.29681   0.88382   0.00000  Uiso   1.00
C293   C     0.47305   0.43503   0.43432   0.00000  Uiso   1.00
C294   C     0.47318   0.46747   0.42451   0.00000  Uiso   1.00
C295   C     0.44740   0.48400   0.33669   0.00000  Uiso   1.00
C296   C     0.42015   0.41950   0.59148   0.00000  Uiso   1.00
C297   C     0.44470   0.41668   0.40145   0.00000  Uiso   1.00
C298   C     0.44376   0.39373   0.20308   0.00000  Uiso   1.00
C299   C     0.41873   0.37344   0.19792   0.00000  Uiso   1.00
C300   C     0.39449   0.37583   0.39302   0.00000  Uiso   1.00
C301   C     0.39532   0.39910   0.58776   0.00000  Uiso   1.00
N302   N     0.36975   0.35404   0.41223   0.00000  Uiso   1.00
C303   C     0.36082   0.33588   0.22008   0.00000  Uiso   1.00
C304   C     0.33435   0.31560   0.27300   0.00000  Uiso   1.00
C305   C     0.30906   0.31658   0.10584   0.00000  Uiso   1.00
C306   C     0.28289   0.29876   0.16669   0.00000  Uiso   1.00
C307   C     0.28080   0.28112   0.40480   0.00000  Uiso   1.00
C308   C     0.30734   0.27828   0.55853   0.00000  Uiso   1.00
C309   C     0.33376   0.29575   0.49580   0.00000  Uiso   1.00
C310   C     0.25113   0.26581   0.49175   0.00000  Uiso   1.00
H311   H     0.07841   0.47261   0.49934   0.00000  Uiso   1.00
H312   H     0.06979   0.44398   0.93329   0.00000  Uiso   1.00
H313   H     0.04905   0.38266   0.27689   0.00000  Uiso   1.00
H314   H     0.09512   0.35208   0.37319   0.00000  Uiso   1.00
H315   H     0.11744   0.41456   1.01088   0.00000  Uiso   1.00
H316   H     0.12133   0.32302   0.81612   0.00000  Uiso   1.00
H317   H     0.18561   0.35069   0.38827   0.00000  Uiso   1.00
H318   H     0.23006   0.32121   0.26225   0.00000  Uiso   1.00
H319   H     0.16587   0.28987   1.05613   0.00000  Uiso   1.00
H320   H     0.42706   0.47233   0.26543   0.00000  Uiso   1.00
H321   H     0.42087   0.43670   0.74928   0.00000  Uiso   1.00
H322   H     0.46277   0.39105   0.05677   0.00000  Uiso   1.00
H323   H     0.41922   0.35517   0.04948   0.00000  Uiso   1.00
H324   H     0.37711   0.40076   0.74219   0.00000  Uiso   1.00
H325   H     0.37016   0.33802   0.01496   0.00000  Uiso   1.00
H326   H     0.30936   0.33147  -0.06955   0.00000  Uiso   1.00
H327   H     0.26451   0.29863   0.02522   0.00000  Uiso   1.00
H328   H     0.35358   0.29407   0.62288   0.00000  Uiso   1.00
H329   H     0.28573   0.23811   0.05168   0.00000  Uiso   1.00
H330   H     0.30778   0.26280   0.72873   0.00000  Uiso   1.00
C331   C     0.47202   0.93472   0.46498   0.00000  Uiso   1.00
C332   C     0.47169   0.96730   0.48205   0.00000  Uiso   1.00
C333   C     0.44383   0.98401   0.49006   0.00000  Uiso   1.00
C334   C     0.42471   0.92427   0.19343   0.00000  Uiso   1.00
C335   C     0.44389   0.91620   0.40661   0.00000  Uiso   1.00
C336   C     0.43669   0.88955   0.55790   0.00000  Uiso   1.00
C337   C     0.41054   0.87199   0.50268   0.00000  Uiso   1.00
C338   C     0.39069   0.88113   0.29994   0.00000  Uiso   1.00
C339   C     0.39783   0.90736   0.14592   0.00000  Uiso   1.00
N340   N     0.36138   0.86624   0.27678   0.00000  Uiso   1.00
C341   C     0.35848   0.83702   0.23142   0.00000  Uiso   1.00
C342   C     0.32822   0.82206   0.27260   0.00000  Uiso   1.00
C343   C     0.30870   0.83111   0.48846   0.00000  Uiso   1.00
C344   C     0.28269   0.81365   0.56123   0.00000  Uiso   1.00
C345   C     0.27511   0.78678   0.41781   0.00000  Uiso   1.00
C346   C     0.29272   0.78036   0.18114   0.00000  Uiso   1.00
C347   C     0.31983   0.79681   0.11618   0.00000  Uiso   1.00
C348   C     0.02695   0.93503   0.56568   0.00000  Uiso   1.00
C349   C     0.02682   0.96747   0.57549   0.00000  Uiso   1.00
C350   C     0.05260   0.98400   0.66331   0.00000  Uiso   1.00
C351   C     0.07985   0.91950   0.40852   0.00000  Uiso   1.00
C352   C     0.05530   0.91668   0.59855   0.00000  Uiso   1.00
C353   C     0.05624   0.89373   0.79692   0.00000  Uiso   1.00
C354   C     0.08127   0.87344   0.80208   0.00000  Uiso   1.00
C355   C     0.10551   0.87583   0.60698   0.00000  Uiso   1.00
C356   C     0.10468   0.89910   0.41224   0.00000  Uiso   1.00
N357   N     0.13025   0.85404   0.58777   0.00000  Uiso   1.00
C358   C     0.13918   0.83588   0.77992   0.00000  Uiso   1.00
C359   C     0.16565   0.81560   0.72700   0.00000  Uiso   1.00
C360   C     0.19094   0.81658   0.89416   0.00000  Uiso   1.00
C361   C     0.21711   0.79876   0.83331   0.00000  Uiso   1.00
C362   C     0.21920   0.78112   0.59520   0.00000  Uiso   1.00
C363   C     0.19266   0.77828   0.44147   0.00000  Uiso   1.00
C364   C     0.16624   0.79575   0.50420   0.00000  Uiso   1.00
C365   C     0.24887   0.76581   0.50825   0.00000  Uiso   1.00
H366   H     0.42159   0.97261   0.50066   0.00000  Uiso   1.00
H367   H     0.43021   0.94398   0.06671   0.00000  Uiso   1.00
H368   H     0.45095   0.88266   0.72311   0.00000  Uiso   1.00
H369   H     0.40488   0.85208   0.62681   0.00000  Uiso   1.00
H370   H     0.38256   0.91456  -0.01088   0.00000  Uiso   1.00
H371   H     0.37867   0.82302   0.18388   0.00000  Uiso   1.00
H372   H     0.31439   0.85069   0.61173   0.00000  Uiso   1.00
H373   H     0.26994   0.82121   0.73775   0.00000  Uiso   1.00
H374   H     0.33413   0.78987  -0.05613   0.00000  Uiso   1.00
H375   H     0.07294   0.97233   0.73457   0.00000  Uiso   1.00
H376   H     0.07913   0.93670   0.25072   0.00000  Uiso   1.00
H377   H     0.03723   0.89105   0.94323   0.00000  Uiso   1.00
H378   H     0.08078   0.85517   0.95052   0.00000  Uiso   1.00
H379   H     0.12289   0.90076   0.25781   0.00000  Uiso   1.00
H380   H     0.12984   0.83802   0.98504   0.00000  Uiso   1.00
H381   H     0.19064   0.83147   1.06955   0.00000  Uiso   1.00
H382   H     0.23549   0.79863   0.97478   0.00000  Uiso   1.00
H383   H     0.14642   0.79407   0.37712   0.00000  Uiso   1.00
H384   H     0.21427   0.73811   0.94832   0.00000  Uiso   1.00
H385   H     0.19222   0.76280   0.27127   0.00000  Uiso   1.00
C386   C     0.97202   0.43472   0.46498   0.00000  Uiso   1.00
C387   C     0.97169   0.46730   0.48205   0.00000  Uiso   1.00
C388   C     0.94383   0.48401   0.49006   0.00000  Uiso   1.00
C389   C     0.92471   0.42427   0.19343   0.00000  Uiso   1.00
C390   C     0.94389   0.41620   0.40661   0.00000  Uiso   1.00
C391   C     0.93669   0.38955   0.55790   0.00000  Uiso   1.00
C392   C     0.91054   0.37199   0.50268   0.00000  Uiso   1.00
C393   C     0.89069   0.38113   0.29994   0.00000  Uiso   1.00
C394   C     0.89783   0.40736   0.14592   0.00000  Uiso   1.00
N395   N     0.86138   0.36624   0.27678   0.00000  Uiso   1.00
C396   C     0.85848   0.33702   0.23142   0.00000  Uiso   1.00
C397   C     0.82822   0.32206   0.27260   0.00000  Uiso   1.00
C398   C     0.80870   0.33111   0.48846   0.00000  Uiso   1.00
C399   C     0.78269   0.31365   0.56123   0.00000  Uiso   1.00
C400   C     0.77511   0.28678   0.41781   0.00000  Uiso   1.00
C401   C     0.79272   0.28036   0.18114   0.00000  Uiso   1.00
C402   C     0.81983   0.29681   0.11618   0.00000  Uiso   1.00
C403   C     0.52695   0.43503   0.56568   0.00000  Uiso   1.00
C404   C     0.52682   0.46747   0.57549   0.00000  Uiso   1.00
C405   C     0.55260   0.48400   0.66331   0.00000  Uiso   1.00
C406   C     0.57985   0.41950   0.40852   0.00000  Uiso   1.00
C407   C     0.55530   0.41668   0.59855   0.00000  Uiso   1.00
C408   C     0.55624   0.39373   0.79692   0.00000  Uiso   1.00
C409   C     0.58127   0.37344   0.80208   0.00000  Uiso   1.00
C410   C     0.60551   0.37583   0.60698   0.00000  Uiso   1.00
C411   C     0.60468   0.39910   0.41224   0.00000  Uiso   1.00
N412   N     0.63025   0.35404   0.58777   0.00000  Uiso   1.00
C413   C     0.63918   0.33588   0.77992   0.00000  Uiso   1.00
C414   C     0.66565   0.31560   0.72700   0.00000  Uiso   1.00
C415   C     0.69094   0.31658   0.89416   0.00000  Uiso   1.00
C416   C     0.71711   0.29876   0.83331   0.00000  Uiso   1.00
C417   C     0.71920   0.28112   0.59520   0.00000  Uiso   1.00
C418   C     0.69266   0.27828   0.44147   0.00000  Uiso   1.00
C419   C     0.66624   0.29575   0.50420   0.00000  Uiso   1.00
C420   C     0.74887   0.26581   0.50825   0.00000  Uiso   1.00
H421   H     0.92159   0.47261   0.50066   0.00000  Uiso   1.00
H422   H     0.93021   0.44398   0.06671   0.00000  Uiso   1.00
H423   H     0.95095   0.38266   0.72311   0.00000  Uiso   1.00
H424   H     0.90488   0.35208   0.62681   0.00000  Uiso   1.00
H425   H     0.88256   0.41456  -0.01088   0.00000  Uiso   1.00
H426   H     0.87867   0.32302   0.18388   0.00000  Uiso   1.00
H427   H     0.81439   0.35069   0.61173   0.00000  Uiso   1.00
H428   H     0.76994   0.32121   0.73775   0.00000  Uiso   1.00
H429   H     0.83413   0.28987  -0.05613   0.00000  Uiso   1.00
H430   H     0.57294   0.47233   0.73457   0.00000  Uiso   1.00
H431   H     0.57913   0.43670   0.25072   0.00000  Uiso   1.00
H432   H     0.53723   0.39105   0.94323   0.00000  Uiso   1.00
H433   H     0.58078   0.35517   0.95052   0.00000  Uiso   1.00
H434   H     0.62289   0.40076   0.25781   0.00000  Uiso   1.00
H435   H     0.62984   0.33802   0.98504   0.00000  Uiso   1.00
H436   H     0.69064   0.33147   1.06955   0.00000  Uiso   1.00
H437   H     0.73549   0.29863   0.97478   0.00000  Uiso   1.00
H438   H     0.64642   0.29407   0.37712   0.00000  Uiso   1.00
H439   H     0.71427   0.23811   0.94832   0.00000  Uiso   1.00
H440   H     0.69222   0.26280   0.27127   0.00000  Uiso   1.00
C441   C     0.00000   0.01629   0.50000   0.00000  Uiso   1.00
C442   C     0.00000   0.08067   0.50000   0.00000  Uiso   1.00
C443   C     0.00000   0.48361   0.50000   0.00000  Uiso   1.00
C444   C     0.00000   0.41911   0.50000   0.00000  Uiso   1.00
H445   H     0.00000   0.10562   0.50000   0.00000  Uiso   1.00
C446   C     0.50000   0.51629   0.50000   0.00000  Uiso   1.00
C447   C     0.50000   0.58067   0.50000   0.00000  Uiso   1.00
C448   C     0.50000   0.98361   0.50000   0.00000  Uiso   1.00
C449   C     0.50000   0.91911   0.50000   0.00000  Uiso   1.00
H450   H     0.50000   0.60562   0.50000   0.00000  Uiso   1.00
C451   C     0.00000   0.98371   0.50000   0.00000  Uiso   1.00
C452   C     0.00000   0.91933   0.50000   0.00000  Uiso   1.00
C453   C     0.00000   0.51639   0.50000   0.00000  Uiso   1.00
C454   C     0.00000   0.58089   0.50000   0.00000  Uiso   1.00
H455   H     0.00000   0.89438   0.50000   0.00000  Uiso   1.00
C456   C     0.50000   0.48371   0.50000   0.00000  Uiso   1.00
C457   C     0.50000   0.41933   0.50000   0.00000  Uiso   1.00
C458   C     0.50000   0.01639   0.50000   0.00000  Uiso   1.00
C459   C     0.50000   0.08089   0.50000   0.00000  Uiso   1.00
H460   H     0.50000   0.39438   0.50000   0.00000  Uiso   1.00
H461   H     0.50000   0.10572   0.50000   0.00000  Uiso   1.00
H462   H     0.00000   0.60572   0.50000   0.00000  Uiso   1.00
H463   H     0.50000   0.89428   0.50000   0.00000  Uiso   1.00
H464   H     0.00000   0.39428   0.50000   0.00000  Uiso   1.00
loop_
_geom_bond_atom_site_label_1
_geom_bond_atom_site_label_2
_geom_bond_distance
_geom_bond_site_symmetry_2
_ccdc_geom_bond_type
C1     C2      1.427   .     S
C1     C5      1.513   .     S
C1     C459    1.410   .     D
C2     C3      1.389   .     D
C2     C458    1.418   .     S
C3     H36     1.064   .     S
C3     C333    1.398   1_545 S
C4     C5      1.433   .     D
C4     C9      1.416   .     S
C4     H37     1.040   .     S
C5     C6      1.359   .     S
C6     C7      1.416   .     D
C6     H38     1.100   .     S
C7     C8      1.428   .     S
C7     H39     1.042   .     S
C8     C9      1.349   .     D
C8     N10     1.431   .     S
C9     H40     1.104   .     S
N10    C11     1.304   .     D
C11    C12     1.426   .     S
C11    H41     1.044   .     S
C12    C13     1.227   .     S
C12    C17     1.399   .     D
C13    C14     1.334   .     D
C13    H42     1.078   .     S
C14    C15     1.413   .     S
C14    H43     0.941   .     S
C15    C16     1.224   .     D
C15    C35     1.443   .     S
C16    C17     1.345   .     S
C16    H329    1.077   .     S
C17    H44     0.948   .     S
C18    C19     1.419   .     S
C18    C22     1.482   .     D
C18    C442    1.420   .     S
C19    C20     1.436   .     D
C19    C441    1.444   .     S
C20    H45     1.108   .     S
C20    C350    1.399   1_545 S
C21    C22     1.230   .     S
C21    C26     1.387   .     D
C21    H46     1.047   .     S
C22    C23     1.359   .     S
C23    C24     1.391   .     D
C23    H47     0.953   .     S
C24    C25     1.232   .     S
C24    H48     1.046   .     S
C25    C26     1.357   .     S
C25    N27     1.411   .     D
C26    H49     0.945   .     S
N27    C28     1.295   .     S
C28    C29     1.419   .     D
C28    H50     0.950   .     S
C29    C30     1.438   .     S
C29    C34     1.335   .     S
C30    C31     1.345   .     D
C30    H51     1.031   .     S
C31    C32     1.323   .     S
C31    H52     1.109   .     S
C32    C33     1.449   .     S
C32    C35     1.418   .     D
C33    C34     1.345   .     D
C33    H55     1.034   .     S
C34    H53     1.117   .     S
C35    C310    1.387   .     S
H54    C291    1.077   .     S
C56    C57     1.427   .     D
C56    C60     1.513   .     S
C56    C454    1.410   1_655 S
C57    C58     1.389   .     S
C57    C453    1.418   1_655 S
C58    H91     1.064   .     S
C58    C388    1.398   .     D
C59    C60     1.433   .     S
C59    C64     1.416   .     D
C59    H92     1.040   .     S
C60    C61     1.359   .     D
C61    C62     1.416   .     S
C61    H93     1.100   .     S
C62    C63     1.428   .     D
C62    H94     1.042   .     S
C63    C64     1.349   .     S
C63    N65     1.431   .     S
C64    H95     1.104   .     S
N65    C66     1.304   .     D
C66    C67     1.426   .     S
C66    H96     1.044   .     S
C67    C68     1.227   .     D
C67    C72     1.399   .     S
C68    C69     1.334   .     S
C68    H97     1.078   .     S
C69    C70     1.413   .     D
C69    H98     0.941   .     S
C70    C71     1.224   .     S
C70    C90     1.443   .     S
C71    C72     1.345   .     D
C71    H274    1.077   .     S
C72    H99     0.948   .     S
C73    C74     1.419   .     S
C73    C77     1.482   .     S
C73    C447    1.420   .     D
C74    C75     1.436   .     D
C74    C446    1.444   .     S
C75    H100    1.108   .     S
C75    C405    1.399   .     S
C76    C77     1.230   .     S
C76    C81     1.387   .     D
C76    H101    1.047   .     S
C77    C78     1.359   .     D
C78    C79     1.391   .     S
C78    H102    0.953   .     S
C79    C80     1.232   .     D
C79    H103    1.046   .     S
C80    C81     1.357   .     S
C80    N82     1.411   .     S
C81    H104    0.945   .     S
N82    C83     1.295   .     D
C83    C84     1.419   .     S
C83    H105    0.950   .     S
C84    C85     1.438   .     D
C84    C89     1.335   .     S
C85    C86     1.345   .     S
C85    H106    1.031   .     S
C86    C87     1.323   .     D
C86    H107    1.109   .     S
C87    C88     1.449   .     S
C87    C90     1.418   .     S
C88    C89     1.345   .     D
C88    H110    1.034   .     S
C89    H108    1.117   .     S
C90    C255    1.387   .     D
H109   C236    1.077   .     S
C111   C112    1.427   .     D
C111   C115    1.513   .     S
C111   C459    1.410   .     S
C112   C113    1.389   .     S
C112   C458    1.418   .     S
C113   H146    1.064   .     S
C113   C223    1.398   1_545 D
C114   C115    1.433   .     D
C114   C119    1.416   .     S
C114   H147    1.040   .     S
C115   C116    1.359   .     S
C116   C117    1.416   .     D
C116   H148    1.100   .     S
C117   C118    1.428   .     S
C117   H149    1.042   .     S
C118   C119    1.349   .     D
C118   N120    1.431   .     S
C119   H150    1.104   .     S
N120   C121    1.304   .     D
C121   C122    1.426   .     S
C121   H151    1.044   .     S
C122   C123    1.227   .     D
C122   C127    1.399   .     S
C123   C124    1.334   .     S
C123   H152    1.078   .     S
C124   C125    1.413   .     D
C124   H153    0.941   .     S
C125   C126    1.224   .     S
C125   C145    1.443   .     S
C126   C127    1.345   .     D
C126   H439    1.077   .     S
C127   H154    0.948   .     S
C128   C129    1.419   .     S
C128   C132    1.482   .     S
C128   C442    1.420   1_655 D
C129   C130    1.436   .     D
C129   C441    1.444   1_655 S
C130   H155    1.108   .     S
C130   C240    1.399   1_545 S
C131   C132    1.230   .     D
C131   C136    1.387   .     S
C131   H156    1.047   .     S
C132   C133    1.359   .     S
C133   C134    1.391   .     D
C133   H157    0.953   .     S
C134   C135    1.232   .     S
C134   H158    1.046   .     S
C135   C136    1.357   .     D
C135   N137    1.411   .     S
C136   H159    0.945   .     S
N137   C138    1.295   .     D
C138   C139    1.419   .     S
C138   H160    0.950   .     S
C139   C140    1.438   .     S
C139   C144    1.335   .     D
C140   C141    1.345   .     D
C140   H161    1.031   .     S
C141   C142    1.323   .     S
C141   H162    1.109   .     S
C142   C143    1.449   .     D
C142   C145    1.418   .     S
C143   C144    1.345   .     S
C143   H165    1.034   .     S
C144   H163    1.117   .     S
C145   C420    1.387   .     D
H164   C401    1.077   .     S
C166   C167    1.427   .     S
C166   C170    1.513   .     S
C166   C454    1.410   .     D
C167   C168    1.389   .     S
C167   C453    1.418   .     D
C168   H201    1.064   .     S
C168   C278    1.398   .     D
C169   C170    1.433   .     D
C169   C174    1.416   .     S
C169   H202    1.040   .     S
C170   C171    1.359   .     S
C171   C172    1.416   .     D
C171   H203    1.100   .     S
C172   C173    1.428   .     S
C172   H204    1.042   .     S
C173   C174    1.349   .     D
C173   N175    1.431   .     S
C174   H205    1.104   .     S
N175   C176    1.304   .     D
C176   C177    1.426   .     S
C176   H206    1.044   .     S
C177   C178    1.227   .     S
C177   C182    1.399   .     D
C178   C179    1.334   .     D
C178   H207    1.078   .     S
C179   C180    1.413   .     S
C179   H208    0.941   .     S
C180   C181    1.224   .     D
C180   C200    1.443   .     S
C181   C182    1.345   .     S
C181   H384    1.077   .     S
C182   H209    0.948   .     S
C183   C184    1.419   .     S
C183   C187    1.482   .     D
C183   C447    1.420   .     S
C184   C185    1.436   .     D
C184   C446    1.444   .     S
C185   H210    1.108   .     S
C185   C295    1.399   .     S
C186   C187    1.230   .     S
C186   C191    1.387   .     D
C186   H211    1.047   .     S
C187   C188    1.359   .     S
C188   C189    1.391   .     D
C188   H212    0.953   .     S
C189   C190    1.232   .     S
C189   H213    1.046   .     S
C190   C191    1.357   .     S
C190   N192    1.411   .     D
C191   H214    0.945   .     S
N192   C193    1.295   .     S
C193   C194    1.419   .     D
C193   H215    0.950   .     S
C194   C195    1.438   .     S
C194   C199    1.335   .     S
C195   C196    1.345   .     D
C195   H216    1.031   .     S
C196   C197    1.323   .     S
C196   H217    1.109   .     S
C197   C198    1.449   .     S
C197   C200    1.418   .     D
C198   C199    1.345   .     D
C198   H220    1.034   .     S
C199   H218    1.117   .     S
C200   C365    1.387   .     S
H219   C346    1.077   .     S
C221   C222    1.427   .     D
C221   C225    1.513   .     S
C221   C449    1.410   .     S
C222   C223    1.389   .     S
C222   C448    1.418   .     S
C223   C113    1.398   1_565 D
C223   H256    1.064   .     S
C224   C225    1.433   .     D
C224   C229    1.416   .     S
C224   H257    1.040   .     S
C225   C226    1.359   .     S
C226   C227    1.416   .     D
C226   H258    1.100   .     S
C227   C228    1.428   .     S
C227   H259    1.042   .     S
C228   C229    1.349   .     D
C228   N230    1.431   .     S
C229   H260    1.104   .     S
N230   C231    1.304   .     D
C231   C232    1.426   .     S
C231   H261    1.044   .     S
C232   C233    1.227   .     D
C232   C237    1.399   .     S
C233   C234    1.334   .     S
C233   H262    1.078   .     S
C234   C235    1.413   .     D
C234   H263    0.941   .     S
C235   C236    1.224   .     S
C235   C255    1.443   .     S
C236   C237    1.345   .     D
C237   H264    0.948   .     S
C238   C239    1.419   .     S
C238   C242    1.482   .     S
C238   C452    1.420   1_655 D
C239   C240    1.436   .     D
C239   C451    1.444   1_655 S
C240   C130    1.399   1_565 S
C240   H265    1.108   .     S
C241   C242    1.230   .     S
C241   C246    1.387   .     D
C241   H266    1.047   .     S
C242   C243    1.359   .     D
C243   C244    1.391   .     S
C243   H267    0.953   .     S
C244   C245    1.232   .     D
C244   H268    1.046   .     S
C245   C246    1.357   .     S
C245   N247    1.411   .     S
C246   H269    0.945   .     S
N247   C248    1.295   .     D
C248   C249    1.419   .     S
C248   H270    0.950   .     S
C249   C250    1.438   .     D
C249   C254    1.335   .     S
C250   C251    1.345   .     S
C250   H271    1.031   .     S
C251   C252    1.323   .     D
C251   H272    1.109   .     S
C252   C253    1.449   .     S
C252   C255    1.418   .     S
C253   C254    1.345   .     D
C253   H275    1.034   .     S
C254   H273    1.117   .     S
C276   C277    1.427   .     D
C276   C280    1.513   .     S
C276   C444    1.410   .     S
C277   C278    1.389   .     S
C277   C443    1.418   .     S
C278   H311    1.064   .     S
C279   C280    1.433   .     S
C279   C284    1.416   .     D
C279   H312    1.040   .     S
C280   C281    1.359   .     D
C281   C282    1.416   .     S
C281   H313    1.100   .     S
C282   C283    1.428   .     D
C282   H314    1.042   .     S
C283   C284    1.349   .     S
C283   N285    1.431   .     S
C284   H315    1.104   .     S
N285   C286    1.304   .     D
C286   C287    1.426   .     S
C286   H316    1.044   .     S
C287   C288    1.227   .     D
C287   C292    1.399   .     S
C288   C289    1.334   .     S
C288   H317    1.078   .     S
C289   C290    1.413   .     D
C289   H318    0.941   .     S
C290   C291    1.224   .     S
C290   C310    1.443   .     S
C291   C292    1.345   .     D
C292   H319    0.948   .     S
C293   C294    1.419   .     S
C293   C297    1.482   .     D
C293   C457    1.420   .     S
C294   C295    1.436   .     D
C294   C456    1.444   .     S
C295   H320    1.108   .     S
C296   C297    1.230   .     S
C296   C301    1.387   .     D
C296   H321    1.047   .     S
C297   C298    1.359   .     S
C298   C299    1.391   .     D
C298   H322    0.953   .     S
C299   C300    1.232   .     S
C299   H323    1.046   .     S
C300   C301    1.357   .     S
C300   N302    1.411   .     D
C301   H324    0.945   .     S
N302   C303    1.295   .     S
C303   C304    1.419   .     D
C303   H325    0.950   .     S
C304   C305    1.438   .     S
C304   C309    1.335   .     S
C305   C306    1.345   .     D
C305   H326    1.031   .     S
C306   C307    1.323   .     S
C306   H327    1.109   .     S
C307   C308    1.449   .     S
C307   C310    1.418   .     D
C308   C309    1.345   .     D
C308   H330    1.034   .     S
C309   H328    1.117   .     S
C331   C332    1.427   .     S
C331   C335    1.513   .     S
C331   C449    1.410   .     D
C332   C333    1.389   .     D
C332   C448    1.418   .     S
C333   C3      1.398   1_565 S
C333   H366    1.064   .     S
C334   C335    1.433   .     S
C334   C339    1.416   .     D
C334   H367    1.040   .     S
C335   C336    1.359   .     D
C336   C337    1.416   .     S
C336   H368    1.100   .     S
C337   C338    1.428   .     D
C337   H369    1.042   .     S
C338   C339    1.349   .     S
C338   N340    1.431   .     S
C339   H370    1.104   .     S
N340   C341    1.304   .     D
C341   C342    1.426   .     S
C341   H371    1.044   .     S
C342   C343    1.227   .     S
C342   C347    1.399   .     D
C343   C344    1.334   .     D
C343   H372    1.078   .     S
C344   C345    1.413   .     S
C344   H373    0.941   .     S
C345   C346    1.224   .     D
C345   C365    1.443   .     S
C346   C347    1.345   .     S
C347   H374    0.948   .     S
C348   C349    1.419   .     S
C348   C352    1.482   .     D
C348   C452    1.420   .     S
C349   C350    1.436   .     D
C349   C451    1.444   .     S
C350   C20     1.399   1_565 S
C350   H375    1.108   .     S
C351   C352    1.230   .     S
C351   C356    1.387   .     D
C351   H376    1.047   .     S
C352   C353    1.359   .     S
C353   C354    1.391   .     D
C353   H377    0.953   .     S
C354   C355    1.232   .     S
C354   H378    1.046   .     S
C355   C356    1.357   .     S
C355   N357    1.411   .     D
C356   H379    0.945   .     S
N357   C358    1.295   .     S
C358   C359    1.419   .     D
C358   H380    0.950   .     S
C359   C360    1.438   .     S
C359   C364    1.335   .     S
C360   C361    1.345   .     D
C360   H381    1.031   .     S
C361   C362    1.323   .     S
C361   H382    1.109   .     S
C362   C363    1.449   .     S
C362   C365    1.418   .     D
C363   C364    1.345   .     D
C363   H385    1.034   .     S
C364   H383    1.117   .     S
C386   C387    1.427   .     S
C386   C390    1.513   .     S
C386   C444    1.410   1_655 D
C387   C388    1.389   .     S
C387   C443    1.418   1_655 D
C388   H421    1.064   .     S
C389   C390    1.433   .     S
C389   C394    1.416   .     D
C389   H422    1.040   .     S
C390   C391    1.359   .     D
C391   C392    1.416   .     S
C391   H423    1.100   .     S
C392   C393    1.428   .     D
C392   H424    1.042   .     S
C393   C394    1.349   .     S
C393   N395    1.431   .     S
C394   H425    1.104   .     S
N395   C396    1.304   .     D
C396   C397    1.426   .     S
C396   H426    1.044   .     S
C397   C398    1.227   .     D
C397   C402    1.399   .     S
C398   C399    1.334   .     S
C398   H427    1.078   .     S
C399   C400    1.413   .     D
C399   H428    0.941   .     S
C400   C401    1.224   .     S
C400   C420    1.443   .     S
C401   C402    1.345   .     D
C402   H429    0.948   .     S
C403   C404    1.419   .     S
C403   C407    1.482   .     S
C403   C457    1.420   .     D
C404   C405    1.436   .     D
C404   C456    1.444   .     S
C405   H430    1.108   .     S
C406   C407    1.230   .     S
C406   C411    1.387   .     D
C406   H431    1.047   .     S
C407   C408    1.359   .     D
C408   C409    1.391   .     S
C408   H432    0.953   .     S
C409   C410    1.232   .     D
C409   H433    1.046   .     S
C410   C411    1.357   .     S
C410   N412    1.411   .     S
C411   H434    0.945   .     S
N412   C413    1.295   .     D
C413   C414    1.419   .     S
C413   H435    0.950   .     S
C414   C415    1.438   .     S
C414   C419    1.335   .     D
C415   C416    1.345   .     D
C415   H436    1.031   .     S
C416   C417    1.323   .     S
C416   H437    1.109   .     S
C417   C418    1.449   .     D
C417   C420    1.418   .     S
C418   C419    1.345   .     S
C418   H440    1.034   .     S
C419   H438    1.117   .     S
C441   C129    1.444   1_455 S
C441   C451    1.424   1_545 D
C442   C128    1.420   1_455 D
C442   H445    1.091   .     S
C443   C387    1.418   1_455 D
C443   C453    1.433   .     S
C444   C386    1.410   1_455 D
C444   H464    1.086   .     S
C446   C456    1.424   .     D
C447   H450    1.091   .     S
C448   C458    1.433   1_565 D
C449   H463    1.086   .     S
C451   C441    1.424   1_565 D
C451   C239    1.444   1_455 S
C452   C238    1.420   1_455 D
C452   H455    1.091   .     S
C453   C57     1.418   1_455 S
C454   C56     1.410   1_455 S
C454   H462    1.086   .     S
C457   H460    1.091   .     S
C458   C448    1.433   1_545 D
C459   H461    1.086   .     S
