data_413
_audit_creation_date              2023-09-08
_audit_creation_method            'Materials Studio'
_symmetry_space_group_name_H-M    'P1'
_symmetry_Int_Tables_number       1
_symmetry_cell_setting            triclinic
loop_
_symmetry_equiv_pos_as_xyz
  x,y,z
_cell_length_a                    37.0980
_cell_length_b                    36.8016
_cell_length_c                    8.0680
_cell_angle_alpha                 89.9333
_cell_angle_beta                  90.1005
_cell_angle_gamma                 89.9038
loop_
_atom_site_label
_atom_site_type_symbol
_atom_site_fract_x
_atom_site_fract_y
_atom_site_fract_z
_atom_site_U_iso_or_equiv
_atom_site_adp_type
_atom_site_occupancy
C1     C     0.27292   0.88133   0.98764   0.00000  Uiso   1.00
C2     C     0.24301   0.90707   0.97153   0.00000  Uiso   1.00
N3     N     0.25933   0.84708   0.01199   0.00000  Uiso   1.00
C4     C     0.21222   0.88827   0.00258   0.00000  Uiso   1.00
H5     H     0.24425   0.93601   0.93979   0.00000  Uiso   1.00
C6     C     0.22247   0.85010   0.02067   0.00000  Uiso   1.00
H7     H     0.18528   0.90035   0.00904   0.00000  Uiso   1.00
C8     C     0.19772   0.82071   0.03602   0.00000  Uiso   1.00
C9     C     0.20852   0.78344   0.02873   0.00000  Uiso   1.00
C10    C     0.18528   0.75225   0.02644   0.00000  Uiso   1.00
N11    N     0.24325   0.77012   0.02263   0.00000  Uiso   1.00
C12    C     0.20648   0.72154   0.02860   0.00000  Uiso   1.00
H13    H     0.15581   0.75202   0.02038   0.00000  Uiso   1.00
C14    C     0.24351   0.73262   0.02188   0.00000  Uiso   1.00
H15    H     0.19620   0.69374   0.03494   0.00000  Uiso   1.00
C16    C     0.37137   0.71338   0.02404   0.00000  Uiso   1.00
C17    C     0.34066   0.69424   0.99625   0.00000  Uiso   1.00
C18    C     0.31065   0.72005   0.00665   0.00000  Uiso   1.00
N19    N     0.32412   0.75451   0.02322   0.00000  Uiso   1.00
H20    H     0.39830   0.70140   0.03516   0.00000  Uiso   1.00
H21    H     0.33973   0.66504   0.96981   0.00000  Uiso   1.00
C22    C     0.38581   0.78097   0.04128   0.00000  Uiso   1.00
C23    C     0.37513   0.81816   0.02985   0.00000  Uiso   1.00
C24    C     0.39832   0.84932   0.02692   0.00000  Uiso   1.00
N25    N     0.34039   0.83129   0.01770   0.00000  Uiso   1.00
C26    C     0.37704   0.87994   0.02044   0.00000  Uiso   1.00
H27    H     0.42782   0.84950   0.02710   0.00000  Uiso   1.00
C28    C     0.34005   0.86873   0.00965   0.00000  Uiso   1.00
H29    H     0.38733   0.90777   0.02439   0.00000  Uiso   1.00
C30    C     0.30974   0.89226   0.99000   0.00000  Uiso   1.00
C31    C     0.27388   0.70900   0.01213   0.00000  Uiso   1.00
C32    C     0.36099   0.75164   0.03284   0.00000  Uiso   1.00
H33    H     0.26588   0.78655   0.02061   0.00000  Uiso   1.00
H34    H     0.31787   0.81473   0.01418   0.00000  Uiso   1.00
C35    C     0.15821   0.82699   0.05577   0.00000  Uiso   1.00
C36    C     0.13842   0.80431   0.16437   0.00000  Uiso   1.00
C37    C     0.13816   0.85287   0.96393   0.00000  Uiso   1.00
C38    C     0.10086   0.80430   0.16663   0.00000  Uiso   1.00
H39    H     0.15266   0.78588   0.24964   0.00000  Uiso   1.00
C40    C     0.10066   0.85529   0.97631   0.00000  Uiso   1.00
H41    H     0.15150   0.87043   0.87242   0.00000  Uiso   1.00
C42    C     0.08136   0.82951   0.06979   0.00000  Uiso   1.00
H43    H     0.08657   0.78514   0.24799   0.00000  Uiso   1.00
H44    H     0.08600   0.87514   0.89952   0.00000  Uiso   1.00
C45    C     0.42524   0.77380   0.05602   0.00000  Uiso   1.00
C46    C     0.44320   0.74692   0.96164   0.00000  Uiso   1.00
C47    C     0.44675   0.79542   0.16199   0.00000  Uiso   1.00
C48    C     0.48045   0.74188   0.97216   0.00000  Uiso   1.00
H49    H     0.42833   0.73056   0.87037   0.00000  Uiso   1.00
C50    C     0.48424   0.79285   0.16184   0.00000  Uiso   1.00
H51    H     0.43403   0.81473   0.24799   0.00000  Uiso   1.00
C52    C     0.50162   0.76614   0.06548   0.00000  Uiso   1.00
H53    H     0.49357   0.72117   0.89463   0.00000  Uiso   1.00
H54    H     0.50012   0.81106   0.24157   0.00000  Uiso   1.00
C55    C     0.31784   0.93190   0.97848   0.00000  Uiso   1.00
C56    C     0.34577   0.94531   0.87604   0.00000  Uiso   1.00
C57    C     0.29831   0.95761   0.07271   0.00000  Uiso   1.00
C58    C     0.35479   0.98208   0.87273   0.00000  Uiso   1.00
H59    H     0.36052   0.92674   0.79357   0.00000  Uiso   1.00
C60    C     0.30508   0.99479   0.05942   0.00000  Uiso   1.00
H61    H     0.27795   0.94854   0.16273   0.00000  Uiso   1.00
C62    C     0.33378   0.00748   0.96075   0.00000  Uiso   1.00
H63    H     0.37672   0.99157   0.79205   0.00000  Uiso   1.00
H64    H     0.28912   0.01409   0.13334   0.00000  Uiso   1.00
C65    C     0.26718   0.66907   0.01501   0.00000  Uiso   1.00
C66    C     0.28891   0.64657   0.11670   0.00000  Uiso   1.00
C67    C     0.24078   0.65183   0.91599   0.00000  Uiso   1.00
C68    C     0.28703   0.60883   0.10798   0.00000  Uiso   1.00
H69    H     0.30770   0.65879   0.20617   0.00000  Uiso   1.00
C70    C     0.23648   0.61413   0.91757   0.00000  Uiso   1.00
H71    H     0.22401   0.66780   0.82985   0.00000  Uiso   1.00
C72    C     0.26085   0.59211   0.00686   0.00000  Uiso   1.00
H73    H     0.30509   0.59216   0.18531   0.00000  Uiso   1.00
H74    H     0.21611   0.60145   0.83723   0.00000  Uiso   1.00
C75    C     0.55736   0.79129   0.00650   0.00000  Uiso   1.00
H76    H     0.54296   0.81602   0.95730   0.00000  Uiso   1.00
C77    C     0.28474   0.53408   0.95811   0.00000  Uiso   1.00
H78    H     0.31081   0.54604   0.91241   0.00000  Uiso   1.00
C79    C     0.28267   0.49423   0.96377   0.00000  Uiso   1.00
C80    C     0.30854   0.47259   0.88225   0.00000  Uiso   1.00
C81    C     0.25497   0.47674   0.05268   0.00000  Uiso   1.00
C82    C     0.30640   0.43475   0.88623   0.00000  Uiso   1.00
H83    H     0.33002   0.48562   0.80921   0.00000  Uiso   1.00
C84    C     0.25365   0.43900   0.06167   0.00000  Uiso   1.00
H85    H     0.23469   0.49317   0.11822   0.00000  Uiso   1.00
C86    C     0.27924   0.41711   0.97850   0.00000  Uiso   1.00
H87    H     0.32553   0.41892   0.81109   0.00000  Uiso   1.00
H88    H     0.23259   0.42630   0.13826   0.00000  Uiso   1.00
C89    C     0.27496   0.37698   0.98264   0.00000  Uiso   1.00
C90    C     0.23960   0.36384   0.97045   0.00000  Uiso   1.00
C91    C     0.30369   0.35139   0.99960   0.00000  Uiso   1.00
C92    C     0.23088   0.32674   0.96932   0.00000  Uiso   1.00
H93    H     0.21753   0.38377   0.96204   0.00000  Uiso   1.00
C94    C     0.29611   0.31318   0.99332   0.00000  Uiso   1.00
C95    C     0.34036   0.36257   0.02257   0.00000  Uiso   1.00
C96    C     0.25961   0.30088   0.97510   0.00000  Uiso   1.00
C97    C     0.19187   0.31784   0.96551   0.00000  Uiso   1.00
C98    C     0.32514   0.28717   0.00524   0.00000  Uiso   1.00
C99    C     0.36790   0.33788   0.03276   0.00000  Uiso   1.00
H100   H     0.34694   0.39162   0.03224   0.00000  Uiso   1.00
C101   C     0.25326   0.26252   0.96653   0.00000  Uiso   1.00
C102   C     0.16834   0.34061   0.87432   0.00000  Uiso   1.00
C103   C     0.17640   0.28952   0.06002   0.00000  Uiso   1.00
C104   C     0.31775   0.24901   0.99239   0.00000  Uiso   1.00
C105   C     0.36148   0.29943   0.02941   0.00000  Uiso   1.00
H106   H     0.39555   0.34835   0.04220   0.00000  Uiso   1.00
C107   C     0.28077   0.23789   0.98064   0.00000  Uiso   1.00
H108   H     0.22577   0.25216   0.94850   0.00000  Uiso   1.00
C109   C     0.13117   0.33594   0.88099   0.00000  Uiso   1.00
H110   H     0.17913   0.36227   0.79445   0.00000  Uiso   1.00
C111   C     0.13925   0.28377   0.06072   0.00000  Uiso   1.00
H112   H     0.19328   0.27255   0.14150   0.00000  Uiso   1.00
C113   C     0.34692   0.22349   0.99125   0.00000  Uiso   1.00
C114   C     0.38990   0.27339   0.04792   0.00000  Uiso   1.00
H115   H     0.27373   0.20890   0.98454   0.00000  Uiso   1.00
C116   C     0.11594   0.30730   0.97345   0.00000  Uiso   1.00
H117   H     0.11355   0.35442   0.81006   0.00000  Uiso   1.00
H118   H     0.12794   0.26161   0.13602   0.00000  Uiso   1.00
C119   C     0.38181   0.23647   0.02418   0.00000  Uiso   1.00
C120   C     0.34207   0.18408   0.95851   0.00000  Uiso   1.00
C121   C     0.42798   0.28333   0.08250   0.00000  Uiso   1.00
H122   H     0.40402   0.21668   0.03124   0.00000  Uiso   1.00
C123   C     0.31508   0.17097   0.84994   0.00000  Uiso   1.00
C124   C     0.36466   0.15794   0.03514   0.00000  Uiso   1.00
C125   C     0.43783   0.31240   0.18776   0.00000  Uiso   1.00
C126   C     0.45618   0.26325   0.00807   0.00000  Uiso   1.00
C127   C     0.30848   0.13389   0.83351   0.00000  Uiso   1.00
H128   H     0.29926   0.18986   0.77305   0.00000  Uiso   1.00
C129   C     0.35919   0.12081   0.01263   0.00000  Uiso   1.00
H130   H     0.38626   0.16653   0.12011   0.00000  Uiso   1.00
C131   C     0.47377   0.32273   0.20676   0.00000  Uiso   1.00
H132   H     0.41729   0.32682   0.26060   0.00000  Uiso   1.00
C133   C     0.49213   0.27264   0.03217   0.00000  Uiso   1.00
H134   H     0.45005   0.24051   0.92418   0.00000  Uiso   1.00
C135   C     0.33007   0.10804   0.91639   0.00000  Uiso   1.00
H136   H     0.28661   0.12479   0.75093   0.00000  Uiso   1.00
H137   H     0.37689   0.10119   0.07617   0.00000  Uiso   1.00
C138   C     0.50159   0.30319   0.12812   0.00000  Uiso   1.00
H139   H     0.48035   0.34584   0.28808   0.00000  Uiso   1.00
H140   H     0.51355   0.25679   0.97136   0.00000  Uiso   1.00
N141   N     0.25794   0.55406   0.00203   0.00000  Uiso   1.00
N142   N     0.53962   0.76383   0.06171   0.00000  Uiso   1.00
C143   C     0.82119   0.60049   0.88323   0.00000  Uiso   1.00
C144   C     0.79726   0.62472   0.80371   0.00000  Uiso   1.00
C145   C     0.84962   0.61528   0.97776   0.00000  Uiso   1.00
C146   C     0.80131   0.66220   0.81957   0.00000  Uiso   1.00
H147   H     0.77560   0.61403   0.72399   0.00000  Uiso   1.00
C148   C     0.85272   0.65271   0.99893   0.00000  Uiso   1.00
H149   H     0.86886   0.59696   0.03995   0.00000  Uiso   1.00
C150   C     0.82824   0.67715   0.92307   0.00000  Uiso   1.00
H151   H     0.78359   0.67997   0.74594   0.00000  Uiso   1.00
H152   H     0.87405   0.66298   0.08151   0.00000  Uiso   1.00
C153   C     0.83176   0.71691   0.95091   0.00000  Uiso   1.00
C154   C     0.86665   0.73136   0.96354   0.00000  Uiso   1.00
C155   C     0.80177   0.74108   0.96728   0.00000  Uiso   1.00
C156   C     0.87403   0.76858   0.98335   0.00000  Uiso   1.00
H157   H     0.88949   0.71232   0.95663   0.00000  Uiso   1.00
C158   C     0.80794   0.77939   0.98406   0.00000  Uiso   1.00
C159   C     0.76523   0.72831   0.96861   0.00000  Uiso   1.00
C160   C     0.84416   0.79322   0.98889   0.00000  Uiso   1.00
C161   C     0.91275   0.77903   0.99318   0.00000  Uiso   1.00
C162   C     0.77767   0.80397   0.99438   0.00000  Uiso   1.00
C163   C     0.73653   0.75169   0.97306   0.00000  Uiso   1.00
H164   H     0.75961   0.69900   0.96622   0.00000  Uiso   1.00
C165   C     0.84888   0.83181   0.00105   0.00000  Uiso   1.00
C166   C     0.93822   0.75817   0.90374   0.00000  Uiso   1.00
C167   C     0.92641   0.80763   0.09218   0.00000  Uiso   1.00
C168   C     0.78372   0.84235   0.00926   0.00000  Uiso   1.00
C169   C     0.74147   0.79016   0.98835   0.00000  Uiso   1.00
H170   H     0.70921   0.74029   0.96587   0.00000  Uiso   1.00
C171   C     0.82023   0.85498   0.01793   0.00000  Uiso   1.00
H172   H     0.87601   0.84365   0.99732   0.00000  Uiso   1.00
C173   C     0.97499   0.76511   0.91476   0.00000  Uiso   1.00
H174   H     0.92933   0.73627   0.82047   0.00000  Uiso   1.00
C175   C     0.96315   0.81591   0.09612   0.00000  Uiso   1.00
H176   H     0.90846   0.82306   0.17471   0.00000  Uiso   1.00
C177   C     0.75373   0.86674   0.01272   0.00000  Uiso   1.00
C178   C     0.71170   0.81468   0.99841   0.00000  Uiso   1.00
H179   H     0.82581   0.88398   0.03762   0.00000  Uiso   1.00
C180   C     0.98830   0.79449   0.00881   0.00000  Uiso   1.00
H181   H     0.99389   0.74795   0.84426   0.00000  Uiso   1.00
H182   H     0.97261   0.83847   0.17428   0.00000  Uiso   1.00
C183   C     0.71886   0.85204   0.00945   0.00000  Uiso   1.00
C184   C     0.75646   0.90699   0.01603   0.00000  Uiso   1.00
C185   C     0.67287   0.80460   0.99391   0.00000  Uiso   1.00
H186   H     0.69582   0.87087   0.01475   0.00000  Uiso   1.00
C187   C     0.78232   0.92647   0.92308   0.00000  Uiso   1.00
C188   C     0.73087   0.92728   0.10708   0.00000  Uiso   1.00
C189   C     0.65749   0.77568   0.08483   0.00000  Uiso   1.00
C190   C     0.64926   0.82734   0.90299   0.00000  Uiso   1.00
C191   C     0.78368   0.96429   0.92821   0.00000  Uiso   1.00
H192   H     0.80097   0.91213   0.83967   0.00000  Uiso   1.00
C193   C     0.73120   0.96514   0.10631   0.00000  Uiso   1.00
H194   H     0.71061   0.91332   0.18372   0.00000  Uiso   1.00
C195   C     0.62029   0.76980   0.08508   0.00000  Uiso   1.00
H196   H     0.67450   0.75829   0.16398   0.00000  Uiso   1.00
C197   C     0.61214   0.82238   0.90841   0.00000  Uiso   1.00
H198   H     0.66003   0.84932   0.82487   0.00000  Uiso   1.00
C199   C     0.75810   0.98432   0.01960   0.00000  Uiso   1.00
H200   H     0.80428   0.97884   0.85604   0.00000  Uiso   1.00
H201   H     0.71089   0.98008   0.17891   0.00000  Uiso   1.00
C202   C     0.59685   0.79357   0.99972   0.00000  Uiso   1.00
H203   H     0.60912   0.74731   0.15875   0.00000  Uiso   1.00
H204   H     0.59450   0.84097   0.83810   0.00000  Uiso   1.00
C205   C     0.53973   0.31375   0.14349   0.00000  Uiso   1.00
H206   H     0.54594   0.34039   0.20563   0.00000  Uiso   1.00
C207   C     0.02754   0.79978   0.01553   0.00000  Uiso   1.00
H208   H     0.04369   0.77599   0.96847   0.00000  Uiso   1.00
N209   N     0.04329   0.82883   0.06665   0.00000  Uiso   1.00
N210   N     0.56425   0.29252   0.08724   0.00000  Uiso   1.00
C211   C     0.78567   0.36893   0.94429   0.00000  Uiso   1.00
C212   C     0.75340   0.39136   0.92373   0.00000  Uiso   1.00
N213   N     0.77557   0.33369   0.97454   0.00000  Uiso   1.00
C214   C     0.72465   0.36983   0.95895   0.00000  Uiso   1.00
H215   H     0.75182   0.41997   0.88632   0.00000  Uiso   1.00
C216   C     0.73865   0.33307   0.98450   0.00000  Uiso   1.00
H217   H     0.69667   0.37921   0.96196   0.00000  Uiso   1.00
C218   C     0.71709   0.30147   0.00830   0.00000  Uiso   1.00
C219   C     0.73120   0.26534   0.00016   0.00000  Uiso   1.00
C220   C     0.71057   0.23232   0.99934   0.00000  Uiso   1.00
N221   N     0.76684   0.25495   0.98911   0.00000  Uiso   1.00
C222   C     0.73418   0.20348   0.99679   0.00000  Uiso   1.00
H223   H     0.68121   0.22958   0.99702   0.00000  Uiso   1.00
C224   C     0.77012   0.21761   0.98642   0.00000  Uiso   1.00
H225   H     0.72618   0.17492   0.00326   0.00000  Uiso   1.00
C226   C     0.89865   0.21068   0.00309   0.00000  Uiso   1.00
C227   C     0.87034   0.18835   0.97097   0.00000  Uiso   1.00
C228   C     0.83785   0.21096   0.97405   0.00000  Uiso   1.00
N229   N     0.84754   0.24671   0.99087   0.00000  Uiso   1.00
H230   H     0.92652   0.20163   0.02134   0.00000  Uiso   1.00
H231   H     0.87244   0.15910   0.94736   0.00000  Uiso   1.00
C232   C     0.90609   0.27949   0.01448   0.00000  Uiso   1.00
C233   C     0.89232   0.31556   0.99886   0.00000  Uiso   1.00
C234   C     0.91289   0.34854   0.99413   0.00000  Uiso   1.00
N235   N     0.85670   0.32570   0.98265   0.00000  Uiso   1.00
C236   C     0.88924   0.37726   0.98194   0.00000  Uiso   1.00
H237   H     0.94226   0.35121   0.99708   0.00000  Uiso   1.00
C238   C     0.85338   0.36294   0.97018   0.00000  Uiso   1.00
H239   H     0.89717   0.40588   0.98243   0.00000  Uiso   1.00
C240   C     0.82118   0.38352   0.94679   0.00000  Uiso   1.00
C241   C     0.80229   0.19656   0.97446   0.00000  Uiso   1.00
C242   C     0.88436   0.24774   0.00650   0.00000  Uiso   1.00
H243   H     0.78817   0.27303   0.98537   0.00000  Uiso   1.00
H244   H     0.83548   0.30749   0.97940   0.00000  Uiso   1.00
C245   C     0.67754   0.30377   0.03944   0.00000  Uiso   1.00
C246   C     0.66188   0.27920   0.15389   0.00000  Uiso   1.00
C247   C     0.65361   0.32727   0.95448   0.00000  Uiso   1.00
C248   C     0.62474   0.27550   0.17050   0.00000  Uiso   1.00
H249   H     0.67931   0.26210   0.23203   0.00000  Uiso   1.00
C250   C     0.61641   0.32605   0.98090   0.00000  Uiso   1.00
H251   H     0.66340   0.34577   0.85757   0.00000  Uiso   1.00
C252   C     0.60135   0.29918   0.08436   0.00000  Uiso   1.00
H253   H     0.61368   0.25531   0.25713   0.00000  Uiso   1.00
H254   H     0.59862   0.34437   0.91025   0.00000  Uiso   1.00
C255   C     0.94595   0.27600   0.03014   0.00000  Uiso   1.00
C256   C     0.96602   0.25077   0.93546   0.00000  Uiso   1.00
C257   C     0.96547   0.29956   0.13556   0.00000  Uiso   1.00
C258   C     0.00353   0.24896   0.94592   0.00000  Uiso   1.00
H259   H     0.95250   0.23319   0.84447   0.00000  Uiso   1.00
C260   C     0.00304   0.30023   0.13535   0.00000  Uiso   1.00
H261   H     0.95114   0.31781   0.22099   0.00000  Uiso   1.00
C262   C     0.02249   0.27498   0.03928   0.00000  Uiso   1.00
H263   H     0.01842   0.22948   0.86854   0.00000  Uiso   1.00
H264   H     0.01740   0.31977   0.21464   0.00000  Uiso   1.00
C265   C     0.82538   0.42374   0.93437   0.00000  Uiso   1.00
C266   C     0.85208   0.43986   0.83327   0.00000  Uiso   1.00
C267   C     0.80320   0.44735   0.02774   0.00000  Uiso   1.00
C268   C     0.85749   0.47736   0.83071   0.00000  Uiso   1.00
H269   H     0.86875   0.42286   0.75152   0.00000  Uiso   1.00
C270   C     0.80645   0.48502   0.01567   0.00000  Uiso   1.00
H271   H     0.78353   0.43622   0.11620   0.00000  Uiso   1.00
C272   C     0.83403   0.50052   0.91856   0.00000  Uiso   1.00
H273   H     0.87857   0.48903   0.75115   0.00000  Uiso   1.00
H274   H     0.78866   0.50262   0.08961   0.00000  Uiso   1.00
C275   C     0.79798   0.15630   0.97317   0.00000  Uiso   1.00
C276   C     0.81993   0.13392   0.07443   0.00000  Uiso   1.00
C277   C     0.77179   0.13895   0.87346   0.00000  Uiso   1.00
C278   C     0.81723   0.09617   0.07026   0.00000  Uiso   1.00
H279   H     0.83904   0.14616   0.16249   0.00000  Uiso   1.00
C280   C     0.76665   0.10141   0.87970   0.00000  Uiso   1.00
H281   H     0.75546   0.15478   0.78508   0.00000  Uiso   1.00
C282   C     0.78973   0.07953   0.97675   0.00000  Uiso   1.00
H283   H     0.83477   0.07946   0.14977   0.00000  Uiso   1.00
H284   H     0.74583   0.08872   0.80165   0.00000  Uiso   1.00
C285   C     0.07658   0.30387   0.97977   0.00000  Uiso   1.00
H286   H     0.06103   0.32779   0.92974   0.00000  Uiso   1.00
C287   C     0.75941   0.02423   0.02505   0.00000  Uiso   1.00
H288   H     0.73536   0.03856   0.07938   0.00000  Uiso   1.00
C289   C     0.32147   0.06913   0.90504   0.00000  Uiso   1.00
H290   H     0.29474   0.06220   0.84714   0.00000  Uiso   1.00
N291   N     0.78738   0.04146   0.97443   0.00000  Uiso   1.00
N292   N     0.34305   0.04451   0.95946   0.00000  Uiso   1.00
N293   N     0.06047   0.27550   0.03577   0.00000  Uiso   1.00
N294   N     0.83989   0.53825   0.91905   0.00000  Uiso   1.00
C295   C     0.81585   0.56101   0.86979   0.00000  Uiso   1.00
H296   H     0.78952   0.55191   0.81429   0.00000  Uiso   1.00
C297   C     0.27292   0.88133   0.48764   0.00000  Uiso   1.00
C298   C     0.24301   0.90707   0.47153   0.00000  Uiso   1.00
N299   N     0.25933   0.84708   0.51199   0.00000  Uiso   1.00
C300   C     0.21222   0.88827   0.50258   0.00000  Uiso   1.00
H301   H     0.24425   0.93601   0.43979   0.00000  Uiso   1.00
C302   C     0.22247   0.85010   0.52067   0.00000  Uiso   1.00
H303   H     0.18528   0.90035   0.50904   0.00000  Uiso   1.00
C304   C     0.19772   0.82071   0.53602   0.00000  Uiso   1.00
C305   C     0.20852   0.78344   0.52873   0.00000  Uiso   1.00
C306   C     0.18528   0.75225   0.52644   0.00000  Uiso   1.00
N307   N     0.24325   0.77012   0.52263   0.00000  Uiso   1.00
C308   C     0.20648   0.72154   0.52860   0.00000  Uiso   1.00
H309   H     0.15581   0.75202   0.52038   0.00000  Uiso   1.00
C310   C     0.24351   0.73262   0.52188   0.00000  Uiso   1.00
H311   H     0.19620   0.69374   0.53494   0.00000  Uiso   1.00
C312   C     0.37137   0.71338   0.52404   0.00000  Uiso   1.00
C313   C     0.34066   0.69424   0.49625   0.00000  Uiso   1.00
C314   C     0.31065   0.72005   0.50665   0.00000  Uiso   1.00
N315   N     0.32412   0.75451   0.52322   0.00000  Uiso   1.00
H316   H     0.39830   0.70140   0.53516   0.00000  Uiso   1.00
H317   H     0.33973   0.66504   0.46981   0.00000  Uiso   1.00
C318   C     0.38581   0.78097   0.54128   0.00000  Uiso   1.00
C319   C     0.37513   0.81816   0.52985   0.00000  Uiso   1.00
C320   C     0.39832   0.84932   0.52692   0.00000  Uiso   1.00
N321   N     0.34039   0.83129   0.51770   0.00000  Uiso   1.00
C322   C     0.37704   0.87994   0.52044   0.00000  Uiso   1.00
H323   H     0.42782   0.84950   0.52710   0.00000  Uiso   1.00
C324   C     0.34005   0.86873   0.50965   0.00000  Uiso   1.00
H325   H     0.38733   0.90777   0.52439   0.00000  Uiso   1.00
C326   C     0.30974   0.89226   0.49000   0.00000  Uiso   1.00
C327   C     0.27388   0.70900   0.51213   0.00000  Uiso   1.00
C328   C     0.36099   0.75164   0.53284   0.00000  Uiso   1.00
H329   H     0.26588   0.78655   0.52061   0.00000  Uiso   1.00
H330   H     0.31787   0.81473   0.51418   0.00000  Uiso   1.00
C331   C     0.15821   0.82699   0.55577   0.00000  Uiso   1.00
C332   C     0.13842   0.80431   0.66437   0.00000  Uiso   1.00
C333   C     0.13816   0.85287   0.46393   0.00000  Uiso   1.00
C334   C     0.10086   0.80430   0.66663   0.00000  Uiso   1.00
H335   H     0.15266   0.78588   0.74964   0.00000  Uiso   1.00
C336   C     0.10066   0.85529   0.47631   0.00000  Uiso   1.00
H337   H     0.15150   0.87043   0.37242   0.00000  Uiso   1.00
C338   C     0.08136   0.82951   0.56979   0.00000  Uiso   1.00
H339   H     0.08657   0.78514   0.74799   0.00000  Uiso   1.00
H340   H     0.08600   0.87514   0.39952   0.00000  Uiso   1.00
C341   C     0.42524   0.77380   0.55602   0.00000  Uiso   1.00
C342   C     0.44320   0.74692   0.46164   0.00000  Uiso   1.00
C343   C     0.44675   0.79542   0.66199   0.00000  Uiso   1.00
C344   C     0.48045   0.74188   0.47216   0.00000  Uiso   1.00
H345   H     0.42833   0.73056   0.37037   0.00000  Uiso   1.00
C346   C     0.48424   0.79285   0.66184   0.00000  Uiso   1.00
H347   H     0.43403   0.81473   0.74799   0.00000  Uiso   1.00
C348   C     0.50162   0.76614   0.56548   0.00000  Uiso   1.00
H349   H     0.49357   0.72117   0.39463   0.00000  Uiso   1.00
H350   H     0.50012   0.81106   0.74157   0.00000  Uiso   1.00
C351   C     0.31784   0.93190   0.47848   0.00000  Uiso   1.00
C352   C     0.34577   0.94531   0.37604   0.00000  Uiso   1.00
C353   C     0.29831   0.95761   0.57271   0.00000  Uiso   1.00
C354   C     0.35479   0.98208   0.37273   0.00000  Uiso   1.00
H355   H     0.36052   0.92674   0.29357   0.00000  Uiso   1.00
C356   C     0.30508   0.99479   0.55942   0.00000  Uiso   1.00
H357   H     0.27795   0.94854   0.66273   0.00000  Uiso   1.00
C358   C     0.33378   0.00748   0.46075   0.00000  Uiso   1.00
H359   H     0.37672   0.99157   0.29205   0.00000  Uiso   1.00
H360   H     0.28912   0.01409   0.63334   0.00000  Uiso   1.00
C361   C     0.26718   0.66907   0.51501   0.00000  Uiso   1.00
C362   C     0.28891   0.64657   0.61670   0.00000  Uiso   1.00
C363   C     0.24078   0.65183   0.41599   0.00000  Uiso   1.00
C364   C     0.28703   0.60883   0.60798   0.00000  Uiso   1.00
H365   H     0.30770   0.65879   0.70617   0.00000  Uiso   1.00
C366   C     0.23648   0.61413   0.41757   0.00000  Uiso   1.00
H367   H     0.22401   0.66780   0.32985   0.00000  Uiso   1.00
C368   C     0.26085   0.59211   0.50686   0.00000  Uiso   1.00
H369   H     0.30509   0.59216   0.68531   0.00000  Uiso   1.00
H370   H     0.21611   0.60145   0.33723   0.00000  Uiso   1.00
C371   C     0.55736   0.79129   0.50650   0.00000  Uiso   1.00
H372   H     0.54296   0.81602   0.45730   0.00000  Uiso   1.00
C373   C     0.28474   0.53408   0.45811   0.00000  Uiso   1.00
H374   H     0.31081   0.54604   0.41241   0.00000  Uiso   1.00
C375   C     0.28267   0.49423   0.46377   0.00000  Uiso   1.00
C376   C     0.30854   0.47259   0.38225   0.00000  Uiso   1.00
C377   C     0.25497   0.47674   0.55268   0.00000  Uiso   1.00
C378   C     0.30640   0.43475   0.38623   0.00000  Uiso   1.00
H379   H     0.33002   0.48562   0.30921   0.00000  Uiso   1.00
C380   C     0.25365   0.43900   0.56167   0.00000  Uiso   1.00
H381   H     0.23469   0.49317   0.61822   0.00000  Uiso   1.00
C382   C     0.27924   0.41711   0.47850   0.00000  Uiso   1.00
H383   H     0.32553   0.41892   0.31109   0.00000  Uiso   1.00
H384   H     0.23259   0.42630   0.63826   0.00000  Uiso   1.00
C385   C     0.27496   0.37698   0.48264   0.00000  Uiso   1.00
C386   C     0.23960   0.36384   0.47045   0.00000  Uiso   1.00
C387   C     0.30369   0.35139   0.49960   0.00000  Uiso   1.00
C388   C     0.23088   0.32674   0.46932   0.00000  Uiso   1.00
H389   H     0.21753   0.38377   0.46204   0.00000  Uiso   1.00
C390   C     0.29611   0.31318   0.49332   0.00000  Uiso   1.00
C391   C     0.34036   0.36257   0.52257   0.00000  Uiso   1.00
C392   C     0.25961   0.30088   0.47510   0.00000  Uiso   1.00
C393   C     0.19187   0.31784   0.46551   0.00000  Uiso   1.00
C394   C     0.32514   0.28717   0.50524   0.00000  Uiso   1.00
C395   C     0.36790   0.33788   0.53276   0.00000  Uiso   1.00
H396   H     0.34694   0.39162   0.53224   0.00000  Uiso   1.00
C397   C     0.25326   0.26252   0.46653   0.00000  Uiso   1.00
C398   C     0.16834   0.34061   0.37432   0.00000  Uiso   1.00
C399   C     0.17640   0.28952   0.56002   0.00000  Uiso   1.00
C400   C     0.31775   0.24901   0.49239   0.00000  Uiso   1.00
C401   C     0.36148   0.29943   0.52941   0.00000  Uiso   1.00
H402   H     0.39555   0.34835   0.54220   0.00000  Uiso   1.00
C403   C     0.28077   0.23789   0.48064   0.00000  Uiso   1.00
H404   H     0.22577   0.25216   0.44850   0.00000  Uiso   1.00
C405   C     0.13117   0.33594   0.38099   0.00000  Uiso   1.00
H406   H     0.17913   0.36227   0.29445   0.00000  Uiso   1.00
C407   C     0.13925   0.28377   0.56072   0.00000  Uiso   1.00
H408   H     0.19328   0.27255   0.64150   0.00000  Uiso   1.00
C409   C     0.34692   0.22349   0.49125   0.00000  Uiso   1.00
C410   C     0.38990   0.27339   0.54792   0.00000  Uiso   1.00
H411   H     0.27373   0.20890   0.48454   0.00000  Uiso   1.00
C412   C     0.11594   0.30730   0.47345   0.00000  Uiso   1.00
H413   H     0.11355   0.35442   0.31006   0.00000  Uiso   1.00
H414   H     0.12794   0.26161   0.63602   0.00000  Uiso   1.00
C415   C     0.38181   0.23647   0.52418   0.00000  Uiso   1.00
C416   C     0.34207   0.18408   0.45851   0.00000  Uiso   1.00
C417   C     0.42798   0.28333   0.58250   0.00000  Uiso   1.00
H418   H     0.40402   0.21668   0.53124   0.00000  Uiso   1.00
C419   C     0.31508   0.17097   0.34994   0.00000  Uiso   1.00
C420   C     0.36466   0.15794   0.53514   0.00000  Uiso   1.00
C421   C     0.43783   0.31240   0.68776   0.00000  Uiso   1.00
C422   C     0.45618   0.26325   0.50807   0.00000  Uiso   1.00
C423   C     0.30848   0.13389   0.33351   0.00000  Uiso   1.00
H424   H     0.29926   0.18986   0.27305   0.00000  Uiso   1.00
C425   C     0.35919   0.12081   0.51263   0.00000  Uiso   1.00
H426   H     0.38626   0.16653   0.62011   0.00000  Uiso   1.00
C427   C     0.47377   0.32273   0.70676   0.00000  Uiso   1.00
H428   H     0.41729   0.32682   0.76060   0.00000  Uiso   1.00
C429   C     0.49213   0.27264   0.53217   0.00000  Uiso   1.00
H430   H     0.45005   0.24051   0.42418   0.00000  Uiso   1.00
C431   C     0.33007   0.10804   0.41639   0.00000  Uiso   1.00
H432   H     0.28661   0.12479   0.25093   0.00000  Uiso   1.00
H433   H     0.37689   0.10119   0.57617   0.00000  Uiso   1.00
C434   C     0.50159   0.30319   0.62812   0.00000  Uiso   1.00
H435   H     0.48035   0.34584   0.78808   0.00000  Uiso   1.00
H436   H     0.51355   0.25679   0.47136   0.00000  Uiso   1.00
N437   N     0.25794   0.55406   0.50203   0.00000  Uiso   1.00
N438   N     0.53962   0.76383   0.56171   0.00000  Uiso   1.00
C439   C     0.82119   0.60049   0.38323   0.00000  Uiso   1.00
C440   C     0.79726   0.62472   0.30371   0.00000  Uiso   1.00
C441   C     0.84962   0.61528   0.47776   0.00000  Uiso   1.00
C442   C     0.80131   0.66220   0.31957   0.00000  Uiso   1.00
H443   H     0.77560   0.61403   0.22399   0.00000  Uiso   1.00
C444   C     0.85272   0.65271   0.49893   0.00000  Uiso   1.00
H445   H     0.86886   0.59696   0.53995   0.00000  Uiso   1.00
C446   C     0.82824   0.67715   0.42307   0.00000  Uiso   1.00
H447   H     0.78359   0.67997   0.24594   0.00000  Uiso   1.00
H448   H     0.87405   0.66298   0.58151   0.00000  Uiso   1.00
C449   C     0.83176   0.71691   0.45091   0.00000  Uiso   1.00
C450   C     0.86665   0.73136   0.46354   0.00000  Uiso   1.00
C451   C     0.80177   0.74108   0.46728   0.00000  Uiso   1.00
C452   C     0.87403   0.76858   0.48335   0.00000  Uiso   1.00
H453   H     0.88949   0.71232   0.45663   0.00000  Uiso   1.00
C454   C     0.80794   0.77939   0.48406   0.00000  Uiso   1.00
C455   C     0.76523   0.72831   0.46861   0.00000  Uiso   1.00
C456   C     0.84416   0.79322   0.48889   0.00000  Uiso   1.00
C457   C     0.91275   0.77903   0.49318   0.00000  Uiso   1.00
C458   C     0.77767   0.80397   0.49438   0.00000  Uiso   1.00
C459   C     0.73653   0.75169   0.47306   0.00000  Uiso   1.00
H460   H     0.75961   0.69900   0.46622   0.00000  Uiso   1.00
C461   C     0.84888   0.83181   0.50105   0.00000  Uiso   1.00
C462   C     0.93822   0.75817   0.40374   0.00000  Uiso   1.00
C463   C     0.92641   0.80763   0.59218   0.00000  Uiso   1.00
C464   C     0.78372   0.84235   0.50926   0.00000  Uiso   1.00
C465   C     0.74147   0.79016   0.48835   0.00000  Uiso   1.00
H466   H     0.70921   0.74029   0.46587   0.00000  Uiso   1.00
C467   C     0.82023   0.85498   0.51793   0.00000  Uiso   1.00
H468   H     0.87601   0.84365   0.49732   0.00000  Uiso   1.00
C469   C     0.97499   0.76511   0.41476   0.00000  Uiso   1.00
H470   H     0.92933   0.73627   0.32047   0.00000  Uiso   1.00
C471   C     0.96315   0.81591   0.59612   0.00000  Uiso   1.00
H472   H     0.90846   0.82306   0.67471   0.00000  Uiso   1.00
C473   C     0.75373   0.86674   0.51272   0.00000  Uiso   1.00
C474   C     0.71170   0.81468   0.49841   0.00000  Uiso   1.00
H475   H     0.82581   0.88398   0.53762   0.00000  Uiso   1.00
C476   C     0.98830   0.79449   0.50881   0.00000  Uiso   1.00
H477   H     0.99389   0.74795   0.34426   0.00000  Uiso   1.00
H478   H     0.97261   0.83847   0.67428   0.00000  Uiso   1.00
C479   C     0.71886   0.85204   0.50945   0.00000  Uiso   1.00
C480   C     0.75646   0.90699   0.51603   0.00000  Uiso   1.00
C481   C     0.67287   0.80460   0.49391   0.00000  Uiso   1.00
H482   H     0.69582   0.87087   0.51475   0.00000  Uiso   1.00
C483   C     0.78232   0.92647   0.42308   0.00000  Uiso   1.00
C484   C     0.73087   0.92728   0.60708   0.00000  Uiso   1.00
C485   C     0.65749   0.77568   0.58483   0.00000  Uiso   1.00
C486   C     0.64926   0.82734   0.40299   0.00000  Uiso   1.00
C487   C     0.78368   0.96429   0.42821   0.00000  Uiso   1.00
H488   H     0.80097   0.91213   0.33967   0.00000  Uiso   1.00
C489   C     0.73120   0.96514   0.60631   0.00000  Uiso   1.00
H490   H     0.71061   0.91332   0.68372   0.00000  Uiso   1.00
C491   C     0.62029   0.76980   0.58508   0.00000  Uiso   1.00
H492   H     0.67450   0.75829   0.66398   0.00000  Uiso   1.00
C493   C     0.61214   0.82238   0.40841   0.00000  Uiso   1.00
H494   H     0.66003   0.84932   0.32487   0.00000  Uiso   1.00
C495   C     0.75810   0.98432   0.51960   0.00000  Uiso   1.00
H496   H     0.80428   0.97884   0.35604   0.00000  Uiso   1.00
H497   H     0.71089   0.98008   0.67891   0.00000  Uiso   1.00
C498   C     0.59685   0.79357   0.49972   0.00000  Uiso   1.00
H499   H     0.60912   0.74731   0.65875   0.00000  Uiso   1.00
H500   H     0.59450   0.84097   0.33810   0.00000  Uiso   1.00
C501   C     0.53973   0.31375   0.64349   0.00000  Uiso   1.00
H502   H     0.54594   0.34039   0.70563   0.00000  Uiso   1.00
C503   C     0.02754   0.79978   0.51553   0.00000  Uiso   1.00
H504   H     0.04369   0.77599   0.46847   0.00000  Uiso   1.00
N505   N     0.04329   0.82883   0.56665   0.00000  Uiso   1.00
N506   N     0.56425   0.29252   0.58724   0.00000  Uiso   1.00
C507   C     0.78567   0.36893   0.44429   0.00000  Uiso   1.00
C508   C     0.75340   0.39136   0.42373   0.00000  Uiso   1.00
N509   N     0.77557   0.33369   0.47454   0.00000  Uiso   1.00
C510   C     0.72465   0.36983   0.45895   0.00000  Uiso   1.00
H511   H     0.75182   0.41997   0.38632   0.00000  Uiso   1.00
C512   C     0.73865   0.33307   0.48450   0.00000  Uiso   1.00
H513   H     0.69667   0.37921   0.46196   0.00000  Uiso   1.00
C514   C     0.71709   0.30147   0.50830   0.00000  Uiso   1.00
C515   C     0.73120   0.26534   0.50016   0.00000  Uiso   1.00
C516   C     0.71057   0.23232   0.49934   0.00000  Uiso   1.00
N517   N     0.76684   0.25495   0.48911   0.00000  Uiso   1.00
C518   C     0.73418   0.20348   0.49679   0.00000  Uiso   1.00
H519   H     0.68121   0.22958   0.49702   0.00000  Uiso   1.00
C520   C     0.77012   0.21761   0.48642   0.00000  Uiso   1.00
H521   H     0.72618   0.17492   0.50326   0.00000  Uiso   1.00
C522   C     0.89865   0.21068   0.50309   0.00000  Uiso   1.00
C523   C     0.87034   0.18835   0.47097   0.00000  Uiso   1.00
C524   C     0.83785   0.21096   0.47405   0.00000  Uiso   1.00
N525   N     0.84754   0.24671   0.49087   0.00000  Uiso   1.00
H526   H     0.92652   0.20163   0.52134   0.00000  Uiso   1.00
H527   H     0.87244   0.15910   0.44736   0.00000  Uiso   1.00
C528   C     0.90609   0.27949   0.51448   0.00000  Uiso   1.00
C529   C     0.89232   0.31556   0.49886   0.00000  Uiso   1.00
C530   C     0.91289   0.34854   0.49413   0.00000  Uiso   1.00
N531   N     0.85670   0.32570   0.48265   0.00000  Uiso   1.00
C532   C     0.88924   0.37726   0.48194   0.00000  Uiso   1.00
H533   H     0.94226   0.35121   0.49708   0.00000  Uiso   1.00
C534   C     0.85338   0.36294   0.47018   0.00000  Uiso   1.00
H535   H     0.89717   0.40588   0.48243   0.00000  Uiso   1.00
C536   C     0.82118   0.38352   0.44679   0.00000  Uiso   1.00
C537   C     0.80229   0.19656   0.47446   0.00000  Uiso   1.00
C538   C     0.88436   0.24774   0.50650   0.00000  Uiso   1.00
H539   H     0.78817   0.27303   0.48537   0.00000  Uiso   1.00
H540   H     0.83548   0.30749   0.47940   0.00000  Uiso   1.00
C541   C     0.67754   0.30377   0.53944   0.00000  Uiso   1.00
C542   C     0.66188   0.27920   0.65389   0.00000  Uiso   1.00
C543   C     0.65361   0.32727   0.45448   0.00000  Uiso   1.00
C544   C     0.62474   0.27550   0.67050   0.00000  Uiso   1.00
H545   H     0.67931   0.26210   0.73203   0.00000  Uiso   1.00
C546   C     0.61641   0.32605   0.48090   0.00000  Uiso   1.00
H547   H     0.66340   0.34577   0.35757   0.00000  Uiso   1.00
C548   C     0.60135   0.29918   0.58436   0.00000  Uiso   1.00
H549   H     0.61368   0.25531   0.75713   0.00000  Uiso   1.00
H550   H     0.59862   0.34437   0.41025   0.00000  Uiso   1.00
C551   C     0.94595   0.27600   0.53014   0.00000  Uiso   1.00
C552   C     0.96602   0.25077   0.43546   0.00000  Uiso   1.00
C553   C     0.96547   0.29956   0.63556   0.00000  Uiso   1.00
C554   C     0.00353   0.24896   0.44592   0.00000  Uiso   1.00
H555   H     0.95250   0.23319   0.34447   0.00000  Uiso   1.00
C556   C     0.00304   0.30023   0.63535   0.00000  Uiso   1.00
H557   H     0.95114   0.31781   0.72099   0.00000  Uiso   1.00
C558   C     0.02249   0.27498   0.53928   0.00000  Uiso   1.00
H559   H     0.01842   0.22948   0.36854   0.00000  Uiso   1.00
H560   H     0.01740   0.31977   0.71464   0.00000  Uiso   1.00
C561   C     0.82538   0.42374   0.43437   0.00000  Uiso   1.00
C562   C     0.85208   0.43986   0.33327   0.00000  Uiso   1.00
C563   C     0.80320   0.44735   0.52774   0.00000  Uiso   1.00
C564   C     0.85749   0.47736   0.33071   0.00000  Uiso   1.00
H565   H     0.86875   0.42286   0.25152   0.00000  Uiso   1.00
C566   C     0.80645   0.48502   0.51567   0.00000  Uiso   1.00
H567   H     0.78353   0.43622   0.61620   0.00000  Uiso   1.00
C568   C     0.83403   0.50052   0.41856   0.00000  Uiso   1.00
H569   H     0.87857   0.48903   0.25115   0.00000  Uiso   1.00
H570   H     0.78866   0.50262   0.58961   0.00000  Uiso   1.00
C571   C     0.79798   0.15630   0.47317   0.00000  Uiso   1.00
C572   C     0.81993   0.13392   0.57443   0.00000  Uiso   1.00
C573   C     0.77179   0.13895   0.37346   0.00000  Uiso   1.00
C574   C     0.81723   0.09617   0.57026   0.00000  Uiso   1.00
H575   H     0.83904   0.14616   0.66249   0.00000  Uiso   1.00
C576   C     0.76665   0.10141   0.37970   0.00000  Uiso   1.00
H577   H     0.75546   0.15478   0.28508   0.00000  Uiso   1.00
C578   C     0.78973   0.07953   0.47675   0.00000  Uiso   1.00
H579   H     0.83477   0.07946   0.64977   0.00000  Uiso   1.00
H580   H     0.74583   0.08872   0.30165   0.00000  Uiso   1.00
C581   C     0.07658   0.30387   0.47977   0.00000  Uiso   1.00
H582   H     0.06103   0.32779   0.42974   0.00000  Uiso   1.00
C583   C     0.75941   0.02423   0.52505   0.00000  Uiso   1.00
H584   H     0.73536   0.03856   0.57938   0.00000  Uiso   1.00
C585   C     0.32147   0.06913   0.40504   0.00000  Uiso   1.00
H586   H     0.29474   0.06220   0.34714   0.00000  Uiso   1.00
N587   N     0.78738   0.04146   0.47443   0.00000  Uiso   1.00
N588   N     0.34305   0.04451   0.45946   0.00000  Uiso   1.00
N589   N     0.06047   0.27550   0.53577   0.00000  Uiso   1.00
N590   N     0.83989   0.53825   0.41905   0.00000  Uiso   1.00
C591   C     0.81585   0.56101   0.36979   0.00000  Uiso   1.00
H592   H     0.78952   0.55191   0.31429   0.00000  Uiso   1.00
loop_
_geom_bond_atom_site_label_1
_geom_bond_atom_site_label_2
_geom_bond_distance
_geom_bond_site_symmetry_2
_ccdc_geom_bond_type
C1     C2      1.463   .     S
C1     N3      1.372   1_556 S
C1     C30     1.425   .     D
C2     C4      1.360   1_556 D
C2     H5      1.096   .     S
N3     C1      1.372   1_554 S
N3     C6      1.374   .     D
C4     C2      1.360   1_554 D
C4     C6      1.462   .     S
C4     H7      1.095   .     S
C6     C8      1.425   .     S
C8     C9      1.430   .     S
C8     C35     1.492   .     D
C9     C10     1.437   .     D
C9     N11     1.379   .     S
C10    C12     1.376   .     S
C10    H13     1.094   .     S
N11    C14     1.380   .     S
N11    H33     1.036   .     S
C12    C14     1.435   .     D
C12    H15     1.094   .     S
C14    C31     1.424   .     S
C16    C17     1.359   1_554 D
C16    H20     1.095   .     S
C16    C32     1.461   .     S
C17    C16     1.359   1_556 D
C17    C18     1.465   1_556 S
C17    H21     1.096   .     S
C18    C17     1.465   1_554 S
C18    N19     1.370   .     D
C18    C31     1.425   .     S
N19    C32     1.374   .     S
C22    C23     1.427   .     S
C22    C32     1.422   .     D
C22    C45     1.490   .     S
C23    C24     1.435   .     D
C23    N25     1.379   .     S
C24    C26     1.376   .     S
C24    H27     1.094   .     S
N25    C28     1.379   .     S
N25    H34     1.035   .     S
C26    C28     1.436   .     D
C26    H29     1.094   .     S
C28    C30     1.427   1_554 S
C30    C28     1.427   1_556 S
C30    C55     1.493   .     S
C31    C65     1.491   .     D
C35    C36     1.416   .     S
C35    C37     1.415   1_554 S
C36    C38     1.394   .     D
C36    H39     1.099   .     S
C37    C35     1.415   1_556 S
C37    C40     1.398   .     D
C37    H41     1.099   .     S
C38    C42     1.410   .     S
C38    H43     1.100   .     S
C40    C42     1.409   1_556 S
C40    H44     1.100   .     S
C42    C40     1.409   1_554 S
C42    N209    1.413   .     D
C45    C46     1.415   1_554 S
C45    C47     1.415   .     D
C46    C45     1.415   1_556 S
C46    C48     1.396   .     D
C46    H49     1.100   .     S
C47    C50     1.394   .     S
C47    H51     1.100   .     S
C48    C52     1.408   1_556 S
C48    H53     1.100   .     S
C50    C52     1.410   .     D
C50    H54     1.100   .     S
C52    C48     1.408   1_554 S
C52    N142    1.413   .     S
C55    C56     1.416   .     D
C55    C57     1.414   1_556 S
C56    C58     1.395   .     S
C56    H59     1.100   .     S
C57    C55     1.414   1_554 S
C57    C60     1.396   .     D
C57    H61     1.101   .     S
C58    C62     1.409   1_565 D
C58    H63     1.100   .     S
C60    C62     1.410   1_564 S
C60    H64     1.101   1_565 S
C62    C60     1.410   1_546 S
C62    C58     1.409   1_545 D
C62    N292    1.406   .     S
H64    C60     1.101   1_545 S
C65    C66     1.415   .     S
C65    C67     1.414   1_554 S
C66    C68     1.393   .     D
C66    H69     1.100   .     S
C67    C65     1.414   1_556 S
C67    C70     1.397   .     D
C67    H71     1.101   .     S
C68    C72     1.410   .     S
C68    H73     1.100   .     S
C70    C72     1.410   1_556 S
C70    H74     1.100   .     S
C72    C70     1.410   1_554 S
C72    N141    1.405   .     D
C75    H76     1.126   1_554 S
C75    N142    1.286   .     D
C75    C202    1.469   1_554 S
H76    C75     1.126   1_556 S
C77    H78     1.126   .     S
C77    C79     1.469   .     D
C77    N141    1.286   1_556 S
C79    C80     1.410   .     S
C79    C81     1.410   1_556 S
C80    C82     1.395   .     D
C80    H83     1.102   .     S
C81    C79     1.410   1_554 S
C81    C84     1.392   .     D
C81    H85     1.101   .     S
C82    C86     1.412   .     S
C82    H87     1.101   .     S
C84    C86     1.415   1_554 S
C84    H88     1.101   .     S
C86    C84     1.415   1_556 S
C86    C89     1.486   .     D
C89    C90     1.402   .     S
C89    C91     1.427   .     S
C90    C92     1.404   .     D
C90    H93     1.100   .     S
C91    C94     1.435   .     S
C91    C95     1.434   1_556 D
C92    C96     1.428   .     S
C92    C97     1.485   .     S
C94    C96     1.436   .     D
C94    C98     1.443   1_556 S
C95    C91     1.434   1_554 D
C95    C99     1.368   .     S
C95    H100    1.100   .     S
C96    C101    1.433   .     S
C97    C102    1.414   .     D
C97    C103    1.414   1_556 S
C98    C94     1.443   1_554 S
C98    C104    1.435   1_554 D
C98    C105    1.435   .     S
C99    C105    1.436   .     D
C99    H106    1.099   .     S
C101   C107    1.368   .     D
C101   H108    1.099   .     S
C102   C109    1.391   .     S
C102   H110    1.101   .     S
C103   C97     1.414   1_554 S
C103   C111    1.395   .     D
C103   H112    1.100   .     S
C104   C98     1.435   1_556 D
C104   C107    1.435   .     S
C104   C113    1.432   .     S
C105   C114    1.431   .     S
C107   H115    1.099   .     S
C109   C116    1.410   .     D
C109   H117    1.102   .     S
C111   C116    1.410   1_554 S
C111   H118    1.100   .     S
C113   C119    1.405   1_556 D
C113   C120    1.486   .     S
C114   C119    1.405   .     S
C114   C121    1.486   .     D
C116   C111    1.410   1_556 S
C116   C285    1.467   .     S
C119   C113    1.405   1_554 D
C119   H122    1.100   .     S
C120   C123    1.415   .     D
C120   C124    1.416   1_556 S
C121   C125    1.415   .     S
C121   C126    1.415   .     S
C123   C127    1.393   .     S
C123   H128    1.099   .     S
C124   C120    1.416   1_554 S
C124   C129    1.394   .     D
C124   H130    1.101   .     S
C125   C131    1.395   .     D
C125   H132    1.099   .     S
C126   C133    1.392   .     D
C126   H134    1.101   1_554 S
C127   C135    1.410   .     D
C127   H136    1.102   .     S
C129   C135    1.411   1_554 S
C129   H137    1.101   .     S
C131   C138    1.409   .     S
C131   H139    1.102   .     S
C133   C138    1.410   .     S
C133   H140    1.101   1_554 S
H134   C126    1.101   1_556 S
C135   C129    1.411   1_556 S
C135   C289    1.471   .     S
C138   C205    1.473   .     D
H140   C133    1.101   1_556 S
N141   C77     1.286   1_554 S
C143   C144    1.410   .     S
C143   C145    1.411   .     D
C143   C295    1.471   .     S
C144   C146    1.394   .     D
C144   H147    1.102   .     S
C145   C148    1.393   .     S
C145   H149    1.101   1_556 S
C146   C150    1.414   .     S
C146   H151    1.100   .     S
C148   C150    1.415   .     D
C148   H152    1.101   1_556 S
H149   C145    1.101   1_554 S
C150   C153    1.487   .     S
H152   C148    1.101   1_554 S
C153   C154    1.404   .     D
C153   C155    1.430   .     S
C154   C156    1.407   .     S
C154   H157    1.100   .     S
C155   C158    1.435   .     S
C155   C159    1.436   .     D
C156   C160    1.431   .     S
C156   C161    1.490   .     D
C158   C160    1.438   .     S
C158   C162    1.443   .     D
C159   C163    1.368   .     S
C159   H164    1.099   .     S
C160   C165    1.435   1_556 D
C161   C166    1.416   .     S
C161   C167    1.416   1_556 S
C162   C168    1.436   1_556 S
C162   C169    1.437   .     S
C163   C169    1.433   .     D
C163   H170    1.099   .     S
C165   C160    1.435   1_554 D
C165   C171    1.369   .     S
C165   H172    1.098   1_554 S
C166   C173    1.391   .     D
C166   H174    1.100   .     S
C167   C161    1.416   1_554 S
C167   C175    1.397   .     D
C167   H176    1.100   .     S
C168   C162    1.436   1_554 S
C168   C171    1.434   .     D
C168   C177    1.429   .     S
C169   C178    1.427   .     S
C171   H179    1.099   .     S
H172   C165    1.098   1_556 S
C173   C180    1.411   1_556 S
C173   H181    1.102   .     S
C175   C180    1.410   .     S
C175   H182    1.101   .     S
C177   C183    1.403   .     S
C177   C184    1.485   .     D
C178   C183    1.404   1_556 D
C178   C185    1.489   .     S
C180   C173    1.411   1_554 S
C180   C207    1.470   1_655 D
C183   C178    1.404   1_554 D
C183   H186    1.100   .     S
C184   C187    1.414   1_554 S
C184   C188    1.414   .     S
C185   C189    1.414   1_556 D
C185   C190    1.414   .     S
C187   C184    1.414   1_556 S
C187   C191    1.394   .     D
C187   H192    1.101   .     S
C188   C193    1.393   .     D
C188   H194    1.102   .     S
C189   C185    1.414   1_554 D
C189   C195    1.397   .     S
C189   H196    1.101   .     S
C190   C197    1.390   .     D
C190   H198    1.101   .     S
C191   C199    1.410   1_556 S
C191   H200    1.101   .     S
C193   C199    1.410   .     S
C193   H201    1.102   .     S
C195   C202    1.411   1_554 D
C195   H203    1.100   .     S
C197   C202    1.411   .     S
C197   H204    1.102   .     S
C199   C191    1.410   1_554 S
C199   C287    1.470   1_565 D
C202   C195    1.411   1_556 D
C202   C75     1.469   1_556 S
C205   H206    1.126   .     S
C205   N210    1.282   .     S
C207   C180    1.470   1_455 D
C207   H208    1.127   1_554 S
C207   N209    1.287   .     S
H208   C207    1.127   1_556 S
N210   C252    1.399   .     D
C211   C212    1.462   .     S
C211   N213    1.372   .     S
C211   C240    1.424   .     D
C212   C214    1.360   .     D
C212   H215    1.096   .     S
N213   C216    1.372   .     D
C214   C216    1.463   .     S
C214   H217    1.094   .     S
C216   C218    1.426   1_556 S
C218   C216    1.426   1_554 S
C218   C219    1.430   .     S
C218   C245    1.491   .     D
C219   C220    1.437   1_554 D
C219   N221    1.379   1_554 S
C220   C219    1.437   1_556 D
C220   C222    1.375   .     S
C220   H223    1.094   .     S
N221   C219    1.379   1_556 S
N221   C224    1.380   .     S
N221   H243    1.035   .     S
C222   C224    1.434   .     D
C222   H225    1.094   1_556 S
C224   C241    1.425   .     S
H225   C222    1.094   1_554 S
C226   C227    1.359   1_554 D
C226   H230    1.095   .     S
C226   C242    1.463   .     S
C227   C226    1.359   1_556 D
C227   C228    1.464   .     S
C227   H231    1.096   .     S
C228   N229    1.371   .     D
C228   C241    1.423   .     S
N229   C242    1.372   1_556 S
C232   C233    1.427   1_554 S
C232   C242    1.422   .     D
C232   C255    1.489   .     S
C233   C232    1.427   1_556 S
C233   C234    1.435   .     D
C233   N235    1.378   .     S
C234   C236    1.376   .     S
C234   H237    1.094   .     S
N235   C238    1.379   .     S
N235   H244    1.035   .     S
C236   C238    1.435   .     D
C236   H239    1.094   .     S
C238   C240    1.425   .     S
C240   C265    1.492   .     S
C241   C275    1.491   .     D
C242   N229    1.372   1_554 S
C245   C246    1.418   .     S
C245   C247    1.414   1_554 S
C246   C248    1.391   .     D
C246   H249    1.099   .     S
C247   C245    1.414   1_556 S
C247   C250    1.398   .     D
C247   H251    1.099   .     S
C248   C252    1.410   .     S
C248   H253    1.100   .     S
C250   C252    1.410   1_556 S
C250   H254    1.101   .     S
C252   C250    1.410   1_554 S
C255   C256    1.415   1_554 D
C255   C257    1.415   .     S
C256   C255    1.415   1_556 D
C256   C258    1.395   1_655 S
C256   H259    1.100   .     S
C257   C260    1.394   1_655 D
C257   H261    1.100   .     S
C258   C256    1.395   1_455 S
C258   C262    1.408   1_556 D
C258   H263    1.100   .     S
C260   C257    1.394   1_455 D
C260   C262    1.409   .     S
C260   H264    1.101   .     S
C262   C258    1.408   1_554 D
C262   N293    1.409   .     S
C265   C266    1.415   .     S
C265   C267    1.414   1_556 D
C266   C268    1.395   .     D
C266   H269    1.100   .     S
C267   C265    1.414   1_554 D
C267   C270    1.395   .     S
C267   H271    1.101   .     S
C268   C272    1.410   .     S
C268   H273    1.100   .     S
C270   C272    1.411   1_554 D
C270   H274    1.101   .     S
C272   C270    1.411   1_556 D
C272   N294    1.406   .     S
C275   C276    1.415   1_556 S
C275   C277    1.414   .     S
C276   C275    1.415   1_554 S
C276   C278    1.393   .     D
C276   H279    1.100   .     S
C277   C280    1.396   .     D
C277   H281    1.101   .     S
C278   C282    1.409   1_554 S
C278   H283    1.100   .     S
C280   C282    1.410   .     S
C280   H284    1.101   .     S
C282   C278    1.409   1_556 S
C282   N291    1.404   .     D
C285   H286    1.126   .     S
C285   N293    1.286   1_556 D
C287   C199    1.470   1_545 D
C287   H288    1.125   .     S
C287   N291    1.284   1_554 S
C289   H290    1.125   .     S
C289   N292    1.285   .     D
N291   C287    1.284   1_556 S
N293   C285    1.286   1_554 D
N294   C295    1.285   .     D
C295   H296    1.125   .     S
C297   C298    1.463   .     S
C297   N299    1.372   .     D
C297   C326    1.425   .     S
C298   C300    1.360   .     D
C298   H301    1.096   .     S
N299   C302    1.374   .     S
C300   C302    1.462   .     S
C300   H303    1.095   .     S
C302   C304    1.425   .     D
C304   C305    1.430   .     S
C304   C331    1.492   .     S
C305   C306    1.437   .     D
C305   N307    1.379   .     S
C306   C308    1.376   .     S
C306   H309    1.094   .     S
N307   C310    1.380   .     S
N307   H329    1.036   .     S
C308   C310    1.435   .     D
C308   H311    1.094   .     S
C310   C327    1.424   .     S
C312   C313    1.359   .     D
C312   H316    1.095   .     S
C312   C328    1.461   .     S
C313   C314    1.465   .     S
C313   H317    1.096   .     S
C314   N315    1.370   .     S
C314   C327    1.425   .     D
N315   C328    1.374   .     D
C318   C319    1.427   .     D
C318   C328    1.422   .     S
C318   C341    1.490   .     S
C319   C320    1.435   .     S
C319   N321    1.379   .     S
C320   C322    1.376   .     D
C320   H323    1.094   .     S
N321   C324    1.379   .     S
N321   H330    1.035   .     S
C322   C324    1.436   .     S
C322   H325    1.094   .     S
C324   C326    1.427   .     D
C326   C351    1.493   .     S
C327   C361    1.491   .     S
C331   C332    1.416   .     S
C331   C333    1.415   .     D
C332   C334    1.394   .     D
C332   H335    1.099   .     S
C333   C336    1.398   .     S
C333   H337    1.099   .     S
C334   C338    1.410   .     S
C334   H339    1.100   .     S
C336   C338    1.409   .     D
C336   H340    1.100   .     S
C338   N505    1.413   .     S
C341   C342    1.415   .     D
C341   C343    1.415   .     S
C342   C344    1.396   .     S
C342   H345    1.100   .     S
C343   C346    1.394   .     D
C343   H347    1.100   .     S
C344   C348    1.408   .     D
C344   H349    1.100   .     S
C346   C348    1.410   .     S
C346   H350    1.100   .     S
C348   N438    1.413   .     S
C351   C352    1.416   .     D
C351   C353    1.414   .     S
C352   C354    1.395   .     S
C352   H355    1.100   .     S
C353   C356    1.396   .     D
C353   H357    1.101   .     S
C354   C358    1.409   1_565 D
C354   H359    1.100   .     S
C356   C358    1.410   1_565 S
C356   H360    1.101   1_565 S
C358   C356    1.410   1_545 S
C358   C354    1.409   1_545 D
C358   N588    1.406   .     S
H360   C356    1.101   1_545 S
C361   C362    1.415   .     D
C361   C363    1.414   .     S
C362   C364    1.393   .     S
C362   H365    1.100   .     S
C363   C366    1.397   .     D
C363   H367    1.101   .     S
C364   C368    1.410   .     D
C364   H369    1.100   .     S
C366   C368    1.410   .     S
C366   H370    1.100   .     S
C368   N437    1.405   .     S
C371   H372    1.126   .     S
C371   N438    1.286   .     D
C371   C498    1.469   .     S
C373   H374    1.126   .     S
C373   C375    1.469   .     S
C373   N437    1.286   .     D
C375   C376    1.410   .     D
C375   C377    1.410   .     S
C376   C378    1.395   .     S
C376   H379    1.102   .     S
C377   C380    1.392   .     D
C377   H381    1.101   .     S
C378   C382    1.412   .     D
C378   H383    1.101   .     S
C380   C382    1.415   .     S
C380   H384    1.101   .     S
C382   C385    1.486   .     S
C385   C386    1.402   .     D
C385   C387    1.427   .     S
C386   C388    1.404   .     S
C386   H389    1.100   .     S
C387   C390    1.435   .     D
C387   C391    1.434   .     S
C388   C392    1.428   .     D
C388   C393    1.485   .     S
C390   C392    1.436   .     S
C390   C394    1.443   .     S
C391   C395    1.368   .     D
C391   H396    1.100   .     S
C392   C397    1.433   .     S
C393   C398    1.414   .     D
C393   C399    1.414   .     S
C394   C400    1.435   .     D
C394   C401    1.435   .     S
C395   C401    1.436   .     S
C395   H402    1.099   .     S
C397   C403    1.368   .     D
C397   H404    1.099   .     S
C398   C405    1.391   .     S
C398   H406    1.101   .     S
C399   C407    1.395   .     D
C399   H408    1.100   .     S
C400   C403    1.435   .     S
C400   C409    1.432   .     S
C401   C410    1.431   .     D
C403   H411    1.099   .     S
C405   C412    1.410   .     D
C405   H413    1.102   .     S
C407   C412    1.410   .     S
C407   H414    1.100   .     S
C409   C415    1.405   .     D
C409   C416    1.486   .     S
C410   C415    1.405   .     S
C410   C417    1.486   .     S
C412   C581    1.467   .     S
C415   H418    1.100   .     S
C416   C419    1.415   .     D
C416   C420    1.416   .     S
C417   C421    1.415   .     S
C417   C422    1.415   .     D
C419   C423    1.393   .     S
C419   H424    1.099   .     S
C420   C425    1.394   .     D
C420   H426    1.101   .     S
C421   C427    1.395   .     D
C421   H428    1.099   .     S
C422   C429    1.392   .     S
C422   H430    1.101   .     S
C423   C431    1.410   .     D
C423   H432    1.102   .     S
C425   C431    1.411   .     S
C425   H433    1.101   .     S
C427   C434    1.409   .     S
C427   H435    1.102   .     S
C429   C434    1.410   .     D
C429   H436    1.101   .     S
C431   C585    1.471   .     S
C434   C501    1.473   .     S
C439   C440    1.410   .     D
C439   C441    1.411   .     S
C439   C591    1.471   .     S
C440   C442    1.394   .     S
C440   H443    1.102   .     S
C441   C444    1.393   .     D
C441   H445    1.101   .     S
C442   C446    1.414   .     D
C442   H447    1.100   .     S
C444   C446    1.415   .     S
C444   H448    1.101   .     S
C446   C449    1.487   .     S
C449   C450    1.404   .     D
C449   C451    1.430   .     S
C450   C452    1.407   .     S
C450   H453    1.100   .     S
C451   C454    1.435   .     D
C451   C455    1.436   .     S
C452   C456    1.431   .     D
C452   C457    1.490   .     S
C454   C456    1.438   .     S
C454   C458    1.443   .     S
C455   C459    1.368   .     D
C455   H460    1.099   .     S
C456   C461    1.435   .     S
C457   C462    1.416   .     D
C457   C463    1.416   .     S
C458   C464    1.436   .     D
C458   C465    1.437   .     S
C459   C465    1.433   .     S
C459   H466    1.099   .     S
C461   C467    1.369   .     D
C461   H468    1.098   .     S
C462   C469    1.391   .     S
C462   H470    1.100   .     S
C463   C471    1.397   .     D
C463   H472    1.100   .     S
C464   C467    1.434   .     S
C464   C473    1.429   .     S
C465   C474    1.427   .     D
C467   H475    1.099   .     S
C469   C476    1.411   .     D
C469   H477    1.102   .     S
C471   C476    1.410   .     S
C471   H478    1.101   .     S
C473   C479    1.403   .     D
C473   C480    1.485   .     S
C474   C479    1.404   .     S
C474   C481    1.489   .     S
C476   C503    1.470   1_655 S
C479   H482    1.100   .     S
C480   C483    1.414   .     D
C480   C484    1.414   .     S
C481   C485    1.414   .     D
C481   C486    1.414   .     S
C483   C487    1.393   .     S
C483   H488    1.101   .     S
C484   C489    1.393   .     D
C484   H490    1.102   .     S
C485   C491    1.397   .     S
C485   H492    1.101   .     S
C486   C493    1.390   .     D
C486   H494    1.101   .     S
C487   C495    1.410   .     D
C487   H496    1.101   .     S
C489   C495    1.410   .     S
C489   H497    1.102   .     S
C491   C498    1.411   .     D
C491   H499    1.100   .     S
C493   C498    1.411   .     S
C493   H500    1.102   .     S
C495   C583    1.470   1_565 S
C501   H502    1.126   .     S
C501   N506    1.282   .     D
C503   C476    1.470   1_455 S
C503   H504    1.127   .     S
C503   N505    1.287   .     D
N506   C548    1.399   .     S
C507   C508    1.462   .     S
C507   N509    1.372   .     S
C507   C536    1.424   .     D
C508   C510    1.360   .     D
C508   H511    1.096   .     S
N509   C512    1.372   .     D
C510   C512    1.463   .     S
C510   H513    1.094   .     S
C512   C514    1.426   .     S
C514   C515    1.430   .     D
C514   C541    1.491   .     S
C515   C516    1.437   .     S
C515   N517    1.379   .     S
C516   C518    1.375   .     D
C516   H519    1.094   .     S
N517   C520    1.380   .     S
N517   H539    1.035   .     S
C518   C520    1.434   .     S
C518   H521    1.094   .     S
C520   C537    1.425   .     D
C522   C523    1.359   .     D
C522   H526    1.095   .     S
C522   C538    1.463   .     S
C523   C524    1.464   .     S
C523   H527    1.096   .     S
C524   N525    1.371   .     D
C524   C537    1.423   .     S
N525   C538    1.372   .     S
C528   C529    1.427   .     S
C528   C538    1.422   .     D
C528   C551    1.489   .     S
C529   C530    1.435   .     D
C529   N531    1.378   .     S
C530   C532    1.376   .     S
C530   H533    1.094   .     S
N531   C534    1.379   .     S
N531   H540    1.035   .     S
C532   C534    1.435   .     D
C532   H535    1.094   .     S
C534   C536    1.425   .     S
C536   C561    1.492   .     S
C537   C571    1.491   .     S
C541   C542    1.418   .     D
C541   C543    1.414   .     S
C542   C544    1.391   .     S
C542   H545    1.099   .     S
C543   C546    1.398   .     D
C543   H547    1.099   .     S
C544   C548    1.410   .     D
C544   H549    1.100   .     S
C546   C548    1.410   .     S
C546   H550    1.101   .     S
C551   C552    1.415   .     S
C551   C553    1.415   .     D
C552   C554    1.395   1_655 D
C552   H555    1.100   .     S
C553   C556    1.394   1_655 S
C553   H557    1.100   .     S
C554   C552    1.395   1_455 D
C554   C558    1.408   .     S
C554   H559    1.100   .     S
C556   C553    1.394   1_455 S
C556   C558    1.409   .     D
C556   H560    1.101   .     S
C558   N589    1.409   .     S
C561   C562    1.415   .     D
C561   C563    1.414   .     S
C562   C564    1.395   .     S
C562   H565    1.100   .     S
C563   C566    1.395   .     D
C563   H567    1.101   .     S
C564   C568    1.410   .     D
C564   H569    1.100   .     S
C566   C568    1.411   .     S
C566   H570    1.101   .     S
C568   N590    1.406   .     S
C571   C572    1.415   .     D
C571   C573    1.414   .     S
C572   C574    1.393   .     S
C572   H575    1.100   .     S
C573   C576    1.396   .     D
C573   H577    1.101   .     S
C574   C578    1.409   .     D
C574   H579    1.100   .     S
C576   C578    1.410   .     S
C576   H580    1.101   .     S
C578   N587    1.404   .     S
C581   H582    1.126   .     S
C581   N589    1.286   .     D
C583   C495    1.470   1_545 S
C583   H584    1.125   .     S
C583   N587    1.284   .     D
C585   H586    1.125   .     S
C585   N588    1.285   .     D
N590   C591    1.285   .     D
C591   H592    1.125   .     S
