data_414
_audit_creation_date              2023-09-08
_audit_creation_method            'Materials Studio'
_symmetry_space_group_name_H-M    'P1'
_symmetry_Int_Tables_number       1
_symmetry_cell_setting            triclinic
loop_
_symmetry_equiv_pos_as_xyz
  x,y,z
_cell_length_a                    49.5200
_cell_length_b                    33.7200
_cell_length_c                    15.3000
_cell_angle_alpha                 90.0000
_cell_angle_beta                  104.5000
_cell_angle_gamma                 90.0000
loop_
_atom_site_label
_atom_site_type_symbol
_atom_site_fract_x
_atom_site_fract_y
_atom_site_fract_z
_atom_site_U_iso_or_equiv
_atom_site_adp_type
_atom_site_occupancy
C1     C     0.26821   0.31856   0.78776   0.00000  Uiso   1.00
N2     N     0.24221   0.32727   0.75273   0.00000  Uiso   1.00
C3     C     0.21940   0.29993   0.74207   0.00000  Uiso   1.00
C4     C     0.19434   0.30868   0.67916   0.00000  Uiso   1.00
C5     C     0.17107   0.28413   0.67060   0.00000  Uiso   1.00
C6     C     0.17248   0.25043   0.72540   0.00000  Uiso   1.00
C7     C     0.19757   0.24183   0.78900   0.00000  Uiso   1.00
C8     C     0.22091   0.26604   0.79670   0.00000  Uiso   1.00
C9     C     0.17594   0.04149   0.73221   0.00000  Uiso   1.00
C10    C     0.02439   0.03055   0.72312   0.00000  Uiso   1.00
C11    C     0.02979   0.26045   0.72151   0.00000  Uiso   1.00
C12    C     0.18698   0.01142   0.79413   0.00000  Uiso   1.00
C13    C     0.20956   0.98882   0.78384   0.00000  Uiso   1.00
C14    C     0.22132   0.99552   0.71033   0.00000  Uiso   1.00
C15    C     0.21024   0.02550   0.64832   0.00000  Uiso   1.00
C16    C     0.18751   0.04804   0.65835   0.00000  Uiso   1.00
C17    C     0.00567   0.00847   0.65736   0.00000  Uiso   1.00
C18    C     0.98134   0.99340   0.67520   0.00000  Uiso   1.00
C19    C     0.97580   0.99963   0.76010   0.00000  Uiso   1.00
C20    C     0.99552   0.01929   0.82772   0.00000  Uiso   1.00
C21    C     0.01952   0.03512   0.80909   0.00000  Uiso   1.00
C22    C     0.00526   0.25324   0.65437   0.00000  Uiso   1.00
C23    C     0.98025   0.27072   0.65972   0.00000  Uiso   1.00
C24    C     0.97926   0.29562   0.73193   0.00000  Uiso   1.00
C25    C     0.00405   0.30431   0.79741   0.00000  Uiso   1.00
C26    C     0.02916   0.28679   0.79191   0.00000  Uiso   1.00
C27    C     0.78661   0.42371   0.49171   0.00000  Uiso   1.00
C28    C     0.77510   0.42744   0.56581   0.00000  Uiso   1.00
C29    C     0.79067   0.41730   0.65362   0.00000  Uiso   1.00
C30    C     0.81829   0.40245   0.66497   0.00000  Uiso   1.00
C31    C     0.82932   0.39876   0.58873   0.00000  Uiso   1.00
C32    C     0.81355   0.40910   0.50314   0.00000  Uiso   1.00
C33    C     0.83433   0.39174   0.75215   0.00000  Uiso   1.00
C34    C     0.82359   0.39747   0.82771   0.00000  Uiso   1.00
C35    C     0.79604   0.41040   0.81552   0.00000  Uiso   1.00
C36    C     0.77944   0.42072   0.73007   0.00000  Uiso   1.00
O37    O     0.84062   0.38853   0.91387   0.00000  Uiso   1.00
C38    C     0.83588   0.41037   0.98881   0.00000  Uiso   1.00
C39    C     0.86351   0.41704   1.05694   0.00000  Uiso   1.00
Cl40   Cl    0.76723   0.43810   0.38428   0.00000  Uiso   1.00
C41    C     0.94601   0.32893   0.80216   0.00000  Uiso   1.00
N42    N     0.95270   0.31164   0.73461   0.00000  Uiso   1.00
C43    C     0.92645   0.98640   0.71926   0.00000  Uiso   1.00
N44    N     0.95025   0.98673   0.77897   0.00000  Uiso   1.00
C45    C     0.25224   0.93874   0.73166   0.00000  Uiso   1.00
N46    N     0.24547   0.97421   0.70043   0.00000  Uiso   1.00
H47    H     0.27395   0.28731   0.81442   0.00000  Uiso   1.00
H48    H     0.19277   0.33602   0.63435   0.00000  Uiso   1.00
H49    H     0.15078   0.29142   0.61884   0.00000  Uiso   1.00
H50    H     0.19900   0.21488   0.83492   0.00000  Uiso   1.00
H51    H     0.24126   0.25823   0.84758   0.00000  Uiso   1.00
H52    H     0.17749   0.00530   0.85342   0.00000  Uiso   1.00
H53    H     0.21862   0.96475   0.83512   0.00000  Uiso   1.00
H54    H     0.21978   0.03167   0.58914   0.00000  Uiso   1.00
H55    H     0.17835   0.07179   0.60637   0.00000  Uiso   1.00
H56    H     0.01028   0.00277   0.58909   0.00000  Uiso   1.00
H57    H     0.96590   0.97601   0.62101   0.00000  Uiso   1.00
H58    H     0.99200   0.02241   0.89824   0.00000  Uiso   1.00
H59    H     0.03521   0.05181   0.86399   0.00000  Uiso   1.00
H60    H     0.00574   0.23299   0.59512   0.00000  Uiso   1.00
H61    H     0.96037   0.26478   0.60496   0.00000  Uiso   1.00
H62    H     0.00363   0.32563   0.85489   0.00000  Uiso   1.00
H63    H     0.04919   0.29399   0.84499   0.00000  Uiso   1.00
H64    H     0.75286   0.43879   0.55598   0.00000  Uiso   1.00
H65    H     0.85144   0.38717   0.59683   0.00000  Uiso   1.00
H66    H     0.82275   0.40559   0.44230   0.00000  Uiso   1.00
H67    H     0.78653   0.41277   0.87592   0.00000  Uiso   1.00
H68    H     0.96190   0.33231   0.86993   0.00000  Uiso   1.00
H69    H     0.92544   0.99778   0.64836   0.00000  Uiso   1.00
H70    H     0.23685   0.92131   0.76107   0.00000  Uiso   1.00
C71    C     0.11204   0.27492   0.71078   0.00000  Uiso   1.00
C72    C     0.08171   0.27540   0.71405   0.00000  Uiso   1.00
C73    C     0.07300   0.23186   0.71605   0.00000  Uiso   1.00
N74    N     0.09655   0.20304   0.71440   0.00000  Uiso   1.00
C75    C     0.12035   0.23111   0.71097   0.00000  Uiso   1.00
C76    C     0.14956   0.21978   0.71028   0.00000  Uiso   1.00
C77    C     0.04381   0.22151   0.71704   0.00000  Uiso   1.00
C78    C     0.08020   0.01062   0.71826   0.00000  Uiso   1.00
C79    C     0.11105   0.01021   0.72173   0.00000  Uiso   1.00
C80    C     0.11993   0.05373   0.72154   0.00000  Uiso   1.00
N81    N     0.09600   0.08250   0.71826   0.00000  Uiso   1.00
C82    C     0.07180   0.05441   0.71658   0.00000  Uiso   1.00
C83    C     0.14934   0.06401   0.72314   0.00000  Uiso   1.00
C84    C     0.04258   0.06565   0.71560   0.00000  Uiso   1.00
C85    C     0.00635   0.16661   0.71694   0.00000  Uiso   1.00
C86    C     0.00590   0.12169   0.71562   0.00000  Uiso   1.00
C87    C     0.03556   0.10862   0.71555   0.00000  Uiso   1.00
N88    N     0.05525   0.14339   0.71646   0.00000  Uiso   1.00
C89    C     0.03621   0.17875   0.71723   0.00000  Uiso   1.00
C90    C     0.18662   0.11897   0.72005   0.00000  Uiso   1.00
C91    C     0.18653   0.16388   0.71470   0.00000  Uiso   1.00
C92    C     0.15675   0.17695   0.71313   0.00000  Uiso   1.00
N93    N     0.13743   0.14215   0.71698   0.00000  Uiso   1.00
C94    C     0.15686   0.10678   0.72100   0.00000  Uiso   1.00
Cu95   Cu    0.09632   0.14276   0.71652   0.00000  Uiso   1.00
H96    H     0.82135   0.39285   1.02165   0.00000  Uiso   1.00
H97    H     0.82595   0.44017   0.96428   0.00000  Uiso   1.00
H98    H     0.87724   0.38970   1.05973   0.00000  Uiso   1.00
H99    H     0.85967   0.42254   1.12637   0.00000  Uiso   1.00
H100   H     0.87439   0.44389   1.03598   0.00000  Uiso   1.00
H101   H     0.12360   0.30402   0.70880   0.00000  Uiso   1.00
H102   H     0.07045   0.30485   0.71456   0.00000  Uiso   1.00
H103   H     0.06844   0.98150   0.71744   0.00000  Uiso   1.00
H104   H     0.12252   0.98078   0.72381   0.00000  Uiso   1.00
H105   H     0.98659   0.18384   0.71749   0.00000  Uiso   1.00
H106   H     0.98578   0.10512   0.71493   0.00000  Uiso   1.00
H107   H     0.20661   0.10179   0.72244   0.00000  Uiso   1.00
H108   H     0.20644   0.18045   0.71274   0.00000  Uiso   1.00
C109   C     0.34633   0.30079   0.97030   0.00000  Uiso   1.00
C110   C     0.32027   0.30841   0.91241   0.00000  Uiso   1.00
C111   C     0.31602   0.34171   0.85430   0.00000  Uiso   1.00
C112   C     0.33864   0.36806   0.85717   0.00000  Uiso   1.00
C113   C     0.36477   0.35961   0.91643   0.00000  Uiso   1.00
C114   C     0.36853   0.32631   0.97208   0.00000  Uiso   1.00
C115   C     0.33463   0.40205   0.80066   0.00000  Uiso   1.00
C116   C     0.30786   0.41153   0.74772   0.00000  Uiso   1.00
C117   C     0.28570   0.38507   0.74505   0.00000  Uiso   1.00
C118   C     0.28978   0.34956   0.79443   0.00000  Uiso   1.00
O119   O     0.30496   0.44694   0.69679   0.00000  Uiso   1.00
C120   C     0.27812   0.45782   0.64275   0.00000  Uiso   1.00
C121   C     0.28030   0.49748   0.59781   0.00000  Uiso   1.00
Cl122  Cl    0.35100   0.25948   1.04239   0.00000  Uiso   1.00
H123   H     0.30202   0.28767   0.91147   0.00000  Uiso   1.00
H124   H     0.38324   0.38018   0.91931   0.00000  Uiso   1.00
H125   H     0.38986   0.32001   1.01914   0.00000  Uiso   1.00
H126   H     0.26392   0.39230   0.70219   0.00000  Uiso   1.00
H127   H     0.26286   0.46045   0.68725   0.00000  Uiso   1.00
H128   H     0.27044   0.43421   0.58895   0.00000  Uiso   1.00
H129   H     0.26094   0.50226   0.54020   0.00000  Uiso   1.00
H130   H     0.29963   0.49763   0.57006   0.00000  Uiso   1.00
H131   H     0.28196   0.52230   0.64947   0.00000  Uiso   1.00
C132   C     0.40904   0.37282   0.64067   0.00000  Uiso   1.00
C133   C     0.41492   0.41149   0.67242   0.00000  Uiso   1.00
C134   C     0.39786   0.43071   0.72084   0.00000  Uiso   1.00
C135   C     0.37438   0.41005   0.73660   0.00000  Uiso   1.00
C136   C     0.36909   0.37086   0.70459   0.00000  Uiso   1.00
C137   C     0.38623   0.35262   0.65681   0.00000  Uiso   1.00
C138   C     0.35682   0.42909   0.78412   0.00000  Uiso   1.00
C139   C     0.36320   0.46769   0.81774   0.00000  Uiso   1.00
C140   C     0.38683   0.48706   0.80526   0.00000  Uiso   1.00
C141   C     0.40388   0.46960   0.75582   0.00000  Uiso   1.00
O142   O     0.34644   0.48605   0.86754   0.00000  Uiso   1.00
C143   C     0.33175   0.52055   0.82659   0.00000  Uiso   1.00
C144   C     0.34159   0.55662   0.88583   0.00000  Uiso   1.00
Cl145  Cl    0.43050   0.34949   0.58065   0.00000  Uiso   1.00
H146   H     0.43365   0.42789   0.65935   0.00000  Uiso   1.00
H147   H     0.35064   0.35376   0.71772   0.00000  Uiso   1.00
H148   H     0.38152   0.32103   0.63092   0.00000  Uiso   1.00
H149   H     0.39254   0.51772   0.83568   0.00000  Uiso   1.00
H150   H     0.30843   0.51617   0.81852   0.00000  Uiso   1.00
H151   H     0.33595   0.52544   0.75745   0.00000  Uiso   1.00
H152   H     0.33150   0.58447   0.84972   0.00000  Uiso   1.00
H153   H     0.36523   0.55919   0.89978   0.00000  Uiso   1.00
H154   H     0.33540   0.55319   0.95237   0.00000  Uiso   1.00
C155   C     0.92723   0.45223   0.74525   0.00000  Uiso   1.00
C156   C     0.93312   0.41218   0.76422   0.00000  Uiso   1.00
C157   C     0.91168   0.38513   0.76848   0.00000  Uiso   1.00
C158   C     0.88372   0.39930   0.75054   0.00000  Uiso   1.00
C159   C     0.87827   0.43982   0.73008   0.00000  Uiso   1.00
C160   C     0.89990   0.46595   0.72801   0.00000  Uiso   1.00
C161   C     0.86180   0.37276   0.75411   0.00000  Uiso   1.00
C162   C     0.86744   0.33230   0.77047   0.00000  Uiso   1.00
C163   C     0.89487   0.31839   0.78599   0.00000  Uiso   1.00
C164   C     0.91725   0.34439   0.78918   0.00000  Uiso   1.00
O165   O     0.84525   0.30619   0.76945   0.00000  Uiso   1.00
C166   C     0.84828   0.28078   0.84613   0.00000  Uiso   1.00
C167   C     0.84859   0.23772   0.81703   0.00000  Uiso   1.00
Cl168  Cl    0.95433   0.48546   0.74232   0.00000  Uiso   1.00
H169   H     0.95546   0.40093   0.77651   0.00000  Uiso   1.00
H170   H     0.85598   0.45147   0.71502   0.00000  Uiso   1.00
H171   H     0.89517   0.49863   0.71215   0.00000  Uiso   1.00
H172   H     0.89941   0.28535   0.79635   0.00000  Uiso   1.00
H173   H     0.83009   0.28572   0.87813   0.00000  Uiso   1.00
H174   H     0.86868   0.28789   0.89752   0.00000  Uiso   1.00
H175   H     0.87105   0.22671   0.83191   0.00000  Uiso   1.00
H176   H     0.83860   0.23523   0.74157   0.00000  Uiso   1.00
H177   H     0.83636   0.21892   0.85578   0.00000  Uiso   1.00
C178   C     0.76821   0.81856   0.78776   0.00000  Uiso   1.00
N179   N     0.74221   0.82727   0.75273   0.00000  Uiso   1.00
C180   C     0.71940   0.79993   0.74207   0.00000  Uiso   1.00
C181   C     0.69434   0.80868   0.67916   0.00000  Uiso   1.00
C182   C     0.67107   0.78413   0.67060   0.00000  Uiso   1.00
C183   C     0.67248   0.75043   0.72540   0.00000  Uiso   1.00
C184   C     0.69757   0.74183   0.78900   0.00000  Uiso   1.00
C185   C     0.72091   0.76604   0.79670   0.00000  Uiso   1.00
C186   C     0.67594   0.54149   0.73221   0.00000  Uiso   1.00
C187   C     0.52439   0.53055   0.72312   0.00000  Uiso   1.00
C188   C     0.52979   0.76045   0.72151   0.00000  Uiso   1.00
C189   C     0.68698   0.51142   0.79413   0.00000  Uiso   1.00
C190   C     0.70956   0.48882   0.78384   0.00000  Uiso   1.00
C191   C     0.72132   0.49552   0.71033   0.00000  Uiso   1.00
C192   C     0.71024   0.52550   0.64832   0.00000  Uiso   1.00
C193   C     0.68751   0.54804   0.65835   0.00000  Uiso   1.00
C194   C     0.50567   0.50847   0.65736   0.00000  Uiso   1.00
C195   C     0.48134   0.49340   0.67520   0.00000  Uiso   1.00
C196   C     0.47580   0.49963   0.76010   0.00000  Uiso   1.00
C197   C     0.49552   0.51929   0.82772   0.00000  Uiso   1.00
C198   C     0.51952   0.53512   0.80909   0.00000  Uiso   1.00
C199   C     0.50526   0.75324   0.65437   0.00000  Uiso   1.00
C200   C     0.48025   0.77072   0.65972   0.00000  Uiso   1.00
C201   C     0.47926   0.79562   0.73193   0.00000  Uiso   1.00
C202   C     0.50405   0.80431   0.79741   0.00000  Uiso   1.00
C203   C     0.52916   0.78679   0.79191   0.00000  Uiso   1.00
C204   C     0.28661   0.92371   0.49171   0.00000  Uiso   1.00
C205   C     0.27510   0.92744   0.56581   0.00000  Uiso   1.00
C206   C     0.29067   0.91730   0.65362   0.00000  Uiso   1.00
C207   C     0.31829   0.90245   0.66497   0.00000  Uiso   1.00
C208   C     0.32932   0.89876   0.58873   0.00000  Uiso   1.00
C209   C     0.31355   0.90910   0.50314   0.00000  Uiso   1.00
C210   C     0.33433   0.89174   0.75215   0.00000  Uiso   1.00
C211   C     0.32359   0.89747   0.82771   0.00000  Uiso   1.00
C212   C     0.29604   0.91040   0.81552   0.00000  Uiso   1.00
C213   C     0.27944   0.92072   0.73007   0.00000  Uiso   1.00
O214   O     0.34062   0.88853   0.91387   0.00000  Uiso   1.00
C215   C     0.33588   0.91037   0.98881   0.00000  Uiso   1.00
C216   C     0.36351   0.91704   1.05694   0.00000  Uiso   1.00
Cl217  Cl    0.26723   0.93810   0.38428   0.00000  Uiso   1.00
C218   C     0.44601   0.82893   0.80216   0.00000  Uiso   1.00
N219   N     0.45270   0.81164   0.73461   0.00000  Uiso   1.00
C220   C     0.42645   0.48640   0.71926   0.00000  Uiso   1.00
N221   N     0.45025   0.48673   0.77897   0.00000  Uiso   1.00
C222   C     0.75224   0.43874   0.73166   0.00000  Uiso   1.00
N223   N     0.74547   0.47421   0.70043   0.00000  Uiso   1.00
H224   H     0.77395   0.78731   0.81442   0.00000  Uiso   1.00
H225   H     0.69277   0.83602   0.63435   0.00000  Uiso   1.00
H226   H     0.65078   0.79142   0.61884   0.00000  Uiso   1.00
H227   H     0.69900   0.71488   0.83492   0.00000  Uiso   1.00
H228   H     0.74126   0.75823   0.84758   0.00000  Uiso   1.00
H229   H     0.67749   0.50530   0.85342   0.00000  Uiso   1.00
H230   H     0.71862   0.46475   0.83512   0.00000  Uiso   1.00
H231   H     0.71978   0.53167   0.58914   0.00000  Uiso   1.00
H232   H     0.67835   0.57179   0.60637   0.00000  Uiso   1.00
H233   H     0.51028   0.50277   0.58909   0.00000  Uiso   1.00
H234   H     0.46590   0.47601   0.62101   0.00000  Uiso   1.00
H235   H     0.49200   0.52241   0.89824   0.00000  Uiso   1.00
H236   H     0.53521   0.55181   0.86399   0.00000  Uiso   1.00
H237   H     0.50574   0.73299   0.59512   0.00000  Uiso   1.00
H238   H     0.46037   0.76478   0.60496   0.00000  Uiso   1.00
H239   H     0.50363   0.82563   0.85489   0.00000  Uiso   1.00
H240   H     0.54919   0.79399   0.84499   0.00000  Uiso   1.00
H241   H     0.25286   0.93879   0.55598   0.00000  Uiso   1.00
H242   H     0.35144   0.88717   0.59683   0.00000  Uiso   1.00
H243   H     0.32275   0.90559   0.44230   0.00000  Uiso   1.00
H244   H     0.28653   0.91277   0.87592   0.00000  Uiso   1.00
H245   H     0.46190   0.83231   0.86993   0.00000  Uiso   1.00
H246   H     0.42544   0.49778   0.64836   0.00000  Uiso   1.00
H247   H     0.73685   0.42131   0.76107   0.00000  Uiso   1.00
C248   C     0.61204   0.77492   0.71078   0.00000  Uiso   1.00
C249   C     0.58171   0.77540   0.71405   0.00000  Uiso   1.00
C250   C     0.57300   0.73186   0.71605   0.00000  Uiso   1.00
N251   N     0.59655   0.70304   0.71440   0.00000  Uiso   1.00
C252   C     0.62035   0.73111   0.71097   0.00000  Uiso   1.00
C253   C     0.64956   0.71978   0.71028   0.00000  Uiso   1.00
C254   C     0.54381   0.72151   0.71704   0.00000  Uiso   1.00
C255   C     0.58020   0.51062   0.71826   0.00000  Uiso   1.00
C256   C     0.61105   0.51021   0.72173   0.00000  Uiso   1.00
C257   C     0.61993   0.55373   0.72154   0.00000  Uiso   1.00
N258   N     0.59600   0.58250   0.71826   0.00000  Uiso   1.00
C259   C     0.57180   0.55441   0.71658   0.00000  Uiso   1.00
C260   C     0.64934   0.56401   0.72314   0.00000  Uiso   1.00
C261   C     0.54258   0.56565   0.71560   0.00000  Uiso   1.00
C262   C     0.50635   0.66661   0.71694   0.00000  Uiso   1.00
C263   C     0.50590   0.62169   0.71562   0.00000  Uiso   1.00
C264   C     0.53556   0.60862   0.71555   0.00000  Uiso   1.00
N265   N     0.55525   0.64339   0.71646   0.00000  Uiso   1.00
C266   C     0.53621   0.67875   0.71723   0.00000  Uiso   1.00
C267   C     0.68662   0.61897   0.72005   0.00000  Uiso   1.00
C268   C     0.68653   0.66388   0.71470   0.00000  Uiso   1.00
C269   C     0.65675   0.67695   0.71313   0.00000  Uiso   1.00
N270   N     0.63743   0.64215   0.71698   0.00000  Uiso   1.00
C271   C     0.65686   0.60678   0.72100   0.00000  Uiso   1.00
Cu272  Cu    0.59632   0.64276   0.71652   0.00000  Uiso   1.00
H273   H     0.32135   0.89285   1.02165   0.00000  Uiso   1.00
H274   H     0.32595   0.94017   0.96428   0.00000  Uiso   1.00
H275   H     0.37724   0.88970   1.05973   0.00000  Uiso   1.00
H276   H     0.35967   0.92254   1.12637   0.00000  Uiso   1.00
H277   H     0.37439   0.94389   1.03598   0.00000  Uiso   1.00
H278   H     0.62360   0.80402   0.70880   0.00000  Uiso   1.00
H279   H     0.57045   0.80485   0.71456   0.00000  Uiso   1.00
H280   H     0.56844   0.48150   0.71744   0.00000  Uiso   1.00
H281   H     0.62252   0.48078   0.72381   0.00000  Uiso   1.00
H282   H     0.48659   0.68384   0.71749   0.00000  Uiso   1.00
H283   H     0.48578   0.60512   0.71493   0.00000  Uiso   1.00
H284   H     0.70661   0.60179   0.72244   0.00000  Uiso   1.00
H285   H     0.70644   0.68045   0.71274   0.00000  Uiso   1.00
C286   C     0.84633   0.80079   0.97030   0.00000  Uiso   1.00
C287   C     0.82027   0.80841   0.91241   0.00000  Uiso   1.00
C288   C     0.81602   0.84171   0.85430   0.00000  Uiso   1.00
C289   C     0.83864   0.86806   0.85717   0.00000  Uiso   1.00
C290   C     0.86477   0.85961   0.91643   0.00000  Uiso   1.00
C291   C     0.86853   0.82631   0.97208   0.00000  Uiso   1.00
C292   C     0.83463   0.90205   0.80066   0.00000  Uiso   1.00
C293   C     0.80786   0.91153   0.74772   0.00000  Uiso   1.00
C294   C     0.78570   0.88507   0.74505   0.00000  Uiso   1.00
C295   C     0.78978   0.84956   0.79443   0.00000  Uiso   1.00
O296   O     0.80496   0.94694   0.69679   0.00000  Uiso   1.00
C297   C     0.77812   0.95782   0.64275   0.00000  Uiso   1.00
C298   C     0.78030   0.99748   0.59781   0.00000  Uiso   1.00
Cl299  Cl    0.85100   0.75948   1.04239   0.00000  Uiso   1.00
H300   H     0.80202   0.78767   0.91147   0.00000  Uiso   1.00
H301   H     0.88324   0.88018   0.91931   0.00000  Uiso   1.00
H302   H     0.88986   0.82001   1.01914   0.00000  Uiso   1.00
H303   H     0.76392   0.89230   0.70219   0.00000  Uiso   1.00
H304   H     0.76286   0.96045   0.68725   0.00000  Uiso   1.00
H305   H     0.77044   0.93421   0.58895   0.00000  Uiso   1.00
H306   H     0.76094   0.00226   0.54020   0.00000  Uiso   1.00
H307   H     0.79963   0.99763   0.57006   0.00000  Uiso   1.00
H308   H     0.78196   0.02230   0.64947   0.00000  Uiso   1.00
C309   C     0.90904   0.87282   0.64067   0.00000  Uiso   1.00
C310   C     0.91492   0.91149   0.67242   0.00000  Uiso   1.00
C311   C     0.89786   0.93071   0.72084   0.00000  Uiso   1.00
C312   C     0.87438   0.91005   0.73660   0.00000  Uiso   1.00
C313   C     0.86909   0.87086   0.70459   0.00000  Uiso   1.00
C314   C     0.88623   0.85262   0.65681   0.00000  Uiso   1.00
C315   C     0.85682   0.92909   0.78412   0.00000  Uiso   1.00
C316   C     0.86320   0.96769   0.81774   0.00000  Uiso   1.00
C317   C     0.88683   0.98706   0.80526   0.00000  Uiso   1.00
C318   C     0.90388   0.96960   0.75582   0.00000  Uiso   1.00
O319   O     0.84644   0.98605   0.86754   0.00000  Uiso   1.00
C320   C     0.83175   0.02055   0.82659   0.00000  Uiso   1.00
C321   C     0.84159   0.05662   0.88583   0.00000  Uiso   1.00
Cl322  Cl    0.93050   0.84949   0.58065   0.00000  Uiso   1.00
H323   H     0.93365   0.92789   0.65935   0.00000  Uiso   1.00
H324   H     0.85064   0.85376   0.71772   0.00000  Uiso   1.00
H325   H     0.88152   0.82103   0.63092   0.00000  Uiso   1.00
H326   H     0.89254   0.01772   0.83568   0.00000  Uiso   1.00
H327   H     0.80843   0.01617   0.81852   0.00000  Uiso   1.00
H328   H     0.83595   0.02544   0.75745   0.00000  Uiso   1.00
H329   H     0.83150   0.08447   0.84972   0.00000  Uiso   1.00
H330   H     0.86523   0.05919   0.89978   0.00000  Uiso   1.00
H331   H     0.83540   0.05319   0.95237   0.00000  Uiso   1.00
C332   C     0.42723   0.95223   0.74525   0.00000  Uiso   1.00
C333   C     0.43312   0.91218   0.76422   0.00000  Uiso   1.00
C334   C     0.41168   0.88513   0.76848   0.00000  Uiso   1.00
C335   C     0.38372   0.89930   0.75054   0.00000  Uiso   1.00
C336   C     0.37827   0.93982   0.73008   0.00000  Uiso   1.00
C337   C     0.39990   0.96595   0.72801   0.00000  Uiso   1.00
C338   C     0.36180   0.87276   0.75411   0.00000  Uiso   1.00
C339   C     0.36744   0.83230   0.77047   0.00000  Uiso   1.00
C340   C     0.39487   0.81839   0.78599   0.00000  Uiso   1.00
C341   C     0.41725   0.84439   0.78918   0.00000  Uiso   1.00
O342   O     0.34525   0.80619   0.76945   0.00000  Uiso   1.00
C343   C     0.34828   0.78078   0.84613   0.00000  Uiso   1.00
C344   C     0.34859   0.73772   0.81703   0.00000  Uiso   1.00
Cl345  Cl    0.45433   0.98546   0.74232   0.00000  Uiso   1.00
H346   H     0.45546   0.90093   0.77651   0.00000  Uiso   1.00
H347   H     0.35598   0.95147   0.71502   0.00000  Uiso   1.00
H348   H     0.39517   0.99863   0.71215   0.00000  Uiso   1.00
H349   H     0.39941   0.78535   0.79635   0.00000  Uiso   1.00
H350   H     0.33009   0.78572   0.87813   0.00000  Uiso   1.00
H351   H     0.36868   0.78789   0.89752   0.00000  Uiso   1.00
H352   H     0.37105   0.72671   0.83191   0.00000  Uiso   1.00
H353   H     0.33860   0.73523   0.74157   0.00000  Uiso   1.00
H354   H     0.33636   0.71892   0.85578   0.00000  Uiso   1.00
C355   C     0.73179   0.31856   0.21224   0.00000  Uiso   1.00
N356   N     0.75779   0.32727   0.24727   0.00000  Uiso   1.00
C357   C     0.78060   0.29993   0.25793   0.00000  Uiso   1.00
C358   C     0.80566   0.30868   0.32084   0.00000  Uiso   1.00
C359   C     0.82893   0.28413   0.32940   0.00000  Uiso   1.00
C360   C     0.82752   0.25043   0.27460   0.00000  Uiso   1.00
C361   C     0.80243   0.24183   0.21100   0.00000  Uiso   1.00
C362   C     0.77909   0.26604   0.20330   0.00000  Uiso   1.00
C363   C     0.82406   0.04149   0.26779   0.00000  Uiso   1.00
C364   C     0.97561   0.03055   0.27688   0.00000  Uiso   1.00
C365   C     0.97021   0.26045   0.27849   0.00000  Uiso   1.00
C366   C     0.81302   0.01142   0.20587   0.00000  Uiso   1.00
C367   C     0.79044   0.98882   0.21616   0.00000  Uiso   1.00
C368   C     0.77868   0.99552   0.28967   0.00000  Uiso   1.00
C369   C     0.78976   0.02550   0.35168   0.00000  Uiso   1.00
C370   C     0.81249   0.04804   0.34165   0.00000  Uiso   1.00
C371   C     0.99433   0.00847   0.34264   0.00000  Uiso   1.00
C372   C     0.01866   0.99340   0.32480   0.00000  Uiso   1.00
C373   C     0.02420   0.99963   0.23990   0.00000  Uiso   1.00
C374   C     0.00448   0.01929   0.17228   0.00000  Uiso   1.00
C375   C     0.98048   0.03512   0.19091   0.00000  Uiso   1.00
C376   C     0.99474   0.25324   0.34563   0.00000  Uiso   1.00
C377   C     0.01975   0.27072   0.34028   0.00000  Uiso   1.00
C378   C     0.02074   0.29562   0.26807   0.00000  Uiso   1.00
C379   C     0.99595   0.30431   0.20259   0.00000  Uiso   1.00
C380   C     0.97084   0.28679   0.20809   0.00000  Uiso   1.00
C381   C     0.21339   0.42371   0.50829   0.00000  Uiso   1.00
C382   C     0.22490   0.42744   0.43419   0.00000  Uiso   1.00
C383   C     0.20933   0.41730   0.34638   0.00000  Uiso   1.00
C384   C     0.18171   0.40245   0.33503   0.00000  Uiso   1.00
C385   C     0.17068   0.39876   0.41127   0.00000  Uiso   1.00
C386   C     0.18645   0.40910   0.49686   0.00000  Uiso   1.00
C387   C     0.16567   0.39174   0.24785   0.00000  Uiso   1.00
C388   C     0.17641   0.39747   0.17229   0.00000  Uiso   1.00
C389   C     0.20396   0.41040   0.18448   0.00000  Uiso   1.00
C390   C     0.22056   0.42072   0.26993   0.00000  Uiso   1.00
O391   O     0.15938   0.38853   0.08613   0.00000  Uiso   1.00
C392   C     0.16412   0.41037   0.01119   0.00000  Uiso   1.00
C393   C     0.13649   0.41704  -0.05694   0.00000  Uiso   1.00
Cl394  Cl    0.23277   0.43810   0.61572   0.00000  Uiso   1.00
C395   C     0.05399   0.32893   0.19784   0.00000  Uiso   1.00
N396   N     0.04730   0.31164   0.26539   0.00000  Uiso   1.00
C397   C     0.07355   0.98640   0.28074   0.00000  Uiso   1.00
N398   N     0.04975   0.98673   0.22103   0.00000  Uiso   1.00
C399   C     0.74776   0.93874   0.26834   0.00000  Uiso   1.00
N400   N     0.75453   0.97421   0.29957   0.00000  Uiso   1.00
H401   H     0.72605   0.28731   0.18558   0.00000  Uiso   1.00
H402   H     0.80723   0.33602   0.36565   0.00000  Uiso   1.00
H403   H     0.84922   0.29142   0.38116   0.00000  Uiso   1.00
H404   H     0.80100   0.21488   0.16508   0.00000  Uiso   1.00
H405   H     0.75874   0.25823   0.15242   0.00000  Uiso   1.00
H406   H     0.82251   0.00530   0.14658   0.00000  Uiso   1.00
H407   H     0.78138   0.96475   0.16488   0.00000  Uiso   1.00
H408   H     0.78022   0.03167   0.41086   0.00000  Uiso   1.00
H409   H     0.82165   0.07179   0.39363   0.00000  Uiso   1.00
H410   H     0.98972   0.00277   0.41091   0.00000  Uiso   1.00
H411   H     0.03410   0.97601   0.37899   0.00000  Uiso   1.00
H412   H     0.00800   0.02241   0.10176   0.00000  Uiso   1.00
H413   H     0.96479   0.05181   0.13601   0.00000  Uiso   1.00
H414   H     0.99426   0.23299   0.40488   0.00000  Uiso   1.00
H415   H     0.03963   0.26478   0.39504   0.00000  Uiso   1.00
H416   H     0.99637   0.32563   0.14511   0.00000  Uiso   1.00
H417   H     0.95081   0.29399   0.15501   0.00000  Uiso   1.00
H418   H     0.24714   0.43879   0.44402   0.00000  Uiso   1.00
H419   H     0.14856   0.38717   0.40317   0.00000  Uiso   1.00
H420   H     0.17725   0.40559   0.55770   0.00000  Uiso   1.00
H421   H     0.21347   0.41277   0.12408   0.00000  Uiso   1.00
H422   H     0.03810   0.33231   0.13007   0.00000  Uiso   1.00
H423   H     0.07456   0.99778   0.35164   0.00000  Uiso   1.00
H424   H     0.76315   0.92131   0.23893   0.00000  Uiso   1.00
C425   C     0.88796   0.27492   0.28922   0.00000  Uiso   1.00
C426   C     0.91829   0.27540   0.28595   0.00000  Uiso   1.00
C427   C     0.92700   0.23186   0.28395   0.00000  Uiso   1.00
N428   N     0.90345   0.20304   0.28560   0.00000  Uiso   1.00
C429   C     0.87965   0.23111   0.28903   0.00000  Uiso   1.00
C430   C     0.85044   0.21978   0.28972   0.00000  Uiso   1.00
C431   C     0.95619   0.22151   0.28296   0.00000  Uiso   1.00
C432   C     0.91980   0.01062   0.28174   0.00000  Uiso   1.00
C433   C     0.88895   0.01021   0.27827   0.00000  Uiso   1.00
C434   C     0.88007   0.05373   0.27846   0.00000  Uiso   1.00
N435   N     0.90400   0.08250   0.28174   0.00000  Uiso   1.00
C436   C     0.92820   0.05441   0.28342   0.00000  Uiso   1.00
C437   C     0.85066   0.06401   0.27686   0.00000  Uiso   1.00
C438   C     0.95742   0.06565   0.28440   0.00000  Uiso   1.00
C439   C     0.99365   0.16661   0.28306   0.00000  Uiso   1.00
C440   C     0.99410   0.12169   0.28438   0.00000  Uiso   1.00
C441   C     0.96444   0.10862   0.28445   0.00000  Uiso   1.00
N442   N     0.94475   0.14339   0.28354   0.00000  Uiso   1.00
C443   C     0.96379   0.17875   0.28277   0.00000  Uiso   1.00
C444   C     0.81338   0.11897   0.27995   0.00000  Uiso   1.00
C445   C     0.81347   0.16388   0.28530   0.00000  Uiso   1.00
C446   C     0.84325   0.17695   0.28687   0.00000  Uiso   1.00
N447   N     0.86257   0.14215   0.28302   0.00000  Uiso   1.00
C448   C     0.84314   0.10678   0.27900   0.00000  Uiso   1.00
Cu449  Cu    0.90368   0.14276   0.28348   0.00000  Uiso   1.00
H450   H     0.17865   0.39285  -0.02165   0.00000  Uiso   1.00
H451   H     0.17405   0.44017   0.03572   0.00000  Uiso   1.00
H452   H     0.12276   0.38970  -0.05973   0.00000  Uiso   1.00
H453   H     0.14033   0.42254  -0.12637   0.00000  Uiso   1.00
H454   H     0.12561   0.44389  -0.03598   0.00000  Uiso   1.00
H455   H     0.87640   0.30402   0.29120   0.00000  Uiso   1.00
H456   H     0.92955   0.30485   0.28544   0.00000  Uiso   1.00
H457   H     0.93156   0.98150   0.28256   0.00000  Uiso   1.00
H458   H     0.87748   0.98078   0.27619   0.00000  Uiso   1.00
H459   H     0.01341   0.18384   0.28251   0.00000  Uiso   1.00
H460   H     0.01422   0.10512   0.28507   0.00000  Uiso   1.00
H461   H     0.79339   0.10179   0.27756   0.00000  Uiso   1.00
H462   H     0.79356   0.18045   0.28726   0.00000  Uiso   1.00
C463   C     0.65367   0.30079   0.02970   0.00000  Uiso   1.00
C464   C     0.67973   0.30841   0.08759   0.00000  Uiso   1.00
C465   C     0.68398   0.34171   0.14570   0.00000  Uiso   1.00
C466   C     0.66136   0.36806   0.14283   0.00000  Uiso   1.00
C467   C     0.63523   0.35961   0.08357   0.00000  Uiso   1.00
C468   C     0.63147   0.32631   0.02792   0.00000  Uiso   1.00
C469   C     0.66537   0.40205   0.19934   0.00000  Uiso   1.00
C470   C     0.69214   0.41153   0.25228   0.00000  Uiso   1.00
C471   C     0.71430   0.38507   0.25495   0.00000  Uiso   1.00
C472   C     0.71022   0.34956   0.20557   0.00000  Uiso   1.00
O473   O     0.69504   0.44694   0.30321   0.00000  Uiso   1.00
C474   C     0.72188   0.45782   0.35725   0.00000  Uiso   1.00
C475   C     0.71970   0.49748   0.40219   0.00000  Uiso   1.00
Cl476  Cl    0.64900   0.25948  -0.04239   0.00000  Uiso   1.00
H477   H     0.69798   0.28767   0.08853   0.00000  Uiso   1.00
H478   H     0.61676   0.38018   0.08069   0.00000  Uiso   1.00
H479   H     0.61014   0.32001  -0.01914   0.00000  Uiso   1.00
H480   H     0.73608   0.39230   0.29781   0.00000  Uiso   1.00
H481   H     0.73714   0.46045   0.31275   0.00000  Uiso   1.00
H482   H     0.72956   0.43421   0.41105   0.00000  Uiso   1.00
H483   H     0.73906   0.50226   0.45980   0.00000  Uiso   1.00
H484   H     0.70037   0.49763   0.42994   0.00000  Uiso   1.00
H485   H     0.71804   0.52230   0.35053   0.00000  Uiso   1.00
C486   C     0.59096   0.37282   0.35933   0.00000  Uiso   1.00
C487   C     0.58508   0.41149   0.32758   0.00000  Uiso   1.00
C488   C     0.60214   0.43071   0.27916   0.00000  Uiso   1.00
C489   C     0.62562   0.41005   0.26340   0.00000  Uiso   1.00
C490   C     0.63091   0.37086   0.29541   0.00000  Uiso   1.00
C491   C     0.61377   0.35262   0.34319   0.00000  Uiso   1.00
C492   C     0.64318   0.42909   0.21588   0.00000  Uiso   1.00
C493   C     0.63680   0.46769   0.18226   0.00000  Uiso   1.00
C494   C     0.61317   0.48706   0.19474   0.00000  Uiso   1.00
C495   C     0.59612   0.46960   0.24418   0.00000  Uiso   1.00
O496   O     0.65356   0.48605   0.13246   0.00000  Uiso   1.00
C497   C     0.66825   0.52055   0.17341   0.00000  Uiso   1.00
C498   C     0.65841   0.55662   0.11417   0.00000  Uiso   1.00
Cl499  Cl    0.56950   0.34949   0.41935   0.00000  Uiso   1.00
H500   H     0.56635   0.42789   0.34065   0.00000  Uiso   1.00
H501   H     0.64936   0.35376   0.28228   0.00000  Uiso   1.00
H502   H     0.61848   0.32103   0.36908   0.00000  Uiso   1.00
H503   H     0.60746   0.51772   0.16432   0.00000  Uiso   1.00
H504   H     0.69157   0.51617   0.18148   0.00000  Uiso   1.00
H505   H     0.66405   0.52544   0.24255   0.00000  Uiso   1.00
H506   H     0.66850   0.58447   0.15028   0.00000  Uiso   1.00
H507   H     0.63477   0.55919   0.10022   0.00000  Uiso   1.00
H508   H     0.66460   0.55319   0.04763   0.00000  Uiso   1.00
C509   C     0.07277   0.45223   0.25475   0.00000  Uiso   1.00
C510   C     0.06688   0.41218   0.23578   0.00000  Uiso   1.00
C511   C     0.08832   0.38513   0.23152   0.00000  Uiso   1.00
C512   C     0.11628   0.39930   0.24946   0.00000  Uiso   1.00
C513   C     0.12173   0.43982   0.26992   0.00000  Uiso   1.00
C514   C     0.10010   0.46595   0.27199   0.00000  Uiso   1.00
C515   C     0.13820   0.37276   0.24589   0.00000  Uiso   1.00
C516   C     0.13256   0.33230   0.22953   0.00000  Uiso   1.00
C517   C     0.10513   0.31839   0.21401   0.00000  Uiso   1.00
C518   C     0.08275   0.34439   0.21082   0.00000  Uiso   1.00
O519   O     0.15475   0.30619   0.23055   0.00000  Uiso   1.00
C520   C     0.15172   0.28078   0.15387   0.00000  Uiso   1.00
C521   C     0.15141   0.23772   0.18297   0.00000  Uiso   1.00
Cl522  Cl    0.04567   0.48546   0.25768   0.00000  Uiso   1.00
H523   H     0.04454   0.40093   0.22349   0.00000  Uiso   1.00
H524   H     0.14402   0.45147   0.28498   0.00000  Uiso   1.00
H525   H     0.10483   0.49863   0.28785   0.00000  Uiso   1.00
H526   H     0.10059   0.28535   0.20365   0.00000  Uiso   1.00
H527   H     0.16991   0.28572   0.12187   0.00000  Uiso   1.00
H528   H     0.13132   0.28789   0.10248   0.00000  Uiso   1.00
H529   H     0.12895   0.22671   0.16809   0.00000  Uiso   1.00
H530   H     0.16140   0.23523   0.25843   0.00000  Uiso   1.00
H531   H     0.16364   0.21892   0.14422   0.00000  Uiso   1.00
C532   C     0.23179   0.81856   0.21224   0.00000  Uiso   1.00
N533   N     0.25779   0.82727   0.24727   0.00000  Uiso   1.00
C534   C     0.28060   0.79993   0.25793   0.00000  Uiso   1.00
C535   C     0.30566   0.80868   0.32084   0.00000  Uiso   1.00
C536   C     0.32893   0.78413   0.32940   0.00000  Uiso   1.00
C537   C     0.32752   0.75043   0.27460   0.00000  Uiso   1.00
C538   C     0.30243   0.74183   0.21100   0.00000  Uiso   1.00
C539   C     0.27909   0.76604   0.20330   0.00000  Uiso   1.00
C540   C     0.32406   0.54149   0.26779   0.00000  Uiso   1.00
C541   C     0.47561   0.53055   0.27688   0.00000  Uiso   1.00
C542   C     0.47021   0.76045   0.27849   0.00000  Uiso   1.00
C543   C     0.31302   0.51142   0.20587   0.00000  Uiso   1.00
C544   C     0.29044   0.48882   0.21616   0.00000  Uiso   1.00
C545   C     0.27868   0.49552   0.28967   0.00000  Uiso   1.00
C546   C     0.28976   0.52550   0.35168   0.00000  Uiso   1.00
C547   C     0.31249   0.54804   0.34165   0.00000  Uiso   1.00
C548   C     0.49433   0.50847   0.34264   0.00000  Uiso   1.00
C549   C     0.51866   0.49340   0.32480   0.00000  Uiso   1.00
C550   C     0.52420   0.49963   0.23990   0.00000  Uiso   1.00
C551   C     0.50448   0.51929   0.17228   0.00000  Uiso   1.00
C552   C     0.48048   0.53512   0.19091   0.00000  Uiso   1.00
C553   C     0.49474   0.75324   0.34563   0.00000  Uiso   1.00
C554   C     0.51975   0.77072   0.34028   0.00000  Uiso   1.00
C555   C     0.52074   0.79562   0.26807   0.00000  Uiso   1.00
C556   C     0.49595   0.80431   0.20259   0.00000  Uiso   1.00
C557   C     0.47084   0.78679   0.20809   0.00000  Uiso   1.00
C558   C     0.71339   0.92371   0.50829   0.00000  Uiso   1.00
C559   C     0.72490   0.92744   0.43419   0.00000  Uiso   1.00
C560   C     0.70933   0.91730   0.34638   0.00000  Uiso   1.00
C561   C     0.68171   0.90245   0.33503   0.00000  Uiso   1.00
C562   C     0.67068   0.89876   0.41127   0.00000  Uiso   1.00
C563   C     0.68645   0.90910   0.49686   0.00000  Uiso   1.00
C564   C     0.66567   0.89174   0.24785   0.00000  Uiso   1.00
C565   C     0.67641   0.89747   0.17229   0.00000  Uiso   1.00
C566   C     0.70396   0.91040   0.18448   0.00000  Uiso   1.00
C567   C     0.72056   0.92072   0.26993   0.00000  Uiso   1.00
O568   O     0.65938   0.88853   0.08613   0.00000  Uiso   1.00
C569   C     0.66412   0.91037   0.01119   0.00000  Uiso   1.00
C570   C     0.63649   0.91704  -0.05694   0.00000  Uiso   1.00
Cl571  Cl    0.73277   0.93810   0.61572   0.00000  Uiso   1.00
C572   C     0.55399   0.82893   0.19784   0.00000  Uiso   1.00
N573   N     0.54730   0.81164   0.26539   0.00000  Uiso   1.00
C574   C     0.57355   0.48640   0.28074   0.00000  Uiso   1.00
N575   N     0.54975   0.48673   0.22103   0.00000  Uiso   1.00
C576   C     0.24776   0.43874   0.26834   0.00000  Uiso   1.00
N577   N     0.25453   0.47421   0.29957   0.00000  Uiso   1.00
H578   H     0.22605   0.78731   0.18558   0.00000  Uiso   1.00
H579   H     0.30723   0.83602   0.36565   0.00000  Uiso   1.00
H580   H     0.34922   0.79142   0.38116   0.00000  Uiso   1.00
H581   H     0.30100   0.71488   0.16508   0.00000  Uiso   1.00
H582   H     0.25874   0.75823   0.15242   0.00000  Uiso   1.00
H583   H     0.32251   0.50530   0.14658   0.00000  Uiso   1.00
H584   H     0.28138   0.46475   0.16488   0.00000  Uiso   1.00
H585   H     0.28022   0.53167   0.41086   0.00000  Uiso   1.00
H586   H     0.32165   0.57179   0.39363   0.00000  Uiso   1.00
H587   H     0.48972   0.50277   0.41091   0.00000  Uiso   1.00
H588   H     0.53410   0.47601   0.37899   0.00000  Uiso   1.00
H589   H     0.50800   0.52241   0.10176   0.00000  Uiso   1.00
H590   H     0.46479   0.55181   0.13601   0.00000  Uiso   1.00
H591   H     0.49426   0.73299   0.40488   0.00000  Uiso   1.00
H592   H     0.53963   0.76478   0.39504   0.00000  Uiso   1.00
H593   H     0.49637   0.82563   0.14511   0.00000  Uiso   1.00
H594   H     0.45081   0.79399   0.15501   0.00000  Uiso   1.00
H595   H     0.74714   0.93879   0.44402   0.00000  Uiso   1.00
H596   H     0.64856   0.88717   0.40317   0.00000  Uiso   1.00
H597   H     0.67725   0.90559   0.55770   0.00000  Uiso   1.00
H598   H     0.71347   0.91277   0.12408   0.00000  Uiso   1.00
H599   H     0.53810   0.83231   0.13007   0.00000  Uiso   1.00
H600   H     0.57456   0.49778   0.35164   0.00000  Uiso   1.00
H601   H     0.26315   0.42131   0.23893   0.00000  Uiso   1.00
C602   C     0.38796   0.77492   0.28922   0.00000  Uiso   1.00
C603   C     0.41829   0.77540   0.28595   0.00000  Uiso   1.00
C604   C     0.42700   0.73186   0.28395   0.00000  Uiso   1.00
N605   N     0.40345   0.70304   0.28560   0.00000  Uiso   1.00
C606   C     0.37965   0.73111   0.28903   0.00000  Uiso   1.00
C607   C     0.35044   0.71978   0.28972   0.00000  Uiso   1.00
C608   C     0.45619   0.72151   0.28296   0.00000  Uiso   1.00
C609   C     0.41980   0.51062   0.28174   0.00000  Uiso   1.00
C610   C     0.38895   0.51021   0.27827   0.00000  Uiso   1.00
C611   C     0.38007   0.55373   0.27846   0.00000  Uiso   1.00
N612   N     0.40400   0.58250   0.28174   0.00000  Uiso   1.00
C613   C     0.42820   0.55441   0.28342   0.00000  Uiso   1.00
C614   C     0.35066   0.56401   0.27686   0.00000  Uiso   1.00
C615   C     0.45742   0.56565   0.28440   0.00000  Uiso   1.00
C616   C     0.49365   0.66661   0.28306   0.00000  Uiso   1.00
C617   C     0.49410   0.62169   0.28438   0.00000  Uiso   1.00
C618   C     0.46444   0.60862   0.28445   0.00000  Uiso   1.00
N619   N     0.44475   0.64339   0.28354   0.00000  Uiso   1.00
C620   C     0.46379   0.67875   0.28277   0.00000  Uiso   1.00
C621   C     0.31338   0.61897   0.27995   0.00000  Uiso   1.00
C622   C     0.31347   0.66388   0.28530   0.00000  Uiso   1.00
C623   C     0.34325   0.67695   0.28687   0.00000  Uiso   1.00
N624   N     0.36257   0.64215   0.28302   0.00000  Uiso   1.00
C625   C     0.34314   0.60678   0.27900   0.00000  Uiso   1.00
Cu626  Cu    0.40368   0.64276   0.28348   0.00000  Uiso   1.00
H627   H     0.67865   0.89285  -0.02165   0.00000  Uiso   1.00
H628   H     0.67405   0.94017   0.03572   0.00000  Uiso   1.00
H629   H     0.62276   0.88970  -0.05973   0.00000  Uiso   1.00
H630   H     0.64033   0.92254  -0.12637   0.00000  Uiso   1.00
H631   H     0.62561   0.94389  -0.03598   0.00000  Uiso   1.00
H632   H     0.37640   0.80402   0.29120   0.00000  Uiso   1.00
H633   H     0.42955   0.80485   0.28544   0.00000  Uiso   1.00
H634   H     0.43156   0.48150   0.28256   0.00000  Uiso   1.00
H635   H     0.37748   0.48078   0.27619   0.00000  Uiso   1.00
H636   H     0.51341   0.68384   0.28251   0.00000  Uiso   1.00
H637   H     0.51422   0.60512   0.28507   0.00000  Uiso   1.00
H638   H     0.29339   0.60179   0.27756   0.00000  Uiso   1.00
H639   H     0.29356   0.68045   0.28726   0.00000  Uiso   1.00
C640   C     0.15367   0.80079   0.02970   0.00000  Uiso   1.00
C641   C     0.17973   0.80841   0.08759   0.00000  Uiso   1.00
C642   C     0.18398   0.84171   0.14570   0.00000  Uiso   1.00
C643   C     0.16136   0.86806   0.14283   0.00000  Uiso   1.00
C644   C     0.13523   0.85961   0.08357   0.00000  Uiso   1.00
C645   C     0.13147   0.82631   0.02792   0.00000  Uiso   1.00
C646   C     0.16537   0.90205   0.19934   0.00000  Uiso   1.00
C647   C     0.19214   0.91153   0.25228   0.00000  Uiso   1.00
C648   C     0.21430   0.88507   0.25495   0.00000  Uiso   1.00
C649   C     0.21022   0.84956   0.20557   0.00000  Uiso   1.00
O650   O     0.19504   0.94694   0.30321   0.00000  Uiso   1.00
C651   C     0.22188   0.95782   0.35725   0.00000  Uiso   1.00
C652   C     0.21970   0.99748   0.40219   0.00000  Uiso   1.00
Cl653  Cl    0.14900   0.75948  -0.04239   0.00000  Uiso   1.00
H654   H     0.19798   0.78767   0.08853   0.00000  Uiso   1.00
H655   H     0.11676   0.88018   0.08069   0.00000  Uiso   1.00
H656   H     0.11014   0.82001  -0.01914   0.00000  Uiso   1.00
H657   H     0.23608   0.89230   0.29781   0.00000  Uiso   1.00
H658   H     0.23714   0.96045   0.31275   0.00000  Uiso   1.00
H659   H     0.22956   0.93421   0.41105   0.00000  Uiso   1.00
H660   H     0.23906   0.00226   0.45980   0.00000  Uiso   1.00
H661   H     0.20037   0.99763   0.42994   0.00000  Uiso   1.00
H662   H     0.21804   0.02230   0.35053   0.00000  Uiso   1.00
C663   C     0.09096   0.87282   0.35933   0.00000  Uiso   1.00
C664   C     0.08508   0.91149   0.32758   0.00000  Uiso   1.00
C665   C     0.10214   0.93071   0.27916   0.00000  Uiso   1.00
C666   C     0.12562   0.91005   0.26340   0.00000  Uiso   1.00
C667   C     0.13091   0.87086   0.29541   0.00000  Uiso   1.00
C668   C     0.11377   0.85262   0.34319   0.00000  Uiso   1.00
C669   C     0.14318   0.92909   0.21588   0.00000  Uiso   1.00
C670   C     0.13680   0.96769   0.18226   0.00000  Uiso   1.00
C671   C     0.11317   0.98706   0.19474   0.00000  Uiso   1.00
C672   C     0.09612   0.96960   0.24418   0.00000  Uiso   1.00
O673   O     0.15356   0.98605   0.13246   0.00000  Uiso   1.00
C674   C     0.16825   0.02055   0.17341   0.00000  Uiso   1.00
C675   C     0.15841   0.05662   0.11417   0.00000  Uiso   1.00
Cl676  Cl    0.06950   0.84949   0.41935   0.00000  Uiso   1.00
H677   H     0.06635   0.92789   0.34065   0.00000  Uiso   1.00
H678   H     0.14936   0.85376   0.28228   0.00000  Uiso   1.00
H679   H     0.11848   0.82103   0.36908   0.00000  Uiso   1.00
H680   H     0.10746   0.01772   0.16432   0.00000  Uiso   1.00
H681   H     0.19157   0.01617   0.18148   0.00000  Uiso   1.00
H682   H     0.16405   0.02544   0.24255   0.00000  Uiso   1.00
H683   H     0.16850   0.08447   0.15028   0.00000  Uiso   1.00
H684   H     0.13477   0.05919   0.10022   0.00000  Uiso   1.00
H685   H     0.16460   0.05319   0.04763   0.00000  Uiso   1.00
C686   C     0.57277   0.95223   0.25475   0.00000  Uiso   1.00
C687   C     0.56688   0.91218   0.23578   0.00000  Uiso   1.00
C688   C     0.58832   0.88513   0.23152   0.00000  Uiso   1.00
C689   C     0.61628   0.89930   0.24946   0.00000  Uiso   1.00
C690   C     0.62173   0.93982   0.26992   0.00000  Uiso   1.00
C691   C     0.60010   0.96595   0.27199   0.00000  Uiso   1.00
C692   C     0.63820   0.87276   0.24589   0.00000  Uiso   1.00
C693   C     0.63256   0.83230   0.22953   0.00000  Uiso   1.00
C694   C     0.60513   0.81839   0.21401   0.00000  Uiso   1.00
C695   C     0.58275   0.84439   0.21082   0.00000  Uiso   1.00
O696   O     0.65475   0.80619   0.23055   0.00000  Uiso   1.00
C697   C     0.65172   0.78078   0.15387   0.00000  Uiso   1.00
C698   C     0.65141   0.73772   0.18297   0.00000  Uiso   1.00
Cl699  Cl    0.54567   0.98546   0.25768   0.00000  Uiso   1.00
H700   H     0.54454   0.90093   0.22349   0.00000  Uiso   1.00
H701   H     0.64402   0.95147   0.28498   0.00000  Uiso   1.00
H702   H     0.60483   0.99863   0.28785   0.00000  Uiso   1.00
H703   H     0.60059   0.78535   0.20365   0.00000  Uiso   1.00
H704   H     0.66991   0.78572   0.12187   0.00000  Uiso   1.00
H705   H     0.63132   0.78789   0.10248   0.00000  Uiso   1.00
H706   H     0.62895   0.72671   0.16809   0.00000  Uiso   1.00
H707   H     0.66140   0.73523   0.25843   0.00000  Uiso   1.00
H708   H     0.66364   0.71892   0.14422   0.00000  Uiso   1.00
loop_
_geom_bond_atom_site_label_1
_geom_bond_atom_site_label_2
_geom_bond_distance
_geom_bond_site_symmetry_2
_ccdc_geom_bond_type
C1     N2      1.298   .     D
C1     H47     1.140   .     S
C1     C118    1.480   .     S
N2     C3      1.435   .     S
C3     C4      1.398   .     D
C3     C8      1.407   .     S
C4     C5      1.398   .     S
C4     H48     1.140   .     S
C5     C6      1.404   .     D
C5     H49     1.140   .     S
C6     C7      1.403   .     S
C6     C76     1.509   .     S
C7     C8      1.396   .     D
C7     H50     1.140   .     S
C8     H51     1.139   .     S
C9     C12     1.402   .     S
C9     C16     1.407   .     D
C9     C83     1.496   .     S
C10    C17     1.400   .     S
C10    C21     1.404   .     D
C10    C84     1.509   .     S
C11    C22     1.402   .     D
C11    C26     1.402   .     S
C11    C77     1.495   .     S
C12    C13     1.394   1_545 D
C12    H52     1.140   .     S
C13    C12     1.394   1_565 D
C13    C14     1.408   .     S
C13    H53     1.140   .     S
C14    C15     1.401   1_565 D
C14    N46     1.435   .     S
C15    C14     1.401   1_545 D
C15    C16     1.398   .     S
C15    H54     1.140   .     S
C16    H55     1.140   .     S
C17    C18     1.396   1_445 D
C17    H56     1.140   .     S
C18    C17     1.396   1_665 D
C18    C19     1.409   .     S
C18    H57     1.139   .     S
C19    C20     1.399   1_565 D
C19    N44     1.434   .     S
C20    C19     1.399   1_545 D
C20    C21     1.396   1_655 S
C20    H58     1.140   .     S
C21    C20     1.396   1_455 S
C21    H59     1.140   .     S
C22    C23     1.392   1_455 S
C22    H60     1.140   .     S
C23    C22     1.392   1_655 S
C23    C24     1.398   .     D
C23    H61     1.139   .     S
C24    C25     1.407   1_655 S
C24    N42     1.432   .     S
C25    C24     1.407   1_455 S
C25    C26     1.398   .     D
C25    H62     1.140   .     S
C26    H63     1.140   .     S
C27    C28     1.396   .     S
C27    C32     1.391   .     D
C27    Cl40    1.752   .     S
C28    C29     1.413   .     D
C28    H64     1.140   .     S
C29    C30     1.426   .     S
C29    C36     1.420   .     S
C30    C31     1.412   .     D
C30    C33     1.418   .     S
C31    C32     1.391   .     S
C31    H65     1.140   .     S
C32    H66     1.140   .     S
C33    C34     1.402   .     D
C33    C161    1.497   .     S
C34    C35     1.400   .     S
C34    O37     1.408   .     S
C35    C36     1.403   .     D
C35    H67     1.140   .     S
C36    C222    1.483   .     S
O37    C38     1.431   .     S
C38    C39     1.515   .     S
C38    H96     1.140   .     S
C38    H97     1.140   .     S
C39    H98     1.140   .     S
C39    H99     1.140   .     S
C39    H100    1.140   .     S
C41    N42     1.300   .     D
C41    H68     1.140   .     S
C41    C164    1.483   .     S
C43    N44     1.298   .     D
C43    H69     1.140   .     S
C43    C318    1.482   .     S
C45    N46     1.300   .     D
C45    H70     1.140   .     S
C45    C213    1.483   .     S
C71    C72     1.515   .     D
C71    C75     1.533   .     S
C71    H101    1.140   .     S
C72    C73     1.533   .     S
C72    H102    1.140   .     S
C73    N74     1.523   .     S
C73    C77     1.491   .     D
N74    C75     1.523   .     D
N74    Cu95    2.033   .     S
C75    C76     1.499   .     S
C76    C92     1.485   .     D
C77    C89     1.490   .     S
C78    C79     1.515   .     D
C78    C82     1.533   .     S
C78    H103    1.140   1_545 S
C79    C80     1.532   .     S
C79    H104    1.140   1_545 S
C80    N81     1.523   .     S
C80    C83     1.491   .     D
N81    C82     1.523   .     D
N81    Cu95    2.032   .     S
C82    C84     1.492   .     S
C83    C94     1.492   .     S
C84    C87     1.490   .     D
C85    C86     1.515   .     D
C85    C89     1.533   .     S
C85    H105    1.140   1_455 S
C86    C87     1.534   .     S
C86    H106    1.140   1_455 S
C87    N88     1.523   .     S
N88    C89     1.522   .     D
N88    Cu95    2.034   .     S
C90    C91     1.517   .     D
C90    C94     1.534   .     S
C90    H107    1.140   .     S
C91    C92     1.534   .     S
C91    H108    1.140   .     S
C92    N93     1.524   .     S
N93    C94     1.524   .     D
N93    Cu95    2.034   .     S
H103   C78     1.140   1_565 S
H104   C79     1.140   1_565 S
H105   C85     1.140   1_655 S
H106   C86     1.140   1_655 S
C109   C110    1.394   .     D
C109   C114    1.391   .     S
C109   Cl122   1.756   .     S
C110   C111    1.415   .     S
C110   H123    1.140   .     S
C111   C112    1.422   .     D
C111   C118    1.415   .     S
C112   C113    1.411   .     S
C112   C115    1.419   .     S
C113   C114    1.393   .     D
C113   H124    1.140   .     S
C114   H125    1.139   .     S
C115   C116    1.406   .     D
C115   C138    1.497   .     S
C116   C117    1.407   .     S
C116   O119    1.413   .     S
C117   C118    1.403   .     D
C117   H126    1.140   .     S
O119   C120    1.426   .     S
C120   C121    1.520   .     S
C120   H127    1.140   .     S
C120   H128    1.140   .     S
C121   H129    1.140   .     S
C121   H130    1.140   .     S
C121   H131    1.140   .     S
C132   C133    1.397   .     S
C132   C137    1.393   .     D
C132   Cl145   1.755   .     S
C133   C134    1.413   .     D
C133   H146    1.140   .     S
C134   C135    1.427   .     S
C134   C141    1.420   .     S
C135   C136    1.411   .     D
C135   C138    1.419   .     S
C136   C137    1.394   .     S
C136   H147    1.140   .     S
C137   H148    1.140   .     S
C138   C139    1.406   .     D
C139   C140    1.394   .     S
C139   O142    1.403   .     S
C140   C141    1.397   .     D
C140   H149    1.140   .     S
C141   C220    1.482   .     S
O142   C143    1.431   .     S
C143   C144    1.522   .     S
C143   H150    1.140   .     S
C143   H151    1.140   .     S
C144   H152    1.140   .     S
C144   H153    1.139   .     S
C144   H154    1.140   .     S
C155   C156    1.397   .     D
C155   C160    1.392   .     S
C155   Cl168   1.757   .     S
C156   C157    1.414   .     S
C156   H169    1.140   .     S
C157   C158    1.425   .     D
C157   C164    1.421   .     S
C158   C159    1.413   .     S
C158   C161    1.418   .     S
C159   C160    1.393   .     D
C159   H170    1.139   .     S
C160   H171    1.140   .     S
C161   C162    1.402   .     D
C162   C163    1.400   .     S
C162   O165    1.405   .     S
C163   C164    1.404   .     D
C163   H172    1.140   .     S
O165   C166    1.430   .     S
C166   C167    1.520   .     S
C166   H173    1.140   .     S
C166   H174    1.139   .     S
C167   H175    1.140   .     S
C167   H176    1.140   .     S
C167   H177    1.140   .     S
C178   N179    1.298   .     D
C178   H224    1.140   .     S
C178   C295    1.480   .     S
N179   C180    1.435   .     S
C180   C181    1.398   .     S
C180   C185    1.407   .     D
C181   C182    1.398   .     D
C181   H225    1.140   .     S
C182   C183    1.404   .     S
C182   H226    1.140   .     S
C183   C184    1.403   .     D
C183   C253    1.509   .     S
C184   C185    1.396   .     S
C184   H227    1.140   .     S
C185   H228    1.139   .     S
C186   C189    1.402   .     S
C186   C193    1.407   .     D
C186   C260    1.496   .     S
C187   C194    1.400   .     S
C187   C198    1.404   .     D
C187   C261    1.509   .     S
C188   C199    1.402   .     S
C188   C203    1.402   .     D
C188   C254    1.495   .     S
C189   C190    1.394   .     D
C189   H229    1.140   .     S
C190   C191    1.408   .     S
C190   H230    1.140   .     S
C191   C192    1.401   .     D
C191   N223    1.435   .     S
C192   C193    1.398   .     S
C192   H231    1.140   .     S
C193   H232    1.140   .     S
C194   C195    1.396   .     D
C194   H233    1.140   .     S
C195   C196    1.409   .     S
C195   H234    1.139   .     S
C196   C197    1.399   .     D
C196   N221    1.434   .     S
C197   C198    1.396   .     S
C197   H235    1.140   .     S
C198   H236    1.140   .     S
C199   C200    1.392   .     D
C199   H237    1.140   .     S
C200   C201    1.398   .     S
C200   H238    1.139   .     S
C201   C202    1.407   .     D
C201   N219    1.432   .     S
C202   C203    1.398   .     S
C202   H239    1.140   .     S
C203   H240    1.140   .     S
C204   C205    1.396   .     S
C204   C209    1.391   .     D
C204   Cl217   1.752   .     S
C205   C206    1.413   .     D
C205   H241    1.140   .     S
C206   C207    1.426   .     S
C206   C213    1.420   .     S
C207   C208    1.412   .     D
C207   C210    1.418   .     S
C208   C209    1.391   .     S
C208   H242    1.140   .     S
C209   H243    1.140   .     S
C210   C211    1.402   .     D
C210   C338    1.497   .     S
C211   C212    1.400   .     S
C211   O214    1.408   .     S
C212   C213    1.403   .     D
C212   H244    1.140   .     S
O214   C215    1.431   .     S
C215   C216    1.515   .     S
C215   H273    1.140   .     S
C215   H274    1.140   .     S
C216   H275    1.140   .     S
C216   H276    1.140   .     S
C216   H277    1.140   .     S
C218   N219    1.300   .     D
C218   H245    1.140   .     S
C218   C341    1.483   .     S
C220   N221    1.298   .     D
C220   H246    1.140   .     S
C222   N223    1.300   .     D
C222   H247    1.140   .     S
C248   C249    1.515   .     D
C248   C252    1.533   .     S
C248   H278    1.140   .     S
C249   C250    1.533   .     S
C249   H279    1.140   .     S
C250   N251    1.523   .     D
C250   C254    1.491   .     S
N251   C252    1.523   .     S
N251   Cu272   2.033   .     S
C252   C253    1.499   .     D
C253   C269    1.485   .     S
C254   C266    1.490   .     D
C255   C256    1.515   .     D
C255   C259    1.533   .     S
C255   H280    1.140   .     S
C256   C257    1.532   .     S
C256   H281    1.140   .     S
C257   N258    1.523   .     D
C257   C260    1.491   .     S
N258   C259    1.523   .     S
N258   Cu272   2.032   .     S
C259   C261    1.492   .     D
C260   C271    1.492   .     D
C261   C264    1.490   .     S
C262   C263    1.515   .     D
C262   C266    1.533   .     S
C262   H282    1.140   .     S
C263   C264    1.534   .     S
C263   H283    1.140   .     S
C264   N265    1.523   .     D
N265   C266    1.522   .     S
N265   Cu272   2.034   .     S
C267   C268    1.517   .     D
C267   C271    1.534   .     S
C267   H284    1.140   .     S
C268   C269    1.534   .     S
C268   H285    1.140   .     S
C269   N270    1.524   .     D
N270   C271    1.524   .     S
N270   Cu272   2.034   .     S
C286   C287    1.394   .     D
C286   C291    1.391   .     S
C286   Cl299   1.756   .     S
C287   C288    1.415   .     S
C287   H300    1.140   .     S
C288   C289    1.422   .     S
C288   C295    1.415   .     D
C289   C290    1.411   .     S
C289   C292    1.419   .     D
C290   C291    1.393   .     D
C290   H301    1.140   .     S
C291   H302    1.139   .     S
C292   C293    1.406   .     S
C292   C315    1.497   .     S
C293   C294    1.407   .     D
C293   O296    1.413   .     S
C294   C295    1.403   .     S
C294   H303    1.140   .     S
O296   C297    1.426   .     S
C297   C298    1.520   .     S
C297   H304    1.140   .     S
C297   H305    1.140   .     S
C298   H306    1.140   1_565 S
C298   H307    1.140   .     S
C298   H308    1.140   1_565 S
H306   C298    1.140   1_545 S
H308   C298    1.140   1_545 S
C309   C310    1.397   .     S
C309   C314    1.393   .     D
C309   Cl322   1.755   .     S
C310   C311    1.413   .     D
C310   H323    1.140   .     S
C311   C312    1.427   .     S
C311   C318    1.420   .     S
C312   C313    1.411   .     D
C312   C315    1.419   .     S
C313   C314    1.394   .     S
C313   H324    1.140   .     S
C314   H325    1.140   .     S
C315   C316    1.406   .     D
C316   C317    1.394   .     S
C316   O319    1.403   .     S
C317   C318    1.397   .     D
C317   H326    1.140   1_565 S
O319   C320    1.431   1_565 S
C320   O319    1.431   1_545 S
C320   C321    1.522   .     S
C320   H327    1.140   .     S
C320   H328    1.140   .     S
C321   H329    1.140   .     S
C321   H330    1.139   .     S
C321   H331    1.140   .     S
H326   C317    1.140   1_545 S
C332   C333    1.397   .     D
C332   C337    1.392   .     S
C332   Cl345   1.757   .     S
C333   C334    1.414   .     S
C333   H346    1.140   .     S
C334   C335    1.425   .     D
C334   C341    1.421   .     S
C335   C336    1.413   .     S
C335   C338    1.418   .     S
C336   C337    1.393   .     D
C336   H347    1.139   .     S
C337   H348    1.140   .     S
C338   C339    1.402   .     D
C339   C340    1.400   .     S
C339   O342    1.405   .     S
C340   C341    1.404   .     D
C340   H349    1.140   .     S
O342   C343    1.430   .     S
C343   C344    1.520   .     S
C343   H350    1.140   .     S
C343   H351    1.140   .     S
C344   H352    1.140   .     S
C344   H353    1.140   .     S
C344   H354    1.140   .     S
C355   N356    1.298   .     D
C355   H401    1.140   .     S
C355   C472    1.480   .     S
N356   C357    1.435   .     S
C357   C358    1.398   .     D
C357   C362    1.407   .     S
C358   C359    1.398   .     S
C358   H402    1.140   .     S
C359   C360    1.404   .     D
C359   H403    1.140   .     S
C360   C361    1.403   .     S
C360   C430    1.509   .     S
C361   C362    1.396   .     D
C361   H404    1.140   .     S
C362   H405    1.139   .     S
C363   C366    1.402   .     S
C363   C370    1.407   .     D
C363   C437    1.496   .     S
C364   C371    1.400   .     S
C364   C375    1.404   .     D
C364   C438    1.509   .     S
C365   C376    1.402   .     S
C365   C380    1.402   .     D
C365   C431    1.495   .     S
C366   C367    1.394   1_545 D
C366   H406    1.140   .     S
C367   C366    1.394   1_565 D
C367   C368    1.408   .     S
C367   H407    1.140   .     S
C368   C369    1.401   1_565 D
C368   N400    1.435   .     S
C369   C368    1.401   1_545 D
C369   C370    1.398   .     S
C369   H408    1.140   .     S
C370   H409    1.140   .     S
C371   C372    1.396   1_645 D
C371   H410    1.140   .     S
C372   C371    1.396   1_465 D
C372   C373    1.409   .     S
C372   H411    1.139   .     S
C373   C374    1.399   1_565 D
C373   N398    1.434   .     S
C374   C373    1.399   1_545 D
C374   C375    1.396   1_455 S
C374   H412    1.140   .     S
C375   C374    1.396   1_655 S
C375   H413    1.140   .     S
C376   C377    1.392   1_655 D
C376   H414    1.140   .     S
C377   C376    1.392   1_455 D
C377   C378    1.398   .     S
C377   H415    1.139   .     S
C378   C379    1.407   1_455 D
C378   N396    1.432   .     S
C379   C378    1.407   1_655 D
C379   C380    1.398   .     S
C379   H416    1.140   .     S
C380   H417    1.140   .     S
C381   C382    1.396   .     S
C381   C386    1.391   .     D
C381   Cl394   1.752   .     S
C382   C383    1.413   .     D
C382   H418    1.140   .     S
C383   C384    1.426   .     S
C383   C390    1.420   .     S
C384   C385    1.412   .     D
C384   C387    1.418   .     S
C385   C386    1.391   .     S
C385   H419    1.140   .     S
C386   H420    1.140   .     S
C387   C388    1.402   .     D
C387   C515    1.497   .     S
C388   C389    1.400   .     S
C388   O391    1.408   .     S
C389   C390    1.403   .     D
C389   H421    1.140   .     S
C390   C576    1.483   .     S
O391   C392    1.431   .     S
C392   C393    1.515   .     S
C392   H450    1.140   .     S
C392   H451    1.140   .     S
C393   H452    1.140   .     S
C393   H453    1.140   .     S
C393   H454    1.140   .     S
C395   N396    1.300   .     D
C395   H422    1.140   .     S
C395   C518    1.483   .     S
C397   N398    1.298   .     D
C397   H423    1.140   .     S
C397   C672    1.482   .     S
C399   N400    1.300   .     D
C399   H424    1.140   .     S
C399   C567    1.483   .     S
C425   C426    1.515   .     D
C425   C429    1.533   .     S
C425   H455    1.140   .     S
C426   C427    1.533   .     S
C426   H456    1.140   .     S
C427   N428    1.523   .     D
C427   C431    1.491   .     S
N428   C429    1.523   .     S
N428   Cu449   2.033   .     S
C429   C430    1.499   .     D
C430   C446    1.485   .     S
C431   C443    1.490   .     D
C432   C433    1.515   .     D
C432   C436    1.533   .     S
C432   H457    1.140   1_545 S
C433   C434    1.532   .     S
C433   H458    1.140   1_545 S
C434   N435    1.523   .     D
C434   C437    1.491   .     S
N435   C436    1.523   .     S
N435   Cu449   2.032   .     S
C436   C438    1.492   .     D
C437   C448    1.492   .     D
C438   C441    1.490   .     S
C439   C440    1.515   .     D
C439   C443    1.533   .     S
C439   H459    1.140   1_655 S
C440   C441    1.534   .     S
C440   H460    1.140   1_655 S
C441   N442    1.523   .     D
N442   C443    1.522   .     S
N442   Cu449   2.034   .     S
C444   C445    1.517   .     D
C444   C448    1.534   .     S
C444   H461    1.140   .     S
C445   C446    1.534   .     S
C445   H462    1.140   .     S
C446   N447    1.524   .     D
N447   C448    1.524   .     S
N447   Cu449   2.034   .     S
H457   C432    1.140   1_565 S
H458   C433    1.140   1_565 S
H459   C439    1.140   1_455 S
H460   C440    1.140   1_455 S
C463   C464    1.394   .     D
C463   C468    1.391   .     S
C463   Cl476   1.756   .     S
C464   C465    1.415   .     S
C464   H477    1.140   .     S
C465   C466    1.422   .     D
C465   C472    1.415   .     S
C466   C467    1.411   .     S
C466   C469    1.419   .     S
C467   C468    1.393   .     D
C467   H478    1.140   .     S
C468   H479    1.139   .     S
C469   C470    1.406   .     D
C469   C492    1.497   .     S
C470   C471    1.407   .     S
C470   O473    1.413   .     S
C471   C472    1.403   .     D
C471   H480    1.140   .     S
O473   C474    1.426   .     S
C474   C475    1.520   .     S
C474   H481    1.140   .     S
C474   H482    1.140   .     S
C475   H483    1.140   .     S
C475   H484    1.140   .     S
C475   H485    1.140   .     S
C486   C487    1.397   .     D
C486   C491    1.393   .     S
C486   Cl499   1.755   .     S
C487   C488    1.413   .     S
C487   H500    1.140   .     S
C488   C489    1.427   .     D
C488   C495    1.420   .     S
C489   C490    1.411   .     S
C489   C492    1.419   .     S
C490   C491    1.394   .     D
C490   H501    1.140   .     S
C491   H502    1.140   .     S
C492   C493    1.406   .     D
C493   C494    1.394   .     S
C493   O496    1.403   .     S
C494   C495    1.397   .     D
C494   H503    1.140   .     S
C495   C574    1.482   .     S
O496   C497    1.431   .     S
C497   C498    1.522   .     S
C497   H504    1.140   .     S
C497   H505    1.140   .     S
C498   H506    1.140   .     S
C498   H507    1.139   .     S
C498   H508    1.140   .     S
C509   C510    1.397   .     S
C509   C514    1.392   .     D
C509   Cl522   1.757   .     S
C510   C511    1.414   .     D
C510   H523    1.140   .     S
C511   C512    1.425   .     S
C511   C518    1.421   .     S
C512   C513    1.413   .     D
C512   C515    1.418   .     S
C513   C514    1.393   .     S
C513   H524    1.139   .     S
C514   H525    1.140   .     S
C515   C516    1.402   .     D
C516   C517    1.400   .     S
C516   O519    1.405   .     S
C517   C518    1.404   .     D
C517   H526    1.140   .     S
O519   C520    1.430   .     S
C520   C521    1.520   .     S
C520   H527    1.140   .     S
C520   H528    1.140   .     S
C521   H529    1.140   .     S
C521   H530    1.140   .     S
C521   H531    1.140   .     S
C532   N533    1.298   .     D
C532   H578    1.140   .     S
C532   C649    1.480   .     S
N533   C534    1.435   .     S
C534   C535    1.398   .     S
C534   C539    1.407   .     D
C535   C536    1.398   .     D
C535   H579    1.140   .     S
C536   C537    1.404   .     S
C536   H580    1.140   .     S
C537   C538    1.403   .     D
C537   C607    1.509   .     S
C538   C539    1.396   .     S
C538   H581    1.140   .     S
C539   H582    1.139   .     S
C540   C543    1.402   .     S
C540   C547    1.407   .     D
C540   C614    1.496   .     S
C541   C548    1.400   .     S
C541   C552    1.404   .     D
C541   C615    1.509   .     S
C542   C553    1.402   .     S
C542   C557    1.402   .     D
C542   C608    1.495   .     S
C543   C544    1.394   .     D
C543   H583    1.140   .     S
C544   C545    1.408   .     S
C544   H584    1.140   .     S
C545   C546    1.401   .     D
C545   N577    1.435   .     S
C546   C547    1.398   .     S
C546   H585    1.140   .     S
C547   H586    1.140   .     S
C548   C549    1.396   .     D
C548   H587    1.140   .     S
C549   C550    1.409   .     S
C549   H588    1.139   .     S
C550   C551    1.399   .     D
C550   N575    1.434   .     S
C551   C552    1.396   .     S
C551   H589    1.140   .     S
C552   H590    1.140   .     S
C553   C554    1.392   .     D
C553   H591    1.140   .     S
C554   C555    1.398   .     S
C554   H592    1.139   .     S
C555   C556    1.407   .     D
C555   N573    1.432   .     S
C556   C557    1.398   .     S
C556   H593    1.140   .     S
C557   H594    1.140   .     S
C558   C559    1.396   .     S
C558   C563    1.391   .     D
C558   Cl571   1.752   .     S
C559   C560    1.413   .     D
C559   H595    1.140   .     S
C560   C561    1.426   .     S
C560   C567    1.420   .     S
C561   C562    1.412   .     D
C561   C564    1.418   .     S
C562   C563    1.391   .     S
C562   H596    1.140   .     S
C563   H597    1.140   .     S
C564   C565    1.402   .     D
C564   C692    1.497   .     S
C565   C566    1.400   .     S
C565   O568    1.408   .     S
C566   C567    1.403   .     D
C566   H598    1.140   .     S
O568   C569    1.431   .     S
C569   C570    1.515   .     S
C569   H627    1.140   .     S
C569   H628    1.140   .     S
C570   H629    1.140   .     S
C570   H630    1.140   .     S
C570   H631    1.140   .     S
C572   N573    1.300   .     D
C572   H599    1.140   .     S
C572   C695    1.483   .     S
C574   N575    1.298   .     D
C574   H600    1.140   .     S
C576   N577    1.300   .     D
C576   H601    1.140   .     S
C602   C603    1.515   .     D
C602   C606    1.533   .     S
C602   H632    1.140   .     S
C603   C604    1.533   .     S
C603   H633    1.140   .     S
C604   N605    1.523   .     D
C604   C608    1.491   .     S
N605   C606    1.523   .     S
N605   Cu626   2.033   .     S
C606   C607    1.499   .     D
C607   C623    1.485   .     S
C608   C620    1.490   .     D
C609   C610    1.515   .     D
C609   C613    1.533   .     S
C609   H634    1.140   .     S
C610   C611    1.532   .     S
C610   H635    1.140   .     S
C611   N612    1.523   .     D
C611   C614    1.491   .     S
N612   C613    1.523   .     S
N612   Cu626   2.032   .     S
C613   C615    1.492   .     D
C614   C625    1.492   .     D
C615   C618    1.490   .     S
C616   C617    1.515   .     D
C616   C620    1.533   .     S
C616   H636    1.140   .     S
C617   C618    1.534   .     S
C617   H637    1.140   .     S
C618   N619    1.523   .     D
N619   C620    1.522   .     S
N619   Cu626   2.034   .     S
C621   C622    1.517   .     D
C621   C625    1.534   .     S
C621   H638    1.140   .     S
C622   C623    1.534   .     S
C622   H639    1.140   .     S
C623   N624    1.524   .     D
N624   C625    1.524   .     S
N624   Cu626   2.034   .     S
C640   C641    1.394   .     D
C640   C645    1.391   .     S
C640   Cl653   1.756   .     S
C641   C642    1.415   .     S
C641   H654    1.140   .     S
C642   C643    1.422   .     S
C642   C649    1.415   .     D
C643   C644    1.411   .     S
C643   C646    1.419   .     D
C644   C645    1.393   .     D
C644   H655    1.140   .     S
C645   H656    1.139   .     S
C646   C647    1.406   .     S
C646   C669    1.497   .     S
C647   C648    1.407   .     D
C647   O650    1.413   .     S
C648   C649    1.403   .     S
C648   H657    1.140   .     S
O650   C651    1.426   .     S
C651   C652    1.520   .     S
C651   H658    1.140   .     S
C651   H659    1.140   .     S
C652   H660    1.140   1_565 S
C652   H661    1.140   .     S
C652   H662    1.140   1_565 S
H660   C652    1.140   1_545 S
H662   C652    1.140   1_545 S
C663   C664    1.397   .     S
C663   C668    1.393   .     D
C663   Cl676   1.755   .     S
C664   C665    1.413   .     D
C664   H677    1.140   .     S
C665   C666    1.427   .     S
C665   C672    1.420   .     S
C666   C667    1.411   .     D
C666   C669    1.419   .     S
C667   C668    1.394   .     S
C667   H678    1.140   .     S
C668   H679    1.140   .     S
C669   C670    1.406   .     D
C670   C671    1.394   .     S
C670   O673    1.403   .     S
C671   C672    1.397   .     D
C671   H680    1.140   1_565 S
O673   C674    1.431   1_565 S
C674   O673    1.431   1_545 S
C674   C675    1.522   .     S
C674   H681    1.140   .     S
C674   H682    1.140   .     S
C675   H683    1.140   .     S
C675   H684    1.139   .     S
C675   H685    1.140   .     S
H680   C671    1.140   1_545 S
C686   C687    1.397   .     D
C686   C691    1.392   .     S
C686   Cl699   1.757   .     S
C687   C688    1.414   .     S
C687   H700    1.140   .     S
C688   C689    1.425   .     D
C688   C695    1.421   .     S
C689   C690    1.413   .     S
C689   C692    1.418   .     S
C690   C691    1.393   .     D
C690   H701    1.139   .     S
C691   H702    1.140   .     S
C692   C693    1.402   .     D
C693   C694    1.400   .     S
C693   O696    1.405   .     S
C694   C695    1.404   .     D
C694   H703    1.140   .     S
O696   C697    1.430   .     S
C697   C698    1.520   .     S
C697   H704    1.140   .     S
C697   H705    1.140   .     S
C698   H706    1.140   .     S
C698   H707    1.140   .     S
C698   H708    1.140   .     S
