data_419
_audit_creation_date              2023-09-08
_audit_creation_method            'Materials Studio'
_symmetry_space_group_name_H-M    'P1'
_symmetry_Int_Tables_number       1
_symmetry_cell_setting            triclinic
loop_
_symmetry_equiv_pos_as_xyz
  x,y,z
_cell_length_a                    35.1400
_cell_length_b                    35.1400
_cell_length_c                    8.0400
_cell_angle_alpha                 90.0000
_cell_angle_beta                  90.0000
_cell_angle_gamma                 120.0000
loop_
_atom_site_label
_atom_site_type_symbol
_atom_site_fract_x
_atom_site_fract_y
_atom_site_fract_z
_atom_site_U_iso_or_equiv
_atom_site_adp_type
_atom_site_occupancy
H1     H    -0.15893   1.35730   0.47922   0.00000  Uiso   1.00
H2     H    -0.08773   1.38662   0.48579   0.00000  Uiso   1.00
H3     H    -0.00816   1.42500   0.48413   0.00000  Uiso   1.00
H4     H    -0.00503   1.54978   0.49379   0.00000  Uiso   1.00
H5     H    -0.08471   1.51137   0.49539   0.00000  Uiso   1.00
H6     H     0.06679   1.57885   0.49151   0.00000  Uiso   1.00
H7     H     0.12009   1.50585   0.48717   0.00000  Uiso   1.00
H8     H     0.25073   1.61866   0.49837   0.00000  Uiso   1.00
H9     H     0.13867   1.63627   0.49877   0.00000  Uiso   1.00
H10    H     0.26416   1.69098   0.50118   0.00000  Uiso   1.00
H11    H     0.15667   1.47742   0.34513   0.00000  Uiso   1.00
H12    H     0.19122   1.43179   0.34448   0.00000  Uiso   1.00
H13    H     0.29719   1.52769   0.65060   0.00000  Uiso   1.00
H14    H     0.26406   1.57423   0.64806   0.00000  Uiso   1.00
H15    H     0.18963   1.40208   0.65882   0.00000  Uiso   1.00
H16    H     0.14213   1.32238   0.66464   0.00000  Uiso   1.00
H17    H     0.23566   1.30845   0.35300   0.00000  Uiso   1.00
H18    H     0.28235   1.38842   0.34619   0.00000  Uiso   1.00
H19    H     0.31530   1.41622   0.63792   0.00000  Uiso   1.00
C20    C     2.61954  -0.77908   0.05180   0.00000  Uiso   1.00
C21    C     2.64320  -0.73347   0.05276   0.00000  Uiso   1.00
C22    C     2.62389  -0.70818   0.00892   0.00000  Uiso   1.00
C23    C     2.57917  -0.73156  -0.03620   0.00000  Uiso   1.00
C24    C     2.55552  -0.77715  -0.03697   0.00000  Uiso   1.00
C25    C     2.28523  -0.73738   0.03114   0.00000  Uiso   1.00
C26    C     2.30889  -0.69181   0.03253   0.00000  Uiso   1.00
C27    C     2.28945  -0.66646  -0.00824   0.00000  Uiso   1.00
C28    C     2.24463  -0.68973  -0.05202   0.00000  Uiso   1.00
C29    C     2.22096  -0.73536  -0.05344   0.00000  Uiso   1.00
C30    C     2.30176  -0.59146  -0.00552   0.00000  Uiso   1.00
C31    C     2.33323  -0.54440  -0.00370   0.00000  Uiso   1.00
C32    C     2.63514  -0.63368   0.00424   0.00000  Uiso   1.00
C33    C     2.66584  -0.58646   0.00006   0.00000  Uiso   1.00
C34    C     2.37871  -0.52620  -0.00334   0.00000  Uiso   1.00
C35    C     2.40831  -0.48006  -0.00318   0.00000  Uiso   1.00
C36    C     2.38911  -0.45282  -0.00416   0.00000  Uiso   1.00
C37    C     2.34404  -0.46920  -0.00157   0.00000  Uiso   1.00
C38    C     2.31713  -0.51504  -0.00209   0.00000  Uiso   1.00
H39    H     0.39458   1.44889   0.63807   0.00000  Uiso   1.00
H40    H     0.40689   1.56102   0.36326   0.00000  Uiso   1.00
H41    H     0.32712   1.52712   0.35922   0.00000  Uiso   1.00
H42    H     0.09565   1.26441   0.51460   0.00000  Uiso   1.00
H43    H     0.07571   1.13378   0.49930   0.00000  Uiso   1.00
H44    H     0.20692   1.24411   0.49717   0.00000  Uiso   1.00
H45    H     0.45280   1.46404   0.49270   0.00000  Uiso   1.00
H46    H     0.58288   1.57563   0.49869   0.00000  Uiso   1.00
H47    H     0.47147   1.59488   0.49949   0.00000  Uiso   1.00
H48    H     0.02267   1.20617   0.51734   0.00000  Uiso   1.00
H49    H    -0.04885   1.17675   0.51202   0.00000  Uiso   1.00
H50    H    -0.12845   1.13827   0.51256   0.00000  Uiso   1.00
H51    H    -0.13137   1.01360   0.50469   0.00000  Uiso   1.00
H52    H    -0.05172   1.05208   0.50416   0.00000  Uiso   1.00
H53    H    -0.20300   0.98442   0.50413   0.00000  Uiso   1.00
H54    H     0.59752   1.64808   0.49246   0.00000  Uiso   1.00
H55    H     0.63661   1.71890   0.40986   0.00000  Uiso   1.00
H56    H     0.67802   1.79871   0.40772   0.00000  Uiso   1.00
H57    H     0.56201   1.80201   0.56795   0.00000  Uiso   1.00
H58    H     0.52066   1.72229   0.56990   0.00000  Uiso   1.00
H59    H     0.30219   1.76084   0.42865   0.00000  Uiso   1.00
H60    H     0.34356   1.84061   0.42788   0.00000  Uiso   1.00
H61    H     0.22745   1.84377   0.58667   0.00000  Uiso   1.00
H62    H     0.18605   1.76398   0.58805   0.00000  Uiso   1.00
H63    H     0.26635   1.91440   0.51211   0.00000  Uiso   1.00
H64    H     0.59969   1.87159   0.49295   0.00000  Uiso   1.00
H65    H     0.39232   1.96791   0.50760   0.00000  Uiso   1.00
H66    H     0.41062   2.09863   0.50265   0.00000  Uiso   1.00
H67    H     0.28068   1.98674   0.50065   0.00000  Uiso   1.00
C68    C     2.71171  -0.56723  -0.00234   0.00000  Uiso   1.00
C69    C     2.74093  -0.52175  -0.00759   0.00000  Uiso   1.00
C70    C     2.72248  -0.49469  -0.01067   0.00000  Uiso   1.00
C71    C     2.67626  -0.51150  -0.00627   0.00000  Uiso   1.00
C72    C     2.64921  -0.55799  -0.00208   0.00000  Uiso   1.00
C73    C     2.45548  -0.46123  -0.00026   0.00000  Uiso   1.00
C74    C     2.65721  -0.48339  -0.00329   0.00000  Uiso   1.00
C75    C     2.47709  -0.48214  -0.07438   0.00000  Uiso   1.00
C76    C     2.52239  -0.46291  -0.07634   0.00000  Uiso   1.00
C77    C     2.54986  -0.42171  -0.00202   0.00000  Uiso   1.00
C78    C     2.52900  -0.40084   0.07367   0.00000  Uiso   1.00
C79    C     2.48381  -0.41967   0.07447   0.00000  Uiso   1.00
C80    C     2.67675  -0.44183  -0.08511   0.00000  Uiso   1.00
C81    C     2.65732  -0.41594  -0.08539   0.00000  Uiso   1.00
C82    C     2.61730  -0.42895  -0.00243   0.00000  Uiso   1.00
C83    C     2.59790  -0.46957   0.08130   0.00000  Uiso   1.00
C84    C     2.61686  -0.49583   0.08043   0.00000  Uiso   1.00
C85    C     2.62465  -0.35453   0.00171   0.00000  Uiso   1.00
C86    C     2.66459  -0.33429   0.09026   0.00000  Uiso   1.00
C87    C     2.69126  -0.28914   0.09426   0.00000  Uiso   1.00
C88    C     2.68013  -0.26039   0.00937   0.00000  Uiso   1.00
C89    C     2.63923  -0.28143  -0.07740   0.00000  Uiso   1.00
C90    C     2.61285  -0.32668  -0.08180   0.00000  Uiso   1.00
C91    C     2.70910  -0.21338   0.00773   0.00000  Uiso   1.00
C92    C     2.75555  -0.19469   0.01257   0.00000  Uiso   1.00
C93    C     2.78474  -0.14967   0.00966   0.00000  Uiso   1.00
C94    C     2.76621  -0.12244   0.00293   0.00000  Uiso   1.00
C95    C     2.72085  -0.13802  -0.00150   0.00000  Uiso   1.00
C96    C     2.69308  -0.18339   0.00013   0.00000  Uiso   1.00
H97    H     0.72519   1.92673   0.49641   0.00000  Uiso   1.00
H98    H     0.74320   2.05693   0.50956   0.00000  Uiso   1.00
H99    H     0.61278   1.94382   0.49631   0.00000  Uiso   1.00
H100   H     0.45692   2.00233   0.64071   0.00000  Uiso   1.00
H101   H     0.53660   2.03603   0.64270   0.00000  Uiso   1.00
H102   H     0.54824   2.14599   0.35792   0.00000  Uiso   1.00
H103   H     0.46883   2.11325   0.35805   0.00000  Uiso   1.00
H104   H     0.70626   2.08454   0.65508   0.00000  Uiso   1.00
H105   H     0.67186   2.13028   0.65653   0.00000  Uiso   1.00
H106   H     0.56632   2.03519   0.34645   0.00000  Uiso   1.00
H107   H     0.59949   1.98874   0.34680   0.00000  Uiso   1.00
H108   H     0.67487   2.16084   0.34518   0.00000  Uiso   1.00
H109   H     0.72248   2.24048   0.34179   0.00000  Uiso   1.00
H110   H     0.62755   2.25418   0.64518   0.00000  Uiso   1.00
H111   H     0.58072   2.17423   0.64985   0.00000  Uiso   1.00
H112   H     0.76835   2.29887   0.48607   0.00000  Uiso   1.00
H113   H     0.78754   2.42922   0.50104   0.00000  Uiso   1.00
H114   H     0.65668   2.31849   0.50772   0.00000  Uiso   1.00
H115   H     0.35255   2.11251   0.49765   0.00000  Uiso   1.00
H116   H     0.73044   2.44427   0.51242   0.00000  Uiso   1.00
H117   H     0.32410   2.15438   0.49123   0.00000  Uiso   1.00
H118   H     0.28635   2.19622   0.49124   0.00000  Uiso   1.00
H119   H     0.16101   2.07520   0.48712   0.00000  Uiso   1.00
H120   H     0.19872   2.03332   0.48744   0.00000  Uiso   1.00
H121   H     0.70216   2.48697   0.49800   0.00000  Uiso   1.00
H122   H     0.66450   2.52898   0.49721   0.00000  Uiso   1.00
H123   H     0.53936   2.40837   0.53526   0.00000  Uiso   1.00
H124   H     0.57705   2.36640   0.53560   0.00000  Uiso   1.00
H125   H     0.13273   2.11832   0.48941   0.00000  Uiso   1.00
C126   C     2.32809  -0.43806   0.00146   0.00000  Uiso   1.00
C127   C     2.70587  -0.10611  -0.00729   0.00000  Uiso   1.00
C128   C     2.26562  -0.42569   0.01550   0.00000  Uiso   1.00
C129   C     2.64389  -0.09272  -0.01009   0.00000  Uiso   1.00
C130   C     2.28892  -0.37950   0.02691   0.00000  Uiso   1.00
C131   C     2.26747  -0.35538   0.02744   0.00000  Uiso   1.00
C132   C     2.22147  -0.37561   0.01685   0.00000  Uiso   1.00
C133   C     2.19816  -0.42182   0.00663   0.00000  Uiso   1.00
C134   C     2.21961  -0.44596   0.00619   0.00000  Uiso   1.00
C135   C     2.66721  -0.04642  -0.01154   0.00000  Uiso   1.00
C136   C     2.64566  -0.02237  -0.01146   0.00000  Uiso   1.00
C137   C     2.59956  -0.04282  -0.00995   0.00000  Uiso   1.00
C138   C     2.57628  -0.08911  -0.00938   0.00000  Uiso   1.00
C139   C     2.59782  -0.11314  -0.00947   0.00000  Uiso   1.00
C140   C     2.15945  -0.36233   0.01203   0.00000  Uiso   1.00
C141   C     2.53692  -0.03057  -0.00322   0.00000  Uiso   1.00
C142   C    -0.16871   1.38251   0.48682   0.00000  Uiso   1.00
C143   C    -0.09365   1.44557   0.49045   0.00000  Uiso   1.00
C144   C    -0.07022   1.42271   0.48731   0.00000  Uiso   1.00
C145   C    -0.02463   1.44463   0.48642   0.00000  Uiso   1.00
C146   C     0.00078   1.49075   0.48862   0.00000  Uiso   1.00
C147   C    -0.02261   1.51367   0.49177   0.00000  Uiso   1.00
C148   C    -0.06825   1.49173   0.49269   0.00000  Uiso   1.00
C149   C     0.07616   1.55328   0.48998   0.00000  Uiso   1.00
C150   C     0.12324   1.56876   0.49173   0.00000  Uiso   1.00
C151   C     0.14168   1.54169   0.48903   0.00000  Uiso   1.00
C152   C     0.18790   1.55851   0.49350   0.00000  Uiso   1.00
C153   C     0.21495   1.60499   0.49773   0.00000  Uiso   1.00
C154   C     0.19831   1.63346   0.49968   0.00000  Uiso   1.00
H155   H     0.51099   2.45000   0.49308   0.00000  Uiso   1.00
H156   H     0.06721   0.06253   0.00565   0.00000  Uiso   1.00
H157   H     0.12099  -0.01004   0.00925   0.00000  Uiso   1.00
H158   H     0.25141   0.10308  -0.00378   0.00000  Uiso   1.00
H159   H     0.13901   0.12018  -0.00208   0.00000  Uiso   1.00
H160   H     0.26453   0.17528  -0.00662   0.00000  Uiso   1.00
H161   H     0.29793   0.01182  -0.15354   0.00000  Uiso   1.00
H162   H     0.26472   0.05822  -0.15324   0.00000  Uiso   1.00
H163   H     0.40736   0.04481   0.13874   0.00000  Uiso   1.00
H164   H     0.58354   0.06015   0.00160   0.00000  Uiso   1.00
H165   H     0.47199   0.07911   0.00630   0.00000  Uiso   1.00
H166   H     0.59792   0.13257   0.01154   0.00000  Uiso   1.00
H167   H     0.63664   0.20325   0.08852   0.00000  Uiso   1.00
H168   H     0.67800   0.28305   0.08960   0.00000  Uiso   1.00
H169   H     0.56203   0.28605  -0.07303   0.00000  Uiso   1.00
H170   H     0.52070   0.20626  -0.07349   0.00000  Uiso   1.00
H171   H     0.30249   0.24498   0.06598   0.00000  Uiso   1.00
H172   H     0.34381   0.32470   0.06748   0.00000  Uiso   1.00
H173   H     0.22741   0.32796  -0.08701   0.00000  Uiso   1.00
H174   H     0.18603   0.24816  -0.08865   0.00000  Uiso   1.00
H175   H     0.26674   0.39886  -0.00807   0.00000  Uiso   1.00
H176   H     0.59998   0.35602   0.00197   0.00000  Uiso   1.00
H177   H     0.39280   0.45209  -0.00111   0.00000  Uiso   1.00
H178   H     0.41140   0.58290  -0.00682   0.00000  Uiso   1.00
H179   H     0.28135   0.47127  -0.00117   0.00000  Uiso   1.00
H180   H     0.72550   0.41075  -0.00017   0.00000  Uiso   1.00
H181   H     0.74407   0.54116  -0.01259   0.00000  Uiso   1.00
H182   H     0.61343   0.42836  -0.00157   0.00000  Uiso   1.00
H183   H     0.45746   0.48608  -0.13731   0.00000  Uiso   1.00
C184   C     0.15245   1.61424   0.49695   0.00000  Uiso   1.00
C185   C     0.22900   1.68068   0.50390   0.00000  Uiso   1.00
C186   C     0.20700   1.53044   0.49629   0.00000  Uiso   1.00
C187   C     0.18752   1.48890   0.41432   0.00000  Uiso   1.00
C188   C     0.20701   1.46306   0.41390   0.00000  Uiso   1.00
C189   C     0.24702   1.47609   0.49697   0.00000  Uiso   1.00
C190   C     0.26641   1.51673   0.58056   0.00000  Uiso   1.00
C191   C     0.24739   1.54293   0.57976   0.00000  Uiso   1.00
C192   C     0.23964   1.40164   0.50131   0.00000  Uiso   1.00
C193   C     0.31443   1.46881   0.49810   0.00000  Uiso   1.00
C194   C     0.19960   1.38141   0.58922   0.00000  Uiso   1.00
C195   C     0.17292   1.33626   0.59322   0.00000  Uiso   1.00
C196   C     0.18411   1.30748   0.50890   0.00000  Uiso   1.00
C197   C     0.22512   1.32852   0.42287   0.00000  Uiso   1.00
C198   C     0.25151   1.37377   0.41843   0.00000  Uiso   1.00
C199   C     0.33525   1.44793   0.57400   0.00000  Uiso   1.00
C200   C     0.38044   1.46671   0.57486   0.00000  Uiso   1.00
C201   C     0.40879   1.50826   0.50009   0.00000  Uiso   1.00
C202   C     0.38723   1.52923   0.42609   0.00000  Uiso   1.00
C203   C     0.34194   1.51001   0.42394   0.00000  Uiso   1.00
C204   C     0.15512   1.26046   0.50691   0.00000  Uiso   1.00
C205   C     0.45594   1.52703   0.49693   0.00000  Uiso   1.00
C206   C     0.10866   1.24175   0.51138   0.00000  Uiso   1.00
C207   C     0.07948   1.19673   0.50814   0.00000  Uiso   1.00
C208   C     0.09804   1.16952   0.50141   0.00000  Uiso   1.00
C209   C     0.14341   1.18510   0.49724   0.00000  Uiso   1.00
C210   C     0.17114   1.23048   0.49919   0.00000  Uiso   1.00
C211   C     0.47511   1.49976   0.49554   0.00000  Uiso   1.00
C212   C     0.52018   1.51612   0.49806   0.00000  Uiso   1.00
H213   H     0.53724   0.52001  -0.14108   0.00000  Uiso   1.00
H214   H     0.54893   0.63087   0.13755   0.00000  Uiso   1.00
H215   H     0.46966   0.59814   0.13768   0.00000  Uiso   1.00
H216   H     0.70759   0.56961  -0.15434   0.00000  Uiso   1.00
H217   H     0.67317   0.61536  -0.15467   0.00000  Uiso   1.00
H218   H     0.56716   0.51955   0.15155   0.00000  Uiso   1.00
H219   H     0.60017   0.47289   0.14876   0.00000  Uiso   1.00
H220   H     0.67450   0.64506   0.16039   0.00000  Uiso   1.00
H221   H     0.72197   0.72478   0.16617   0.00000  Uiso   1.00
H222   H     0.62878   0.73864  -0.14779   0.00000  Uiso   1.00
H223   H     0.58208   0.65864  -0.15448   0.00000  Uiso   1.00
H224   H     0.76856   0.78265   0.01582   0.00000  Uiso   1.00
H225   H     0.78854   0.91330   0.00097   0.00000  Uiso   1.00
H226   H     0.65731   0.80298  -0.00205   0.00000  Uiso   1.00
H227   H     0.35330   0.59694  -0.00484   0.00000  Uiso   1.00
H228   H     0.73156   0.92878  -0.00873   0.00000  Uiso   1.00
H229   H     0.32494   0.63861   0.03527   0.00000  Uiso   1.00
H230   H     0.28729   0.68062   0.03580   0.00000  Uiso   1.00
H231   H     0.16214   0.56009  -0.00225   0.00000  Uiso   1.00
H232   H     0.19976   0.51806  -0.00320   0.00000  Uiso   1.00
H233   H     0.70330   0.97185  -0.01235   0.00000  Uiso   1.00
H234   H     0.66556   1.01370  -0.01204   0.00000  Uiso   1.00
H235   H     0.54021   0.89258  -0.00835   0.00000  Uiso   1.00
H236   H     0.57803   0.85079  -0.00837   0.00000  Uiso   1.00
H237   H     0.13384   0.60276   0.01153   0.00000  Uiso   1.00
H238   H     0.51167   0.93441  -0.00152   0.00000  Uiso   1.00
H239   H     0.15787   0.96231   0.15445   0.00000  Uiso   1.00
H240   H     0.19234   0.91662   0.15618   0.00000  Uiso   1.00
H241   H     0.18937   0.88611  -0.15470   0.00000  Uiso   1.00
C242   C     0.54710   1.56196   0.49784   0.00000  Uiso   1.00
C243   C     0.53103   1.59134   0.49652   0.00000  Uiso   1.00
C244   C     0.48555   1.57316   0.49697   0.00000  Uiso   1.00
C245   C     0.03233   1.18085   0.51165   0.00000  Uiso   1.00
C246   C    -0.04286   1.11784   0.50822   0.00000  Uiso   1.00
C247   C    -0.06633   1.14066   0.51057   0.00000  Uiso   1.00
C248   C    -0.11194   1.11869   0.51085   0.00000  Uiso   1.00
C249   C    -0.13729   1.07256   0.50880   0.00000  Uiso   1.00
C250   C    -0.11384   1.04970   0.50647   0.00000  Uiso   1.00
C251   C    -0.06821   1.07169   0.50617   0.00000  Uiso   1.00
C252   C    -0.21254   1.00986   0.50611   0.00000  Uiso   1.00
C253   C     0.56250   1.63840   0.49488   0.00000  Uiso   1.00
C254   C     0.24024   1.75514   0.50903   0.00000  Uiso   1.00
C255   C     0.57481   1.71339   0.49162   0.00000  Uiso   1.00
C256   C     0.61951   1.73663   0.44608   0.00000  Uiso   1.00
C257   C     0.64319   1.78226   0.44435   0.00000  Uiso   1.00
C258   C     0.62389   1.80765   0.48715   0.00000  Uiso   1.00
C259   C     0.57916   1.78434   0.53201   0.00000  Uiso   1.00
C260   C     0.55549   1.73877   0.53368   0.00000  Uiso   1.00
C261   C     0.28501   1.77848   0.46471   0.00000  Uiso   1.00
C262   C     0.30870   1.82406   0.46378   0.00000  Uiso   1.00
C263   C     0.28933   1.84936   0.50613   0.00000  Uiso   1.00
C264   C     0.24459   1.82607   0.55080   0.00000  Uiso   1.00
C265   C     0.22090   1.78046   0.55191   0.00000  Uiso   1.00
C266   C     0.30139   1.92421   0.50740   0.00000  Uiso   1.00
C267   C     0.33270   1.97129   0.50613   0.00000  Uiso   1.00
C268   C     0.63488   1.88201   0.49071   0.00000  Uiso   1.00
C269   C     0.66540   1.92926   0.49532   0.00000  Uiso   1.00
C270   C     0.37818   1.98959   0.50766   0.00000  Uiso   1.00
H271   H     0.14174   0.80647  -0.15764   0.00000  Uiso   1.00
H272   H     0.23676   0.79285   0.14557   0.00000  Uiso   1.00
H273   H     0.28363   0.87282   0.14968   0.00000  Uiso   1.00
H274   H     0.31597   0.90091  -0.14240   0.00000  Uiso   1.00
H275   H     0.39539   0.93375  -0.14320   0.00000  Uiso   1.00
H276   H     0.32768   1.01104   0.14139   0.00000  Uiso   1.00
H277   H     0.09593   0.74821  -0.01232   0.00000  Uiso   1.00
H278   H     0.07665   0.61782   0.00155   0.00000  Uiso   1.00
H279   H     0.20755   0.72851   0.00811   0.00000  Uiso   1.00
H280   H     0.45354   0.94833   0.00165   0.00000  Uiso   1.00
H281   H     0.02319   0.68984  -0.01902   0.00000  Uiso   1.00
H282   H     0.84151   0.84084   0.01863   0.00000  Uiso   1.00
H283   H     0.91297   0.87021   0.01411   0.00000  Uiso   1.00
H284   H     0.99258   0.90867   0.01421   0.00000  Uiso   1.00
H285   H     0.99552   1.03337   0.00684   0.00000  Uiso   1.00
H286   H     0.91586   0.99488   0.00667   0.00000  Uiso   1.00
H287   H     0.95190   0.66051  -0.01296   0.00000  Uiso   1.00
H288   H     0.87232   0.62211  -0.01487   0.00000  Uiso   1.00
H289   H     0.86921   0.49735  -0.00429   0.00000  Uiso   1.00
H290   H     0.94888   0.53576  -0.00238   0.00000  Uiso   1.00
H291   H     0.79742   0.46824  -0.00696   0.00000  Uiso   1.00
C292   C     1.83186  -1.13383   0.01344   0.00000  Uiso   1.00
C293   C     1.90702  -1.07086   0.01055   0.00000  Uiso   1.00
C294   C     1.93047  -1.09370   0.01270   0.00000  Uiso   1.00
C295   C     1.97607  -1.07173   0.01273   0.00000  Uiso   1.00
C296   C     2.00144  -1.02561   0.01063   0.00000  Uiso   1.00
C297   C     1.97800  -1.00273   0.00862   0.00000  Uiso   1.00
C298   C     1.93237  -1.02471   0.00855   0.00000  Uiso   1.00
C299   C     2.07672  -0.96293   0.00737   0.00000  Uiso   1.00
C300   C     0.40768   2.03573   0.50457   0.00000  Uiso   1.00
C301   C     0.38839   2.06289   0.50232   0.00000  Uiso   1.00
C302   C     0.34330   2.04640   0.50027   0.00000  Uiso   1.00
C303   C     0.31648   2.00055   0.50244   0.00000  Uiso   1.00
C304   C     0.71128   1.94864   0.49839   0.00000  Uiso   1.00
C305   C     0.74035   1.99415   0.50410   0.00000  Uiso   1.00
C306   C     0.72174   2.02107   0.50712   0.00000  Uiso   1.00
C307   C     0.67549   2.00409   0.50241   0.00000  Uiso   1.00
C308   C     0.64858   1.95758   0.49728   0.00000  Uiso   1.00
C309   C     0.45484   2.05455   0.50050   0.00000  Uiso   1.00
C310   C     0.65631   2.03207   0.50078   0.00000  Uiso   1.00
C311   C     0.47649   2.03386   0.57601   0.00000  Uiso   1.00
C312   C     0.52176   2.05301   0.57713   0.00000  Uiso   1.00
C313   C     0.54917   2.09394   0.50090   0.00000  Uiso   1.00
C314   C     0.52826   2.11452   0.42331   0.00000  Uiso   1.00
C315   C     0.48307   2.09572   0.42275   0.00000  Uiso   1.00
C316   C     0.67559   2.07331   0.58488   0.00000  Uiso   1.00
C317   C     0.65620   2.09923   0.58571   0.00000  Uiso   1.00
C318   C     0.61641   2.08651   0.50147   0.00000  Uiso   1.00
C319   C     0.59707   2.04605   0.41659   0.00000  Uiso   1.00
C320   C     0.61607   2.01983   0.41644   0.00000  Uiso   1.00
C321   C     0.62407   2.16110   0.49845   0.00000  Uiso   1.00
C322   C     0.66457   2.18141   0.41362   0.00000  Uiso   1.00
C323   C     0.69137   2.22657   0.41113   0.00000  Uiso   1.00
C324   C     0.67981   2.25529   0.49367   0.00000  Uiso   1.00
C325   C     0.63840   2.23416   0.57672   0.00000  Uiso   1.00
C326   C     0.61188   2.18893   0.57975   0.00000  Uiso   1.00
C327   C     0.70865   2.30238   0.49592   0.00000  Uiso   1.00
C328   C     0.75511   2.32134   0.48995   0.00000  Uiso   1.00
C329   C     2.12383  -0.94725   0.00485   0.00000  Uiso   1.00
C330   C     2.14244  -0.97417   0.00712   0.00000  Uiso   1.00
C331   C     2.18869  -0.95719   0.00224   0.00000  Uiso   1.00
C332   C     2.21561  -0.91068  -0.00264   0.00000  Uiso   1.00
C333   C     2.19879  -0.88235  -0.00411   0.00000  Uiso   1.00
C334   C     2.15291  -0.90174  -0.00063   0.00000  Uiso   1.00
C335   C     2.22934  -0.83511  -0.00857   0.00000  Uiso   1.00
C336   C     2.20787  -0.98517   0.00049   0.00000  Uiso   1.00
C337   C     2.18857  -1.02643   0.08445   0.00000  Uiso   1.00
C338   C     2.20801  -1.05231   0.08541   0.00000  Uiso   1.00
C339   C     2.24782  -1.03956   0.00129   0.00000  Uiso   1.00
C340   C     2.26715  -0.99908  -0.08350   0.00000  Uiso   1.00
C341   C     2.24814  -0.97288  -0.08368   0.00000  Uiso   1.00
C342   C     2.24021  -1.11411  -0.00154   0.00000  Uiso   1.00
C343   C     2.31508  -1.04695   0.00012   0.00000  Uiso   1.00
C344   C     2.19967  -1.13445  -0.08620   0.00000  Uiso   1.00
C345   C     2.17287  -1.17960  -0.08843   0.00000  Uiso   1.00
C346   C     2.18445  -1.20829  -0.00569   0.00000  Uiso   1.00
C347   C     2.22590  -1.18715   0.07708   0.00000  Uiso   1.00
C348   C     2.25243  -1.14191   0.07981   0.00000  Uiso   1.00
C349   C     2.33596  -1.06756  -0.07748   0.00000  Uiso   1.00
C350   C     2.38117  -1.04869  -0.07857   0.00000  Uiso   1.00
C351   C     2.40941  -1.00749  -0.00112   0.00000  Uiso   1.00
C352   C     2.38778  -0.98676   0.07427   0.00000  Uiso   1.00
C353   C     2.34252  -1.00595   0.07583   0.00000  Uiso   1.00
C354   C     2.15559  -1.25536  -0.00311   0.00000  Uiso   1.00
C355   C     2.45656  -0.98873   0.00339   0.00000  Uiso   1.00
C356   C     2.10913  -1.27429  -0.00871   0.00000  Uiso   1.00
C357   C     2.08011  -1.31935  -0.00658   0.00000  Uiso   1.00
C358   C     0.78412   2.36641   0.49222   0.00000  Uiso   1.00
C359   C     0.76539   2.39345   0.49980   0.00000  Uiso   1.00
C360   C     0.72000   2.37761   0.50576   0.00000  Uiso   1.00
C361   C     0.69245   2.33220   0.50460   0.00000  Uiso   1.00
C362   C     0.32730   2.07749   0.49613   0.00000  Uiso   1.00
C363   C     0.70482   2.40936   0.51230   0.00000  Uiso   1.00
C364   C     0.26472   2.08980   0.48944   0.00000  Uiso   1.00
C365   C     0.64284   2.42266   0.51694   0.00000  Uiso   1.00
C366   C     0.28803   2.13610   0.49011   0.00000  Uiso   1.00
C367   C     0.26651   2.16015   0.49005   0.00000  Uiso   1.00
C368   C     0.22043   2.13977   0.48930   0.00000  Uiso   1.00
C369   C     0.19710   2.09347   0.48789   0.00000  Uiso   1.00
C370   C     0.21863   2.06939   0.48798   0.00000  Uiso   1.00
C371   C     0.66615   2.46888   0.50687   0.00000  Uiso   1.00
C372   C     0.64467   2.49299   0.50651   0.00000  Uiso   1.00
C373   C     0.59865   2.47270   0.51573   0.00000  Uiso   1.00
C374   C     0.57537   2.42650   0.52697   0.00000  Uiso   1.00
C375   C     0.59685   2.40240   0.52742   0.00000  Uiso   1.00
C376   C     0.15842   2.15320   0.49139   0.00000  Uiso   1.00
C377   C     0.53616   2.48500   0.50065   0.00000  Uiso   1.00
N378   N     1.86042  -1.09193   0.00987   0.00000  Uiso   1.00
N379   N     2.04803  -1.00478   0.01022   0.00000  Uiso   1.00
N380   N     2.26779  -1.06686   0.00112   0.00000  Uiso   1.00
N381   N     2.00444  -1.37732  -0.00652   0.00000  Uiso   1.00
N382   N     1.81681  -1.46439  -0.01103   0.00000  Uiso   1.00
N383   N     2.21514  -0.80727  -0.01369   0.00000  Uiso   1.00
N384   N     2.54935  -0.84889   0.00288   0.00000  Uiso   1.00
N385   N     2.31511  -0.61998  -0.00424   0.00000  Uiso   1.00
N386   N     2.64919  -0.66163   0.00993   0.00000  Uiso   1.00
C387   C     2.09883  -1.34641   0.00047   0.00000  Uiso   1.00
C388   C     2.14423  -1.33060   0.00611   0.00000  Uiso   1.00
C389   C     2.17177  -1.28520   0.00524   0.00000  Uiso   1.00
C390   C     2.47581  -1.01593   0.00159   0.00000  Uiso   1.00
C391   C     2.52090  -0.99948   0.00038   0.00000  Uiso   1.00
C392   C     2.54775  -0.95363   0.00277   0.00000  Uiso   1.00
C393   C     2.53157  -0.92433   0.00588   0.00000  Uiso   1.00
C394   C     2.48609  -0.94260   0.00675   0.00000  Uiso   1.00
C395   C     2.03293  -1.33540  -0.01162   0.00000  Uiso   1.00
C396   C     1.95782  -1.39844  -0.00792   0.00000  Uiso   1.00
C397   C     1.93440  -1.37558  -0.01130   0.00000  Uiso   1.00
C398   C     1.88879  -1.39751  -0.01235   0.00000  Uiso   1.00
C399   C     1.86339  -1.44363  -0.01009   0.00000  Uiso   1.00
C400   C     1.88679  -1.46654  -0.00649   0.00000  Uiso   1.00
C401   C     1.93243  -1.44459  -0.00539   0.00000  Uiso   1.00
C402   C     1.78802  -1.50621  -0.00896   0.00000  Uiso   1.00
C403   C     2.56287  -0.87725   0.00721   0.00000  Uiso   1.00
C404   C     2.24038  -0.76072  -0.01207   0.00000  Uiso   1.00
C405   C     2.57487  -0.80241   0.00626   0.00000  Uiso   1.00
N406   N     2.59717  -0.40178  -0.00236   0.00000  Uiso   1.00
N407   N     2.28627  -0.45154   0.01145   0.00000  Uiso   1.00
N408   N     2.66416  -0.11891  -0.00861   0.00000  Uiso   1.00
N409   N     2.20120  -0.34940   0.01574   0.00000  Uiso   1.00
N410   N     2.57881  -0.01703  -0.00788   0.00000  Uiso   1.00
N411   N    -0.14025   1.42445   0.49190   0.00000  Uiso   1.00
N412   N     0.04735   1.51147   0.48805   0.00000  Uiso   1.00
N413   N     0.26713   1.44889   0.49733   0.00000  Uiso   1.00
N414   N     0.00376   1.13894   0.50749   0.00000  Uiso   1.00
N415   N    -0.18388   1.05171   0.50879   0.00000  Uiso   1.00
N416   N     0.21493   1.70860   0.51008   0.00000  Uiso   1.00
N417   N     0.54915   1.66691   0.49600   0.00000  Uiso   1.00
N418   N     0.31490   1.89584   0.50274   0.00000  Uiso   1.00
N419   N     0.64912   1.85420   0.48530   0.00000  Uiso   1.00
N420   N     0.59646   2.11384   0.50138   0.00000  Uiso   1.00
N421   N     0.28541   2.06397   0.49149   0.00000  Uiso   1.00
N422   N     0.66308   2.39644   0.51568   0.00000  Uiso   1.00
N423   N     0.20015   2.16597   0.49068   0.00000  Uiso   1.00
N424   N     0.57796   2.49850   0.51174   0.00000  Uiso   1.00
loop_
_geom_bond_atom_site_label_1
_geom_bond_atom_site_label_2
_geom_bond_distance
_geom_bond_site_symmetry_2
_ccdc_geom_bond_type
H1     C142    1.100   .     S
H2     C144    1.099   .     S
H3     C145    1.100   .     S
H4     C147    1.099   .     S
H5     C148    1.100   .     S
H6     C149    1.101   .     S
H7     C151    1.098   .     S
H8     C153    1.099   .     S
H9     C184    1.099   .     S
H10    C185    1.100   .     S
H11    C187    1.100   .     S
H12    C188    1.103   .     S
H13    C190    1.104   .     S
H14    C191    1.100   .     S
H15    C194    1.104   .     S
H16    C195    1.100   .     S
H17    C197    1.101   .     S
H18    C198    1.104   .     S
H19    C199    1.103   .     S
C20    C21     1.388   .     S
C20    H167    1.099   1_745 S
C20    C405    1.408   .     D
C21    C22     1.406   .     D
C21    H168    1.100   1_745 S
C22    C23     1.409   .     S
C22    N386    1.418   .     S
C23    C24     1.388   .     D
C23    H169    1.098   1_745 S
C24    H170    1.100   1_745 S
C24    C405    1.405   .     S
C25    C26     1.387   .     D
C25    H171    1.098   1_745 S
C25    C404    1.409   .     S
C26    C27     1.406   .     S
C26    H172    1.100   1_745 S
C27    C28     1.409   .     D
C27    N385    1.417   .     S
C28    C29     1.389   .     S
C28    H173    1.099   1_745 S
C29    H174    1.101   1_745 S
C29    C404    1.407   .     D
C30    C31     1.459   .     S
C30    H175    1.101   1_745 S
C30    N385    1.302   .     D
C31    C34     1.393   .     S
C31    C38     1.403   .     D
C32    C33     1.459   .     S
C32    H176    1.100   1_745 S
C32    N386    1.302   .     D
C33    C68     1.402   .     S
C33    C72     1.388   .     D
C34    C35     1.423   .     D
C34    H177    1.098   1_745 S
C35    C36     1.420   .     S
C35    C73     1.445   .     S
C36    C37     1.389   .     D
C36    H178    1.098   1_745 S
C37    C38     1.402   .     S
C37    C126    1.458   .     S
C38    H179    1.099   1_745 S
H39    C200    1.099   .     S
H40    C202    1.099   .     S
H41    C203    1.103   .     S
H42    C206    1.099   .     S
H43    C208    1.099   .     S
H44    C210    1.099   .     S
H45    C211    1.098   .     S
H46    C242    1.099   .     S
H47    C244    1.098   .     S
H48    C245    1.100   .     S
H49    C247    1.099   .     S
H50    C248    1.100   .     S
H51    C250    1.099   .     S
H52    C251    1.100   .     S
H53    C252    1.101   .     S
H54    C253    1.101   .     S
H55    C256    1.099   .     S
H56    C257    1.101   .     S
H57    C259    1.098   .     S
H58    C260    1.100   .     S
H59    C261    1.099   .     S
H60    C262    1.100   .     S
H61    C264    1.099   .     S
H62    C265    1.100   .     S
H63    C266    1.101   .     S
H64    C268    1.100   .     S
H65    C270    1.098   .     S
H66    C301    1.098   .     S
H67    C303    1.099   .     S
C68    C69     1.403   .     D
C68    H180    1.099   1_745 S
C69    C70     1.393   .     S
C69    C402    1.460   1_665 S
C70    C71     1.424   .     D
C70    H181    1.099   1_745 S
C71    C72     1.421   .     S
C71    C74     1.444   .     S
C72    H182    1.099   1_745 S
C73    C75     1.425   .     D
C73    C79     1.425   .     S
C74    C80     1.426   .     D
C74    C84     1.426   .     S
C75    C76     1.384   .     S
C75    H183    1.099   1_745 S
C76    C77     1.410   .     D
C76    H213    1.103   1_745 S
C77    C78     1.408   .     S
C77    N406    1.446   .     S
C78    C79     1.382   .     D
C78    H214    1.103   1_745 S
C79    H215    1.099   1_745 S
C80    C81     1.384   .     S
C80    H216    1.100   1_745 S
C81    C82     1.410   .     D
C81    H217    1.103   1_745 S
C82    C83     1.408   .     S
C82    N406    1.445   .     S
C83    C84     1.382   .     D
C83    H218    1.104   1_745 S
C84    H219    1.100   1_745 S
C85    C86     1.409   .     D
C85    C90     1.409   .     S
C85    N406    1.445   .     S
C86    C87     1.382   .     S
C86    H220    1.104   1_745 S
C87    C88     1.426   .     D
C87    H221    1.100   1_745 S
C88    C89     1.427   .     S
C88    C91     1.444   .     S
C89    C90     1.384   .     D
C89    H222    1.101   1_745 S
C90    H223    1.104   1_745 S
C91    C92     1.423   .     D
C91    C96     1.423   .     S
C92    C93     1.390   .     S
C92    H224    1.099   1_745 S
C93    C94     1.402   .     D
C93    C292    1.460   1_665 S
C94    C95     1.403   .     S
C94    H225    1.099   1_745 S
C95    C96     1.392   .     D
C95    C127    1.458   .     S
C96    H226    1.099   1_745 S
H97    C304    1.099   .     S
H98    C306    1.099   .     S
H99    C308    1.099   .     S
H100   C311    1.100   .     S
H101   C312    1.103   .     S
H102   C314    1.103   .     S
H103   C315    1.099   .     S
H104   C316    1.100   .     S
H105   C317    1.103   .     S
H106   C319    1.104   .     S
H107   C320    1.100   .     S
H108   C322    1.104   .     S
H109   C323    1.100   .     S
H110   C325    1.101   .     S
H111   C326    1.104   .     S
H112   C328    1.099   .     S
H113   C359    1.099   .     S
H114   C361    1.099   .     S
H115   C362    1.100   .     S
H116   C363    1.100   .     S
H117   C366    1.098   .     S
H118   C367    1.100   .     S
H119   C369    1.098   .     S
H120   C370    1.100   .     S
H121   C371    1.098   .     S
H122   C372    1.100   .     S
H123   C374    1.098   .     S
H124   C375    1.099   .     S
H125   C376    1.100   .     S
C126   H227    1.100   1_745 S
C126   N407    1.302   .     D
C127   H228    1.101   1_745 S
C127   N408    1.301   .     D
C128   C130    1.409   .     D
C128   C134    1.405   .     S
C128   N407    1.418   .     S
C129   C135    1.409   .     D
C129   C139    1.405   .     S
C129   N408    1.418   .     S
C130   C131    1.388   .     S
C130   H229    1.098   1_745 S
C131   C132    1.406   .     D
C131   H230    1.099   1_745 S
C132   C133    1.409   .     S
C132   N409    1.418   .     S
C133   C134    1.388   .     D
C133   H231    1.098   1_745 S
C134   H232    1.099   1_745 S
C135   C136    1.388   .     S
C135   H233    1.098   1_745 S
C136   C137    1.406   .     D
C136   H234    1.100   1_745 S
C137   C138    1.409   .     S
C137   N410    1.419   .     S
C138   C139    1.387   .     D
C138   H235    1.098   1_745 S
C139   H236    1.099   1_745 S
C140   H237    1.100   1_745 S
C140   C388    1.459   1_565 S
C140   N409    1.301   .     D
C141   H238    1.100   1_745 S
C141   C391    1.458   1_565 S
C141   N410    1.302   .     D
C142   C358    1.460   1_445 S
C142   N411    1.304   .     D
C143   C144    1.409   .     D
C143   C148    1.407   .     S
C143   N411    1.420   .     S
C144   C145    1.388   .     S
C145   C146    1.406   .     D
C146   C147    1.410   .     S
C146   N412    1.420   .     S
C147   C148    1.389   .     D
C149   C150    1.461   .     S
C149   N412    1.302   .     D
C150   C151    1.393   .     D
C150   C184    1.403   .     S
C151   C152    1.424   .     S
C152   C153    1.421   .     D
C152   C186    1.444   .     S
C153   C154    1.389   .     S
C154   C184    1.402   .     D
C154   C185    1.459   .     S
H155   C377    1.100   .     S
H156   C299    1.101   1_365 S
H157   C330    1.099   1_365 S
H158   C332    1.099   1_365 S
H159   C334    1.099   1_365 S
H160   C335    1.101   1_365 S
H161   C340    1.104   1_365 S
H162   C341    1.100   1_365 S
H163   C352    1.100   1_365 S
H164   C392    1.099   1_365 S
H165   C394    1.098   1_365 S
H166   C403    1.101   1_365 S
H167   C20     1.099   1_365 S
H168   C21     1.100   1_365 S
H169   C23     1.098   1_365 S
H170   C24     1.100   1_365 S
H171   C25     1.098   1_365 S
H172   C26     1.100   1_365 S
H173   C28     1.099   1_365 S
H174   C29     1.101   1_365 S
H175   C30     1.101   1_365 S
H176   C32     1.100   1_365 S
H177   C34     1.098   1_365 S
H178   C36     1.098   1_365 S
H179   C38     1.099   1_365 S
H180   C68     1.099   1_365 S
H181   C70     1.099   1_365 S
H182   C72     1.099   1_365 S
H183   C75     1.099   1_365 S
C185   N416    1.302   .     D
C186   C187    1.426   .     D
C186   C191    1.426   .     S
C187   C188    1.384   .     S
C188   C189    1.410   .     D
C189   C190    1.408   .     S
C189   N413    1.445   .     S
C190   C191    1.382   .     D
C192   C194    1.409   .     D
C192   C198    1.409   .     S
C192   N413    1.445   .     S
C193   C199    1.408   .     D
C193   C203    1.409   .     S
C193   N413    1.445   .     S
C194   C195    1.382   .     S
C195   C196    1.426   .     D
C196   C197    1.427   .     S
C196   C204    1.444   .     S
C197   C198    1.384   .     D
C199   C200    1.382   .     S
C200   C201    1.425   .     D
C201   C202    1.425   .     S
C201   C205    1.445   .     S
C202   C203    1.384   .     D
C204   C206    1.423   .     D
C204   C210    1.423   .     S
C205   C211    1.420   .     S
C205   C244    1.423   .     D
C206   C207    1.390   .     S
C207   C208    1.402   .     D
C207   C245    1.460   .     S
C208   C209    1.403   .     S
C209   C210    1.392   .     D
C209   C376    1.459   1_545 S
C211   C212    1.389   .     D
C212   C242    1.402   .     S
C212   C377    1.458   1_545 S
H213   C76     1.103   1_365 S
H214   C78     1.103   1_365 S
H215   C79     1.099   1_365 S
H216   C80     1.100   1_365 S
H217   C81     1.103   1_365 S
H218   C83     1.104   1_365 S
H219   C84     1.100   1_365 S
H220   C86     1.104   1_365 S
H221   C87     1.100   1_365 S
H222   C89     1.101   1_365 S
H223   C90     1.104   1_365 S
H224   C92     1.099   1_365 S
H225   C94     1.099   1_365 S
H226   C96     1.099   1_365 S
H227   C126    1.100   1_365 S
H228   C127    1.101   1_365 S
H229   C130    1.098   1_365 S
H230   C131    1.099   1_365 S
H231   C133    1.098   1_365 S
H232   C134    1.099   1_365 S
H233   C135    1.098   1_365 S
H234   C136    1.100   1_365 S
H235   C138    1.098   1_365 S
H236   C139    1.099   1_365 S
H237   C140    1.100   1_365 S
H238   C141    1.100   1_365 S
H239   C337    1.100   1_375 S
H240   C338    1.104   1_375 S
H241   C344    1.104   1_375 S
C242   C243    1.403   .     D
C243   C244    1.393   .     S
C243   C253    1.459   .     S
C245   N414    1.304   .     D
C246   C247    1.409   .     D
C246   C251    1.407   .     S
C246   N414    1.421   .     S
C247   C248    1.388   .     S
C248   C249    1.406   .     D
C249   C250    1.409   .     S
C249   N415    1.420   .     S
C250   C251    1.389   .     D
C252   C305    1.460   1_445 S
C252   N415    1.302   .     D
C253   N417    1.301   .     D
C254   C261    1.409   .     D
C254   C265    1.406   .     S
C254   N416    1.418   .     S
C255   C256    1.409   .     D
C255   C260    1.406   .     S
C255   N417    1.417   .     S
C256   C257    1.389   .     S
C257   C258    1.407   .     D
C258   C259    1.409   .     S
C258   N419    1.418   .     S
C259   C260    1.387   .     D
C261   C262    1.387   .     S
C262   C263    1.405   .     D
C263   C264    1.408   .     S
C263   N418    1.417   .     S
C264   C265    1.388   .     D
C266   C267    1.459   .     S
C266   N418    1.302   .     D
C267   C270    1.393   .     D
C267   C303    1.403   .     S
C268   C269    1.459   .     S
C268   N419    1.302   .     D
C269   C304    1.402   .     S
C269   C308    1.389   .     D
C270   C300    1.422   .     S
H271   C345    1.100   1_375 S
H272   C347    1.100   1_375 S
H273   C348    1.104   1_375 S
H274   C349    1.102   1_375 S
H275   C350    1.099   1_375 S
H276   C353    1.103   1_375 S
H277   C356    1.099   1_375 S
H278   C387    1.099   1_375 S
H279   C389    1.099   1_375 S
H280   C390    1.099   1_375 S
H281   C395    1.100   1_375 S
H282   C292    1.100   1_475 S
H283   C294    1.099   1_475 S
H284   C295    1.100   1_475 S
H285   C297    1.099   1_475 S
H286   C298    1.100   1_475 S
H287   C397    1.099   1_475 S
H288   C398    1.100   1_475 S
H289   C400    1.099   1_475 S
H290   C401    1.100   1_475 S
H291   C402    1.101   1_475 S
C292   H282    1.100   1_635 S
C292   C93     1.460   1_445 S
C292   N378    1.303   .     D
C293   C294    1.409   .     D
C293   C298    1.407   .     S
C293   N378    1.420   .     S
C294   H283    1.099   1_635 S
C294   C295    1.388   .     S
C295   H284    1.100   1_635 S
C295   C296    1.406   .     D
C296   C297    1.410   .     S
C296   N379    1.420   .     S
C297   H285    1.099   1_635 S
C297   C298    1.389   .     D
C298   H286    1.100   1_635 S
C299   H156    1.101   1_745 S
C299   C329    1.460   .     S
C299   N379    1.303   .     D
C300   C301    1.420   .     D
C300   C309    1.445   .     S
C301   C302    1.389   .     S
C302   C303    1.402   .     D
C302   C362    1.458   .     S
C304   C305    1.403   .     D
C305   C252    1.460   1_665 S
C305   C306    1.393   .     S
C306   C307    1.424   .     D
C307   C308    1.422   .     S
C307   C310    1.444   .     S
C309   C311    1.424   .     D
C309   C315    1.426   .     S
C310   C316    1.426   .     D
C310   C320    1.427   .     S
C311   C312    1.383   .     S
C312   C313    1.409   .     D
C313   C314    1.408   .     S
C313   N420    1.445   .     S
C314   C315    1.382   .     D
C316   C317    1.384   .     S
C317   C318    1.410   .     D
C318   C319    1.408   .     S
C318   N420    1.445   .     S
C319   C320    1.382   .     D
C321   C322    1.409   .     S
C321   C326    1.409   .     D
C321   N420    1.445   .     S
C322   C323    1.382   .     D
C323   C324    1.426   .     S
C324   C325    1.426   .     D
C324   C327    1.445   .     S
C325   C326    1.383   .     S
C327   C328    1.423   .     S
C327   C361    1.422   .     D
C328   C358    1.390   .     D
C329   C330    1.393   .     D
C329   C334    1.403   .     S
C330   H157    1.099   1_745 S
C330   C331    1.424   .     S
C331   C332    1.422   .     D
C331   C336    1.444   .     S
C332   H158    1.099   1_745 S
C332   C333    1.389   .     S
C333   C334    1.402   .     D
C333   C335    1.459   .     S
C334   H159    1.099   1_745 S
C335   H160    1.101   1_745 S
C335   N383    1.302   .     D
C336   C337    1.426   .     D
C336   C341    1.427   .     S
C337   H239    1.100   1_735 S
C337   C338    1.384   .     S
C338   H240    1.104   1_735 S
C338   C339    1.410   .     D
C339   C340    1.408   .     S
C339   N380    1.444   .     S
C340   H161    1.104   1_745 S
C340   C341    1.382   .     D
C341   H162    1.100   1_745 S
C342   C344    1.409   .     D
C342   C348    1.409   .     S
C342   N380    1.445   .     S
C343   C349    1.408   .     S
C343   C353    1.410   .     D
C343   N380    1.445   .     S
C344   H241    1.104   1_735 S
C344   C345    1.382   .     S
C345   H271    1.100   1_735 S
C345   C346    1.426   .     D
C346   C347    1.426   .     S
C346   C354    1.445   .     S
C347   H272    1.100   1_735 S
C347   C348    1.384   .     D
C348   H273    1.104   1_735 S
C349   H274    1.102   1_735 S
C349   C350    1.382   .     D
C350   H275    1.099   1_735 S
C350   C351    1.425   .     S
C351   C352    1.425   .     D
C351   C355    1.445   .     S
C352   H163    1.100   1_745 S
C352   C353    1.383   .     S
C353   H276    1.103   1_735 S
C354   C356    1.423   .     S
C354   C389    1.422   .     D
C355   C390    1.421   .     S
C355   C394    1.422   .     D
C356   H277    1.099   1_735 S
C356   C357    1.390   .     D
C357   C387    1.402   .     S
C357   C395    1.461   .     S
C358   C142    1.460   1_665 S
C358   C359    1.402   .     S
C359   C360    1.403   .     D
C360   C361    1.392   .     S
C360   C363    1.458   .     S
C362   N421    1.302   .     D
C363   N422    1.301   .     D
C364   C366    1.409   .     D
C364   C370    1.406   .     S
C364   N421    1.419   .     S
C365   C371    1.409   .     D
C365   C375    1.405   .     S
C365   N422    1.418   .     S
C366   C367    1.388   .     S
C367   C368    1.405   .     D
C368   C369    1.409   .     S
C368   N423    1.418   .     S
C369   C370    1.389   .     D
C371   C372    1.388   .     S
C372   C373    1.406   .     D
C373   C374    1.409   .     S
C373   N424    1.418   .     S
C374   C375    1.388   .     D
C376   C209    1.459   1_565 S
C376   N423    1.301   .     D
C377   C212    1.458   1_565 S
C377   N424    1.301   .     D
N381   C395    1.304   .     D
N381   C396    1.421   .     S
N382   C399    1.420   .     S
N382   C402    1.303   .     D
N383   C404    1.418   .     S
N384   C403    1.301   .     D
N384   C405    1.417   .     S
C387   H278    1.099   1_735 S
C387   C388    1.403   .     D
C388   C140    1.459   1_545 S
C388   C389    1.392   .     S
C389   H279    1.099   1_735 S
C390   H280    1.099   1_735 S
C390   C391    1.389   .     D
C391   C141    1.458   1_545 S
C391   C392    1.402   .     S
C392   H164    1.099   1_745 S
C392   C393    1.403   .     D
C393   C394    1.393   .     S
C393   C403    1.459   .     S
C394   H165    1.098   1_745 S
C395   H281    1.100   1_735 S
C396   C397    1.409   .     D
C396   C401    1.407   .     S
C397   H287    1.099   1_635 S
C397   C398    1.388   .     S
C398   H288    1.100   1_635 S
C398   C399    1.406   .     D
C399   C400    1.410   .     S
C400   H289    1.099   1_635 S
C400   C401    1.389   .     D
C401   H290    1.100   1_635 S
C402   H291    1.101   1_635 S
C402   C69     1.460   1_445 S
C403   H166    1.101   1_745 S
