data_420
_audit_creation_date              2023-09-08
_audit_creation_method            'Materials Studio'
_symmetry_space_group_name_H-M    'P1'
_symmetry_Int_Tables_number       1
_symmetry_cell_setting            triclinic
loop_
_symmetry_equiv_pos_as_xyz
  x,y,z
_cell_length_a                    42.5500
_cell_length_b                    42.5500
_cell_length_c                    8.1600
_cell_angle_alpha                 90.0000
_cell_angle_beta                  90.0000
_cell_angle_gamma                 120.0000
loop_
_atom_site_label
_atom_site_type_symbol
_atom_site_fract_x
_atom_site_fract_y
_atom_site_fract_z
_atom_site_U_iso_or_equiv
_atom_site_adp_type
_atom_site_occupancy
H1     H     0.51855   3.08197   0.52931   0.00000  Uiso   1.00
H2     H     0.20156   2.80772   0.48469   0.00000  Uiso   1.00
H3     H     0.22599   2.77319   0.53975   0.00000  Uiso   1.00
H4     H     0.25653   2.73824   0.53550   0.00000  Uiso   1.00
C5     C     3.34765  -0.00125  -0.01146   0.00000  Uiso   1.00
C6     C     3.32802  -0.03861  -0.01083   0.00000  Uiso   1.00
C7     C     3.34447  -0.05976   0.03041   0.00000  Uiso   1.00
C8     C     3.38206  -0.03990   0.07304   0.00000  Uiso   1.00
H9     H     0.35834   2.83654   0.41939   0.00000  Uiso   1.00
H10    H     0.32702   2.87105   0.42745   0.00000  Uiso   1.00
H11    H     0.54601   3.05195   0.59715   0.00000  Uiso   1.00
H12    H     0.57711   3.01741   0.59364   0.00000  Uiso   1.00
H13    H     0.67352   3.11151   0.39632   0.00000  Uiso   1.00
H14    H     0.64177   3.14570   0.40232   0.00000  Uiso   1.00
H15    H     0.28142   2.71124   0.40725   0.00000  Uiso   1.00
H16    H     0.31298   2.67699   0.40284   0.00000  Uiso   1.00
H17    H     0.41335   2.77360   0.53588   0.00000  Uiso   1.00
H18    H     0.38254   2.80836   0.54246   0.00000  Uiso   1.00
H19    H     0.59792   2.98784   0.43656   0.00000  Uiso   1.00
H20    H     0.62895   2.95287   0.43497   0.00000  Uiso   1.00
H21    H     0.73111   3.05049   0.53606   0.00000  Uiso   1.00
H22    H     0.70094   3.08582   0.53991   0.00000  Uiso   1.00
H23    H     0.43829   2.74183   0.44211   0.00000  Uiso   1.00
H24    H     0.75480   3.01605   0.49014   0.00000  Uiso   1.00
H25    H     0.37979   2.63870   0.48425   0.00000  Uiso   1.00
H26    H     0.47194   2.62331   0.51699   0.00000  Uiso   1.00
H27    H     0.48730   2.73063   0.45517   0.00000  Uiso   1.00
H28    H     0.69271   2.91249   0.49094   0.00000  Uiso   1.00
H29    H     0.78347   2.89389   0.50069   0.00000  Uiso   1.00
H30    H     0.80174   3.00250   0.49081   0.00000  Uiso   1.00
H31    H     0.36799   2.57942   0.53314   0.00000  Uiso   1.00
H32    H     0.52491   2.65035   0.36015   0.00000  Uiso   1.00
H33    H     0.59087   2.67833   0.35864   0.00000  Uiso   1.00
H34    H     0.60018   2.77046   0.62873   0.00000  Uiso   1.00
H35    H     0.53441   2.74323   0.62599   0.00000  Uiso   1.00
H36    H     0.66841   2.85942   0.34334   0.00000  Uiso   1.00
H37    H     0.62850   2.79350   0.34077   0.00000  Uiso   1.00
C38    C     3.40115  -0.00259   0.07188   0.00000  Uiso   1.00
C39    C     3.63237  -0.03394  -0.03571   0.00000  Uiso   1.00
C40    C     3.61363  -0.07126  -0.03664   0.00000  Uiso   1.00
C41    C     3.63095  -0.09172   0.00168   0.00000  Uiso   1.00
C42    C     3.66880  -0.07111   0.03872   0.00000  Uiso   1.00
C43    C     3.68701  -0.03375   0.03987   0.00000  Uiso   1.00
C44    C     3.32456  -0.09890   0.02767   0.00000  Uiso   1.00
C45    C     3.61111  -0.13088   0.00387   0.00000  Uiso   1.00
C46    C     3.28652  -0.11931   0.06121   0.00000  Uiso   1.00
C47    C     3.26818  -0.15665   0.06321   0.00000  Uiso   1.00
C48    C     3.28568  -0.17665   0.03189   0.00000  Uiso   1.00
C49    C     3.32305  -0.15685  -0.00420   0.00000  Uiso   1.00
C50    C     3.34193  -0.11952  -0.00662   0.00000  Uiso   1.00
C51    C     3.57325  -0.15083   0.04151   0.00000  Uiso   1.00
C52    C     3.55423  -0.18815   0.03994   0.00000  Uiso   1.00
C53    C     3.57093  -0.20859   0.00206   0.00000  Uiso   1.00
C54    C     3.60830  -0.18930  -0.03437   0.00000  Uiso   1.00
C55    C     3.62787  -0.15194  -0.03327   0.00000  Uiso   1.00
C56    C     3.27870  -0.23687   0.04751   0.00000  Uiso   1.00
C57    C     3.25463  -0.27604   0.04625   0.00000  Uiso   1.00
C58    C     3.56072  -0.27042  -0.00815   0.00000  Uiso   1.00
C59    C     3.53453  -0.30913  -0.00319   0.00000  Uiso   1.00
C60    C     3.21672  -0.29329   0.03839   0.00000  Uiso   1.00
C61    C     3.19396  -0.33109   0.03829   0.00000  Uiso   1.00
C62    C     3.21068  -0.35206   0.04512   0.00000  Uiso   1.00
C63    C     3.24900  -0.33669   0.05055   0.00000  Uiso   1.00
C64    C     3.26982  -0.29826   0.05336   0.00000  Uiso   1.00
C65    C     3.49709  -0.32359  -0.00253   0.00000  Uiso   1.00
C66    C     3.47229  -0.36167   0.00876   0.00000  Uiso   1.00
H67    H     0.70371   2.78117   0.65515   0.00000  Uiso   1.00
H68    H     0.74425   2.84678   0.65584   0.00000  Uiso   1.00
H69    H     0.61558   2.67849   0.65138   0.00000  Uiso   1.00
H70    H     0.64380   2.64074   0.65537   0.00000  Uiso   1.00
H71    H     0.73160   2.71987   0.34956   0.00000  Uiso   1.00
H72    H     0.70240   2.75684   0.34320   0.00000  Uiso   1.00
H73    H     0.65572   2.60368   0.50784   0.00000  Uiso   1.00
H74    H     0.74994   2.59190   0.49239   0.00000  Uiso   1.00
H75    H     0.76260   2.69851   0.49681   0.00000  Uiso   1.00
H76    H     0.64641   2.54429   0.51185   0.00000  Uiso   1.00
H77    H     0.33736   2.52197   0.63405   0.00000  Uiso   1.00
H78    H     0.30331   2.45633   0.64523   0.00000  Uiso   1.00
H79    H     0.39799   2.45317   0.46082   0.00000  Uiso   1.00
H80    H     0.43149   2.51893   0.45330   0.00000  Uiso   1.00
H81    H     0.61616   2.48656   0.56389   0.00000  Uiso   1.00
H82    H     0.58348   2.42103   0.55980   0.00000  Uiso   1.00
H83    H     0.68280   2.42210   0.41692   0.00000  Uiso   1.00
H84    H     0.71505   2.48789   0.42390   0.00000  Uiso   1.00
H85    H     0.27334   2.40292   0.51738   0.00000  Uiso   1.00
H86    H     0.24103   2.33720   0.50137   0.00000  Uiso   1.00
H87    H     0.34171   2.33679   0.57294   0.00000  Uiso   1.00
H88    H     0.37447   2.40210   0.59158   0.00000  Uiso   1.00
H89    H     0.55759   2.37100   0.41347   0.00000  Uiso   1.00
H90    H     0.52363   2.30509   0.41299   0.00000  Uiso   1.00
H91    H     0.62115   2.30245   0.53958   0.00000  Uiso   1.00
H92    H     0.65560   2.36804   0.54333   0.00000  Uiso   1.00
H93    H     0.31044   2.27994   0.52275   0.00000  Uiso   1.00
H94    H     0.58846   2.24471   0.48173   0.00000  Uiso   1.00
H95    H     0.20680   2.23244   0.50810   0.00000  Uiso   1.00
C96    C     3.48770  -0.38471   0.01660   0.00000  Uiso   1.00
C97    C     3.52485  -0.37147   0.01024   0.00000  Uiso   1.00
C98    C     3.54737  -0.33370   0.00114   0.00000  Uiso   1.00
C99    C     3.43384  -0.37641   0.01003   0.00000  Uiso   1.00
C100   C     3.26642  -0.35857   0.04676   0.00000  Uiso   1.00
C101   C     3.15485  -0.34552   0.03024   0.00000  Uiso   1.00
C102   C     3.24836  -0.39591   0.09026   0.00000  Uiso   1.00
C103   C     3.26487  -0.41678   0.07751   0.00000  Uiso   1.00
C104   C     3.30063  -0.40259   0.01807   0.00000  Uiso   1.00
C105   C     3.31939  -0.36511  -0.01641   0.00000  Uiso   1.00
C106   C     3.30307  -0.34414  -0.00376   0.00000  Uiso   1.00
C107   C     3.41567  -0.36636  -0.10822   0.00000  Uiso   1.00
C108   C     3.37821  -0.38358  -0.11639   0.00000  Uiso   1.00
C109   C     3.35601  -0.40895   0.00290   0.00000  Uiso   1.00
C110   C     3.37361  -0.41754   0.12636   0.00000  Uiso   1.00
C111   C     3.41079  -0.40333   0.12572   0.00000  Uiso   1.00
C112   C     3.29449  -0.46424  -0.02638   0.00000  Uiso   1.00
C113   C     3.26034  -0.47905  -0.10392   0.00000  Uiso   1.00
C114   C     3.23761  -0.51606  -0.12202   0.00000  Uiso   1.00
C115   C     3.24715  -0.54176  -0.06484   0.00000  Uiso   1.00
C116   C     3.28272  -0.52643   0.00172   0.00000  Uiso   1.00
C117   C     3.30526  -0.48940   0.01994   0.00000  Uiso   1.00
C118   C     3.22198  -0.58051  -0.06599   0.00000  Uiso   1.00
C119   C     3.18379  -0.59487  -0.06357   0.00000  Uiso   1.00
C120   C     3.15888  -0.63180  -0.05398   0.00000  Uiso   1.00
C121   C     3.17311  -0.65524  -0.04812   0.00000  Uiso   1.00
C122   C     3.21034  -0.64342  -0.05130   0.00000  Uiso   1.00
C123   C     3.23403  -0.60618  -0.06125   0.00000  Uiso   1.00
C124   C     3.12016  -0.64397  -0.04955   0.00000  Uiso   1.00
H125   H     0.19453   2.12600   0.49346   0.00000  Uiso   1.00
H126   H     0.30122   2.22095   0.51260   0.00000  Uiso   1.00
H127   H     0.48454   2.20073   0.48478   0.00000  Uiso   1.00
H128   H     0.46934   2.09287   0.51507   0.00000  Uiso   1.00
H129   H     0.57669   2.18525   0.49917   0.00000  Uiso   1.00
H130   H     0.14793   2.18371   0.49701   0.00000  Uiso   1.00
H131   H     0.22605   2.10546   0.34523   0.00000  Uiso   1.00
H132   H     0.25471   2.06795   0.34252   0.00000  Uiso   1.00
H133   H     0.34082   2.14560   0.65590   0.00000  Uiso   1.00
H134   H     0.31273   2.18351   0.65894   0.00000  Uiso   1.00
H135   H     0.43157   2.17134   0.35436   0.00000  Uiso   1.00
H136   H     0.36570   2.14388   0.35183   0.00000  Uiso   1.00
H137   H     0.35562   2.05527   0.65229   0.00000  Uiso   1.00
H138   H     0.42136   2.08260   0.65670   0.00000  Uiso   1.00
H139   H     0.25126   2.04273   0.65156   0.00000  Uiso   1.00
H140   H     0.21140   1.97707   0.65398   0.00000  Uiso   1.00
H141   H     0.28947   1.96493   0.35558   0.00000  Uiso   1.00
H142   H     0.32916   2.03084   0.35526   0.00000  Uiso   1.00
H143   H     0.17334   1.93020   0.50127   0.00000  Uiso   1.00
H144   H     0.15480   1.82151   0.49099   0.00000  Uiso   1.00
H145   H     0.26395   1.91133   0.49425   0.00000  Uiso   1.00
H146   H     0.11249   1.88265   0.50036   0.00000  Uiso   1.00
H147   H     0.05284   1.85759   0.46415   0.00000  Uiso   1.00
H148   H    -0.01239   1.82600   0.46188   0.00000  Uiso   1.00
H149   H    -0.01384   1.72358   0.53283   0.00000  Uiso   1.00
H150   H     0.05158   1.75606   0.52937   0.00000  Uiso   1.00
H151   H     0.08957   2.15886   0.48488   0.00000  Uiso   1.00
H152   H     0.02485   2.12748   0.48334   0.00000  Uiso   1.00
H153   H     0.02352   2.02423   0.50269   0.00000  Uiso   1.00
C154   C     3.09363  -0.39826   0.02436   0.00000  Uiso   1.00
C155   C     3.05787  -0.69578  -0.02911   0.00000  Uiso   1.00
C156   C     3.03823  -0.67722  -0.02632   0.00000  Uiso   1.00
C157   C     3.00087  -0.69534  -0.01698   0.00000  Uiso   1.00
C158   C     2.97976  -0.73397  -0.01003   0.00000  Uiso   1.00
C159   C     3.00012  -0.75228  -0.01239   0.00000  Uiso   1.00
C160   C     3.03741  -0.73383  -0.02173   0.00000  Uiso   1.00
C161   C     3.07412  -0.38006  -0.00401   0.00000  Uiso   1.00
C162   C     3.03679  -0.39821  -0.01094   0.00000  Uiso   1.00
C163   C     3.01551  -0.43655   0.01123   0.00000  Uiso   1.00
C164   C     3.03562  -0.45467   0.03901   0.00000  Uiso   1.00
C165   C     3.07299  -0.43612   0.04494   0.00000  Uiso   1.00
C166   C     2.94013  -0.75353  -0.00279   0.00000  Uiso   1.00
C167   C     2.97605  -0.45569   0.00751   0.00000  Uiso   1.00
C168   C     2.95591  -0.43739   0.02805   0.00000  Uiso   1.00
C169   C     2.91854  -0.45571   0.02598   0.00000  Uiso   1.00
C170   C     2.89786  -0.49353   0.00420   0.00000  Uiso   1.00
C171   C     2.91740  -0.51194  -0.01672   0.00000  Uiso   1.00
C172   C     2.95480  -0.49400  -0.01567   0.00000  Uiso   1.00
C173   C     2.91948  -0.73554  -0.00326   0.00000  Uiso   1.00
C174   C     2.88209  -0.75435  -0.00011   0.00000  Uiso   1.00
C175   C     2.86183  -0.79247   0.00444   0.00000  Uiso   1.00
C176   C     2.88187  -0.81063   0.00596   0.00000  Uiso   1.00
C177   C     2.91925  -0.79216   0.00296   0.00000  Uiso   1.00
C178   C     2.83544  -0.54556  -0.00277   0.00000  Uiso   1.00
C179   C     2.80036  -0.84531   0.00974   0.00000  Uiso   1.00
C180   C     0.53887   3.11085   0.51418   0.00000  Uiso   1.00
C181   C     0.22291   2.83647   0.48701   0.00000  Uiso   1.00
C182   C     0.27402   2.82525   0.48385   0.00000  Uiso   1.00
H183   H     0.08871   2.05683   0.50256   0.00000  Uiso   1.00
H184   H    -0.02929   2.10105   0.50129   0.00000  Uiso   1.00
H185   H    -0.09441   2.06873   0.50147   0.00000  Uiso   1.00
H186   H    -0.09591   1.96638   0.48881   0.00000  Uiso   1.00
H187   H    -0.03100   1.99761   0.48694   0.00000  Uiso   1.00
H188   H    -0.06618   1.79950   0.53420   0.00000  Uiso   1.00
H189   H    -0.13162   1.76676   0.53079   0.00000  Uiso   1.00
H190   H    -0.13222   1.66567   0.45984   0.00000  Uiso   1.00
H191   H    -0.06712   1.69753   0.45753   0.00000  Uiso   1.00
H192   H    -0.15566   1.94162   0.50112   0.00000  Uiso   1.00
H193   H    -0.19118   1.64031   0.48644   0.00000  Uiso   1.00
H194   H     0.51745   0.57393   0.01308   0.00000  Uiso   1.00
H195   H     0.20048   0.30100  -0.04226   0.00000  Uiso   1.00
H196   H     0.22401   0.26539  -0.06453   0.00000  Uiso   1.00
H197   H     0.25424   0.23017  -0.05189   0.00000  Uiso   1.00
H198   H     0.35770   0.32973   0.02172   0.00000  Uiso   1.00
H199   H     0.32660   0.36450   0.00595   0.00000  Uiso   1.00
H200   H     0.54359   0.54286  -0.06695   0.00000  Uiso   1.00
H201   H     0.57463   0.50822  -0.06783   0.00000  Uiso   1.00
H202   H     0.67360   0.60407   0.09899   0.00000  Uiso   1.00
H203   H     0.64185   0.63829   0.09731   0.00000  Uiso   1.00
H204   H     0.28238   0.20634   0.09376   0.00000  Uiso   1.00
H205   H     0.31412   0.17216   0.09712   0.00000  Uiso   1.00
H206   H     0.40926   0.26384  -0.11373   0.00000  Uiso   1.00
H207   H     0.37820   0.29839  -0.11975   0.00000  Uiso   1.00
H208   H     0.59778   0.48012   0.08030   0.00000  Uiso   1.00
H209   H     0.62910   0.44549   0.07716   0.00000  Uiso   1.00
H210   H     0.72970   0.54255  -0.04991   0.00000  Uiso   1.00
H211   H     0.69910   0.57757  -0.04966   0.00000  Uiso   1.00
C212   C     0.59113   3.10177   0.49877   0.00000  Uiso   1.00
C213   C     0.25521   2.78756   0.51293   0.00000  Uiso   1.00
C214   C     0.27252   2.76753   0.50994   0.00000  Uiso   1.00
C215   C     0.31049   2.78398   0.47743   0.00000  Uiso   1.00
C216   C     0.32919   2.82219   0.44814   0.00000  Uiso   1.00
C217   C     0.31141   2.84172   0.45182   0.00000  Uiso   1.00
C218   C     0.57408   3.06540   0.55189   0.00000  Uiso   1.00
C219   C     0.59163   3.04564   0.54974   0.00000  Uiso   1.00
C220   C     0.62823   3.06105   0.49374   0.00000  Uiso   1.00
C221   C     0.64544   3.09813   0.44247   0.00000  Uiso   1.00
C222   C     0.62732   3.11736   0.44501   0.00000  Uiso   1.00
C223   C     0.32897   2.76326   0.47455   0.00000  Uiso   1.00
C224   C     0.64648   3.04023   0.48887   0.00000  Uiso   1.00
C225   C     0.31056   2.72541   0.43692   0.00000  Uiso   1.00
C226   C     0.32853   2.70605   0.43346   0.00000  Uiso   1.00
C227   C     0.36586   2.72235   0.46714   0.00000  Uiso   1.00
C228   C     0.38429   2.75961   0.50592   0.00000  Uiso   1.00
C229   C     0.36682   2.77946   0.50943   0.00000  Uiso   1.00
C230   C     0.62731   3.00195   0.45987   0.00000  Uiso   1.00
C231   C     0.64491   2.98223   0.45830   0.00000  Uiso   1.00
C232   C     0.68250   2.99853   0.48499   0.00000  Uiso   1.00
C233   C     0.70174   3.03626   0.51327   0.00000  Uiso   1.00
C234   C     0.68471   3.05654   0.51464   0.00000  Uiso   1.00
C235   C     0.41784   2.71292   0.45523   0.00000  Uiso   1.00
C236   C     0.43150   2.68772   0.46885   0.00000  Uiso   1.00
C237   C     0.73350   2.98728   0.48746   0.00000  Uiso   1.00
C238   C     0.74559   2.96073   0.48995   0.00000  Uiso   1.00
C239   C     0.40934   2.65003   0.48431   0.00000  Uiso   1.00
C240   C     0.42264   2.62599   0.50265   0.00000  Uiso   1.00
H241   H     0.43690   0.23454  -0.03206   0.00000  Uiso   1.00
H242   H     0.75431   0.50839   0.00806   0.00000  Uiso   1.00
H243   H     0.37826   0.13129   0.00299   0.00000  Uiso   1.00
H244   H     0.47014   0.11536   0.01415   0.00000  Uiso   1.00
H245   H     0.48569   0.22327  -0.02122   0.00000  Uiso   1.00
H246   H     0.69162   0.40486   0.00174   0.00000  Uiso   1.00
H247   H     0.78193   0.38558  -0.00689   0.00000  Uiso   1.00
H248   H     0.80089   0.49437   0.00689   0.00000  Uiso   1.00
H249   H     0.36610   0.07180   0.02099   0.00000  Uiso   1.00
H250   H     0.52301   0.14479   0.14508   0.00000  Uiso   1.00
H251   H     0.58887   0.17209   0.14947   0.00000  Uiso   1.00
H252   H     0.59952   0.26055  -0.15404   0.00000  Uiso   1.00
H253   H     0.53386   0.23361  -0.15849   0.00000  Uiso   1.00
H254   H     0.66574   0.35123   0.14091   0.00000  Uiso   1.00
H255   H     0.62609   0.28531   0.14452   0.00000  Uiso   1.00
H256   H     0.70328   0.27289  -0.15462   0.00000  Uiso   1.00
H257   H     0.74347   0.33847  -0.15682   0.00000  Uiso   1.00
H258   H     0.61409   0.16942  -0.15129   0.00000  Uiso   1.00
H259   H     0.64268   0.13192  -0.15071   0.00000  Uiso   1.00
H260   H     0.72987   0.21199   0.15446   0.00000  Uiso   1.00
H261   H     0.70054   0.24884   0.15509   0.00000  Uiso   1.00
H262   H     0.65536   0.09549   0.00014   0.00000  Uiso   1.00
H263   H     0.75061   0.08547   0.00692   0.00000  Uiso   1.00
H264   H     0.76151   0.19134   0.00823   0.00000  Uiso   1.00
H265   H     0.64697   0.03673  -0.00518   0.00000  Uiso   1.00
H266   H     0.33355   0.01343  -0.04691   0.00000  Uiso   1.00
H267   H     0.29926   0.94771  -0.04714   0.00000  Uiso   1.00
H268   H     0.39620   0.94545   0.10852   0.00000  Uiso   1.00
H269   H     0.43007   1.01143   0.10516   0.00000  Uiso   1.00
C270   C     0.46015   2.64091   0.50050   0.00000  Uiso   1.00
C271   C     0.48454   2.67889   0.48520   0.00000  Uiso   1.00
C272   C     0.46874   2.70130   0.46845   0.00000  Uiso   1.00
C273   C     0.72221   2.92337   0.49081   0.00000  Uiso   1.00
C274   C     0.73491   2.89817   0.49597   0.00000  Uiso   1.00
C275   C     0.77322   2.91303   0.49876   0.00000  Uiso   1.00
C276   C     0.79777   2.95011   0.49633   0.00000  Uiso   1.00
C277   C     0.78296   2.97306   0.49220   0.00000  Uiso   1.00
C278   C     0.39689   2.58748   0.52558   0.00000  Uiso   1.00
C279   C     0.52331   2.69428   0.49153   0.00000  Uiso   1.00
C280   C     0.71038   2.85953   0.49899   0.00000  Uiso   1.00
C281   C     0.54120   2.67673   0.42132   0.00000  Uiso   1.00
C282   C     0.57859   2.69263   0.42065   0.00000  Uiso   1.00
C283   C     0.60109   2.72676   0.49355   0.00000  Uiso   1.00
C284   C     0.58382   2.74415   0.56654   0.00000  Uiso   1.00
C285   C     0.54650   2.72866   0.56566   0.00000  Uiso   1.00
C286   C     0.67649   2.84257   0.41408   0.00000  Uiso   1.00
C287   C     0.65393   2.80529   0.41227   0.00000  Uiso   1.00
C288   C     0.66308   2.78207   0.49670   0.00000  Uiso   1.00
C289   C     0.69607   2.79841   0.58402   0.00000  Uiso   1.00
C290   C     0.71887   2.83556   0.58517   0.00000  Uiso   1.00
C291   C     0.65670   2.72067   0.49676   0.00000  Uiso   1.00
C292   C     0.64103   2.68751   0.58251   0.00000  Uiso   1.00
C293   C     0.65719   2.66626   0.58535   0.00000  Uiso   1.00
C294   C     0.69060   2.67665   0.50312   0.00000  Uiso   1.00
C295   C     0.70616   2.71044   0.41810   0.00000  Uiso   1.00
C296   C     0.68967   2.73137   0.41440   0.00000  Uiso   1.00
C297   C     0.70702   2.65408   0.50255   0.00000  Uiso   1.00
C298   C     0.68537   2.61558   0.50551   0.00000  Uiso   1.00
H299   H     0.61742   0.98006  -0.06751   0.00000  Uiso   1.00
H300   H     0.58469   0.91454  -0.06946   0.00000  Uiso   1.00
H301   H     0.68381   0.91489   0.07058   0.00000  Uiso   1.00
H302   H     0.71604   0.98072   0.07111   0.00000  Uiso   1.00
H303   H     0.27153   0.89487   0.09030   0.00000  Uiso   1.00
H304   H     0.23902   0.82900   0.09213   0.00000  Uiso   1.00
H305   H     0.33795   0.82889  -0.03222   0.00000  Uiso   1.00
H306   H     0.37103   0.89458  -0.03685   0.00000  Uiso   1.00
H307   H     0.55880   0.86370   0.07372   0.00000  Uiso   1.00
H308   H     0.52512   0.79776   0.06977   0.00000  Uiso   1.00
H309   H     0.62269   0.79608  -0.06576   0.00000  Uiso   1.00
H310   H     0.65685   0.86174  -0.06569   0.00000  Uiso   1.00
H311   H     0.30794   0.77286   0.05787   0.00000  Uiso   1.00
H312   H     0.58955   0.73742  -0.01649   0.00000  Uiso   1.00
H313   H     0.20423   0.72390   0.03237   0.00000  Uiso   1.00
H314   H     0.19367   0.61826   0.04147   0.00000  Uiso   1.00
H315   H     0.29950   0.71465   0.06066   0.00000  Uiso   1.00
H316   H     0.48552   0.69441  -0.00750   0.00000  Uiso   1.00
H317   H     0.46872   0.58592   0.02426   0.00000  Uiso   1.00
H318   H     0.57690   0.67739  -0.00176   0.00000  Uiso   1.00
H319   H     0.14598   0.67470   0.02330   0.00000  Uiso   1.00
H320   H     0.22027   0.59090   0.13560   0.00000  Uiso   1.00
H321   H     0.24944   0.55473   0.11842   0.00000  Uiso   1.00
H322   H     0.34791   0.64909  -0.05585   0.00000  Uiso   1.00
H323   H     0.31945   0.68450  -0.04004   0.00000  Uiso   1.00
H324   H     0.43213   0.65423  -0.20030   0.00000  Uiso   1.00
H325   H     0.36554   0.62324  -0.21781   0.00000  Uiso   1.00
H326   H     0.35746   0.56385   0.22596   0.00000  Uiso   1.00
H327   H     0.42341   0.58806   0.21973   0.00000  Uiso   1.00
C328   C     0.69999   2.59282   0.50111   0.00000  Uiso   1.00
C329   C     0.73792   2.60952   0.49547   0.00000  Uiso   1.00
C330   C     0.76137   2.64722   0.49450   0.00000  Uiso   1.00
C331   C     0.74533   2.66882   0.49699   0.00000  Uiso   1.00
C332   C     0.67559   2.55364   0.50286   0.00000  Uiso   1.00
C333   C     0.38732   2.52596   0.54153   0.00000  Uiso   1.00
C334   C     0.66844   2.49298   0.49273   0.00000  Uiso   1.00
C335   C     0.35099   2.50702   0.59523   0.00000  Uiso   1.00
C336   C     0.33157   2.46966   0.60179   0.00000  Uiso   1.00
C337   C     0.34734   2.44823   0.55451   0.00000  Uiso   1.00
C338   C     0.38431   2.46789   0.50201   0.00000  Uiso   1.00
C339   C     0.40320   2.50517   0.49623   0.00000  Uiso   1.00
C340   C     0.63119   2.47273   0.53051   0.00000  Uiso   1.00
C341   C     0.61247   2.43540   0.52783   0.00000  Uiso   1.00
C342   C     0.62981   2.41512   0.48626   0.00000  Uiso   1.00
C343   C     0.66774   2.43593   0.45111   0.00000  Uiso   1.00
C344   C     0.68595   2.47329   0.45413   0.00000  Uiso   1.00
C345   C     0.32722   2.40901   0.55501   0.00000  Uiso   1.00
C346   C     0.60991   2.37597   0.47912   0.00000  Uiso   1.00
C347   C     0.28880   2.38870   0.53213   0.00000  Uiso   1.00
C348   C     0.27056   2.35141   0.52094   0.00000  Uiso   1.00
C349   C     0.28849   2.33129   0.53364   0.00000  Uiso   1.00
C350   C     0.32626   2.35100   0.55989   0.00000  Uiso   1.00
C351   C     0.34500   2.38824   0.57094   0.00000  Uiso   1.00
C352   C     0.57200   2.35625   0.44222   0.00000  Uiso   1.00
C353   C     0.55281   2.31892   0.44134   0.00000  Uiso   1.00
C354   C     0.56940   2.29820   0.47545   0.00000  Uiso   1.00
C355   C     0.60685   2.31727   0.51055   0.00000  Uiso   1.00
C356   C     0.62658   2.35462   0.51172   0.00000  Uiso   1.00
H357   H     0.25131   0.53922  -0.15398   0.00000  Uiso   1.00
H358   H     0.21106   0.47450  -0.18038   0.00000  Uiso   1.00
H359   H     0.29243   0.45572   0.04905   0.00000  Uiso   1.00
H360   H     0.33202   0.51947   0.07441   0.00000  Uiso   1.00
H361   H     0.17366   0.42435  -0.06424   0.00000  Uiso   1.00
H362   H     0.15403   0.31544  -0.03979   0.00000  Uiso   1.00
H363   H     0.26338   0.40398  -0.06481   0.00000  Uiso   1.00
H364   H     0.11258   0.37723  -0.05568   0.00000  Uiso   1.00
H365   H     0.05262   0.35257  -0.03136   0.00000  Uiso   1.00
H366   H    -0.01229   0.32124  -0.01563   0.00000  Uiso   1.00
H367   H     0.05145   0.25039  -0.02335   0.00000  Uiso   1.00
H368   H     0.08857   0.64948  -0.02217   0.00000  Uiso   1.00
H369   H     0.02353   0.61784  -0.03539   0.00000  Uiso   1.00
H370   H     0.02136   0.51583   0.05926   0.00000  Uiso   1.00
H371   H     0.08697   0.54842   0.06719   0.00000  Uiso   1.00
H372   H     0.98649   0.21797  -0.00745   0.00000  Uiso   1.00
H373   H     0.97012   0.59209   0.04877   0.00000  Uiso   1.00
H374   H     0.90462   0.55998   0.04279   0.00000  Uiso   1.00
H375   H     0.90287   0.45852  -0.03502   0.00000  Uiso   1.00
H376   H     0.96822   0.48991  -0.03465   0.00000  Uiso   1.00
H377   H     0.93298   0.29421  -0.00742   0.00000  Uiso   1.00
H378   H     0.86778   0.26118  -0.00154   0.00000  Uiso   1.00
H379   H     0.86788   0.15959   0.00944   0.00000  Uiso   1.00
H380   H     0.93256   0.19141   0.00403   0.00000  Uiso   1.00
H381   H     0.84308   0.43330  -0.00919   0.00000  Uiso   1.00
H382   H     0.80905   0.13429   0.01158   0.00000  Uiso   1.00
C383   C     3.53811   0.60294   0.01393   0.00000  Uiso   1.00
C384   C     3.22199   0.32970  -0.04411   0.00000  Uiso   1.00
C385   C     3.27283   0.31809  -0.02995   0.00000  Uiso   1.00
C386   C     0.28125   2.27072   0.51851   0.00000  Uiso   1.00
C387   C     0.25683   2.23164   0.51156   0.00000  Uiso   1.00
C388   C     0.55950   2.23658   0.48090   0.00000  Uiso   1.00
C389   C     0.53370   2.19783   0.48989   0.00000  Uiso   1.00
C390   C     0.21889   2.21488   0.50640   0.00000  Uiso   1.00
C391   C     0.19558   2.17719   0.49982   0.00000  Uiso   1.00
C392   C     0.21172   2.15568   0.49722   0.00000  Uiso   1.00
C393   C     0.25003   2.17055   0.50310   0.00000  Uiso   1.00
C394   C     0.27158   2.20899   0.51017   0.00000  Uiso   1.00
C395   C     0.49616   2.18280   0.49033   0.00000  Uiso   1.00
C396   C     0.47184   2.14482   0.50189   0.00000  Uiso   1.00
C397   C     0.48774   2.12236   0.50983   0.00000  Uiso   1.00
C398   C     0.52502   2.13598   0.50780   0.00000  Uiso   1.00
C399   C     0.54712   2.17377   0.49916   0.00000  Uiso   1.00
C400   C     0.43294   2.12956   0.50517   0.00000  Uiso   1.00
C401   C     0.26655   2.14810   0.50254   0.00000  Uiso   1.00
C402   C     0.15653   2.16324   0.49654   0.00000  Uiso   1.00
C403   C     0.25117   2.11455   0.41582   0.00000  Uiso   1.00
C404   C     0.26736   2.09334   0.41425   0.00000  Uiso   1.00
C405   C     0.29992   2.10369   0.49947   0.00000  Uiso   1.00
C406   C     0.31560   2.13681   0.58555   0.00000  Uiso   1.00
C407   C     0.29962   2.15821   0.58727   0.00000  Uiso   1.00
C408   C     0.41526   2.14604   0.42342   0.00000  Uiso   1.00
C409   C     0.37788   2.13038   0.42130   0.00000  Uiso   1.00
C410   C     0.35520   2.09728   0.50171   0.00000  Uiso   1.00
C411   C     0.37222   2.08081   0.58485   0.00000  Uiso   1.00
C412   C     0.40955   2.09635   0.58729   0.00000  Uiso   1.00
C413   C     0.29325   2.04207   0.50222   0.00000  Uiso   1.00
C414   C     0.25964   2.02559   0.58454   0.00000  Uiso   1.00
C415   C     3.59010   0.59352   0.01615   0.00000  Uiso   1.00
C416   C     3.25349   0.27999  -0.04467   0.00000  Uiso   1.00
C417   C     3.27058   0.25980  -0.03646   0.00000  Uiso   1.00
C418   C     3.30896   0.27655  -0.01456   0.00000  Uiso   1.00
C419   C     3.32819   0.31518   0.00155   0.00000  Uiso   1.00
C420   C     3.31055   0.33481  -0.00647   0.00000  Uiso   1.00
C421   C     3.57222   0.55664  -0.02937   0.00000  Uiso   1.00
C422   C     3.58973   0.53684  -0.02964   0.00000  Uiso   1.00
C423   C     3.62707   0.55283   0.01557   0.00000  Uiso   1.00
C424   C     3.64496   0.59031   0.06059   0.00000  Uiso   1.00
C425   C     3.62688   0.60956   0.06054   0.00000  Uiso   1.00
C426   C     3.32737   0.25583  -0.01243   0.00000  Uiso   1.00
C427   C     3.64552   0.53220   0.01570   0.00000  Uiso   1.00
C428   C     3.31034   0.21932   0.04645   0.00000  Uiso   1.00
C429   C     3.32844   0.20007   0.04912   0.00000  Uiso   1.00
C430   C     3.36441   0.21510  -0.00644   0.00000  Uiso   1.00
C431   C     3.38135   0.25091  -0.06667   0.00000  Uiso   1.00
C432   C     3.36381   0.27068  -0.06981   0.00000  Uiso   1.00
C433   C     3.62685   0.49417   0.05002   0.00000  Uiso   1.00
C434   C     3.64463   0.47466   0.04901   0.00000  Uiso   1.00
C435   C     3.68189   0.49094   0.01422   0.00000  Uiso   1.00
C436   C     3.70063   0.52841  -0.02027   0.00000  Uiso   1.00
C437   C     3.68338   0.54849  -0.01947   0.00000  Uiso   1.00
C438   C     3.41645   0.20570  -0.01640   0.00000  Uiso   1.00
C439   C     3.43003   0.18036  -0.00987   0.00000  Uiso   1.00
C440   C     3.73290   0.47964   0.00959   0.00000  Uiso   1.00
C441   C     3.74466   0.45285   0.00575   0.00000  Uiso   1.00
C442   C     3.40780   0.14261   0.00102   0.00000  Uiso   1.00
C443   C     3.42106   0.11842   0.01027   0.00000  Uiso   1.00
C444   C     0.23715   1.98839   0.58615   0.00000  Uiso   1.00
C445   C     0.24637   1.96452   0.50389   0.00000  Uiso   1.00
C446   C     0.28078   1.98163   0.42357   0.00000  Uiso   1.00
C447   C     0.30318   2.01893   0.42245   0.00000  Uiso   1.00
C448   C     0.22188   1.92584   0.49893   0.00000  Uiso   1.00
C449   C     0.18360   1.91107   0.49984   0.00000  Uiso   1.00
C450   C     0.15901   1.87402   0.49707   0.00000  Uiso   1.00
C451   C     0.17367   1.85094   0.49294   0.00000  Uiso   1.00
C452   C     0.21101   1.86318   0.49092   0.00000  Uiso   1.00
C453   C     0.23446   1.90054   0.49334   0.00000  Uiso   1.00
C454   C     0.12021   1.86153   0.49828   0.00000  Uiso   1.00
C455   C     0.09508   2.11064   0.49401   0.00000  Uiso   1.00
C456   C     0.05799   1.80953   0.49723   0.00000  Uiso   1.00
C457   C     0.03840   1.82796   0.47929   0.00000  Uiso   1.00
C458   C     0.00100   1.80983   0.47891   0.00000  Uiso   1.00
C459   C    -0.02012   1.77138   0.49723   0.00000  Uiso   1.00
C460   C     0.00014   1.75316   0.51589   0.00000  Uiso   1.00
C461   C     0.03750   1.77164   0.51502   0.00000  Uiso   1.00
C462   C     0.07533   2.12907   0.48877   0.00000  Uiso   1.00
C463   C     0.03796   2.11086   0.48811   0.00000  Uiso   1.00
C464   C     0.01682   2.07225   0.49325   0.00000  Uiso   1.00
C465   C     0.03722   2.05399   0.49817   0.00000  Uiso   1.00
C466   C     0.07461   2.07254   0.49843   0.00000  Uiso   1.00
C467   C    -0.05964   1.75195   0.49633   0.00000  Uiso   1.00
C468   C    -0.02282   2.05288   0.49391   0.00000  Uiso   1.00
C469   C    -0.04308   2.07128   0.49798   0.00000  Uiso   1.00
C470   C    -0.08045   2.05287   0.49844   0.00000  Uiso   1.00
C471   C    -0.10108   2.01478   0.49534   0.00000  Uiso   1.00
C472   C    -0.08148   1.99618   0.49154   0.00000  Uiso   1.00
C473   C     3.45857   0.13333   0.00809   0.00000  Uiso   1.00
C474   C     3.48302   0.17128  -0.00500   0.00000  Uiso   1.00
C475   C     3.46723   0.19381  -0.01412   0.00000  Uiso   1.00
C476   C     3.72108   0.41551   0.00279   0.00000  Uiso   1.00
C477   C     3.73351   0.39010  -0.00301   0.00000  Uiso   1.00
C478   C     3.77180   0.40481  -0.00474   0.00000  Uiso   1.00
C479   C     3.79658   0.44186  -0.00105   0.00000  Uiso   1.00
C480   C     3.78197   0.46496   0.00417   0.00000  Uiso   1.00
C481   C     3.39500   0.07972   0.02124   0.00000  Uiso   1.00
C482   C     3.52192   0.18654  -0.00692   0.00000  Uiso   1.00
C483   C     3.70878   0.35140  -0.00711   0.00000  Uiso   1.00
C484   C     3.53949   0.17008   0.07615   0.00000  Uiso   1.00
C485   C     3.57685   0.18560   0.07891   0.00000  Uiso   1.00
C486   C     3.59968   0.21859  -0.00209   0.00000  Uiso   1.00
C487   C     3.58280   0.23513  -0.08586   0.00000  Uiso   1.00
C488   C     3.54550   0.21975  -0.08865   0.00000  Uiso   1.00
C489   C     3.67438   0.33442   0.07351   0.00000  Uiso   1.00
C490   C     3.65192   0.29710   0.07606   0.00000  Uiso   1.00
C491   C     3.66164   0.27378  -0.00357   0.00000  Uiso   1.00
C492   C     3.69510   0.29013  -0.08706   0.00000  Uiso   1.00
C493   C     3.71774   0.32733  -0.08907   0.00000  Uiso   1.00
C494   C     3.65510   0.21220   0.00157   0.00000  Uiso   1.00
C495   C     3.63950   0.17871  -0.08163   0.00000  Uiso   1.00
C496   C     3.65581   0.15758  -0.08156   0.00000  Uiso   1.00
C497   C     3.68922   0.16836   0.00172   0.00000  Uiso   1.00
C498   C     3.70448   0.20229   0.08522   0.00000  Uiso   1.00
C499   C     3.68793   0.22316   0.08551   0.00000  Uiso   1.00
C500   C     3.70620   0.14632   0.00345   0.00000  Uiso   1.00
C501   C     3.68506   0.10781   0.00104   0.00000  Uiso   1.00
C502   C    -0.04408   2.01425   0.49067   0.00000  Uiso   1.00
C503   C    -0.08007   1.76996   0.51598   0.00000  Uiso   1.00
C504   C    -0.11744   1.75131   0.51512   0.00000  Uiso   1.00
C505   C    -0.13783   1.71342   0.49570   0.00000  Uiso   1.00
C506   C    -0.11800   1.69527   0.47617   0.00000  Uiso   1.00
C507   C    -0.08062   1.71355   0.47582   0.00000  Uiso   1.00
C508   C    -0.16338   1.96273   0.49812   0.00000  Uiso   1.00
C509   C    -0.19956   1.66092   0.49122   0.00000  Uiso   1.00
N510   N     3.25631   0.33986  -0.03819   0.00000  Uiso   1.00
N511   N     3.57276   0.61450   0.01735   0.00000  Uiso   1.00
N512   N     3.38192   0.19424  -0.00171   0.00000  Uiso   1.00
N513   N     3.69854   0.46931   0.01414   0.00000  Uiso   1.00
N514   N     3.63865   0.23479  -0.00014   0.00000  Uiso   1.00
N515   N     3.40604   0.05627   0.02804   0.00000  Uiso   1.00
N516   N     3.68931   0.02451   0.00677   0.00000  Uiso   1.00
N517   N     3.26569  -0.21504   0.03666   0.00000  Uiso   1.00
N518   N     3.54982  -0.24689   0.00143   0.00000  Uiso   1.00
N519   N     3.31697  -0.42532  -0.00121   0.00000  Uiso   1.00
N520   N     3.13212  -0.38033   0.03212   0.00000  Uiso   1.00
N521   N     3.09628  -0.67836  -0.03800   0.00000  Uiso   1.00
N522   N     2.82328  -0.81054   0.00691   0.00000  Uiso   1.00
N523   N     2.85934  -0.51104   0.00399   0.00000  Uiso   1.00
N524   N     0.25731   2.84686   0.48578   0.00000  Uiso   1.00
N525   N     0.57344   3.12249   0.49841   0.00000  Uiso   1.00
N526   N     0.38320   2.70133   0.46392   0.00000  Uiso   1.00
N527   N     0.69909   2.97680   0.48342   0.00000  Uiso   1.00
N528   N     0.64010   2.74311   0.49441   0.00000  Uiso   1.00
N529   N     0.40816   2.56419   0.53007   0.00000  Uiso   1.00
N530   N     0.68825   2.53146   0.49285   0.00000  Uiso   1.00
C531   C     3.70024   0.08556   0.00296   0.00000  Uiso   1.00
C532   C     3.73821   0.10275   0.00631   0.00000  Uiso   1.00
C533   C     3.76121   0.14052   0.00816   0.00000  Uiso   1.00
C534   C     3.74461   0.16162   0.00792   0.00000  Uiso   1.00
C535   C     3.67624   0.04637   0.00098   0.00000  Uiso   1.00
C536   C     3.38479   0.01796   0.02969   0.00000  Uiso   1.00
C537   C     3.66955  -0.01392   0.00360   0.00000  Uiso   1.00
N538   N     0.26859   2.29294   0.52141   0.00000  Uiso   1.00
N539   N     0.54823   2.25988   0.47533   0.00000  Uiso   1.00
N540   N     0.31623   2.08102   0.49988   0.00000  Uiso   1.00
N541   N     0.13357   2.12849   0.49497   0.00000  Uiso   1.00
N542   N     0.09645   1.82702   0.49749   0.00000  Uiso   1.00
N543   N    -0.17636   1.69560   0.49609   0.00000  Uiso   1.00
N544   N    -0.13958   1.99727   0.49576   0.00000  Uiso   1.00
loop_
_geom_bond_atom_site_label_1
_geom_bond_atom_site_label_2
_geom_bond_distance
_geom_bond_site_symmetry_2
_ccdc_geom_bond_type
H1     C180    1.100   .     S
H2     C181    1.100   .     S
H3     C213    1.099   .     S
H4     C214    1.101   .     S
C5     C6      1.377   .     S
C5     H266    1.099   1_855 S
C5     C536    1.409   .     D
C6     C7      1.429   .     D
C6     H267    1.101   1_845 S
C7     C8      1.429   .     S
C7     C44     1.443   .     S
C8     C38     1.375   .     D
C8     H268    1.100   1_845 S
H9     C216    1.100   .     S
H10    C217    1.100   .     S
H11    C218    1.099   .     S
H12    C219    1.100   .     S
H13    C221    1.101   .     S
H14    C222    1.101   .     S
H15    C225    1.101   .     S
H16    C226    1.100   .     S
H17    C228    1.099   .     S
H18    C229    1.100   .     S
H19    C230    1.100   .     S
H20    C231    1.100   .     S
H21    C233    1.098   .     S
H22    C234    1.101   .     S
H23    C235    1.101   .     S
H24    C237    1.100   .     S
H25    C239    1.099   .     S
H26    C270    1.098   .     S
H27    C272    1.099   .     S
H28    C273    1.099   .     S
H29    C275    1.100   .     S
H30    C277    1.099   .     S
H31    C278    1.101   .     S
H32    C281    1.101   .     S
H33    C282    1.103   .     S
H34    C284    1.103   .     S
H35    C285    1.100   .     S
H36    C286    1.101   .     S
H37    C287    1.105   .     S
C38    H269    1.100   1_845 S
C38    C536    1.406   .     S
C39    C40     1.375   .     D
C39    H299    1.098   1_845 S
C39    C537    1.408   .     S
C40    C41     1.428   .     S
C40    H300    1.100   1_845 S
C41    C42     1.429   .     D
C41    C45     1.443   .     S
C42    C43     1.377   .     S
C42    H301    1.100   1_845 S
C43    H302    1.100   1_845 S
C43    C537    1.407   .     D
C44    C46     1.429   .     D
C44    C50     1.429   .     S
C45    C51     1.429   .     S
C45    C55     1.429   .     D
C46    C47     1.376   .     S
C46    H303    1.101   1_845 S
C47    C48     1.406   .     D
C47    H304    1.100   1_845 S
C48    C49     1.409   .     S
C48    N517    1.416   .     S
C49    C50     1.376   .     D
C49    H305    1.099   1_845 S
C50    H306    1.101   1_845 S
C51    C52     1.375   .     D
C51    H307    1.100   1_845 S
C52    C53     1.405   .     S
C52    H308    1.100   1_845 S
C53    C54     1.409   .     D
C53    N518    1.414   .     S
C54    C55     1.377   .     S
C54    H309    1.099   1_845 S
C55    H310    1.101   1_845 S
C56    C57     1.456   .     S
C56    H311    1.101   1_845 S
C56    N517    1.300   .     D
C57    C60     1.400   .     S
C57    C64     1.388   .     D
C58    C59     1.456   .     S
C58    H312    1.101   1_845 S
C58    N518    1.299   .     D
C59    C65     1.392   .     S
C59    C98     1.401   .     D
C60    C61     1.403   .     D
C60    H313    1.099   1_845 S
C61    C62     1.393   .     S
C61    C101    1.459   .     S
C62    C63     1.422   .     D
C62    H314    1.098   1_845 S
C63    C64     1.418   .     S
C63    C100    1.452   .     S
C64    H315    1.098   1_845 S
C65    C66     1.427   .     D
C65    H316    1.099   1_845 S
C66    C96     1.428   .     S
C66    C99     1.430   .     S
H67    C289    1.104   .     S
H68    C290    1.101   .     S
H69    C292    1.105   .     S
H70    C293    1.101   .     S
H71    C295    1.101   .     S
H72    C296    1.104   .     S
H73    C298    1.100   .     S
H74    C329    1.099   .     S
H75    C331    1.099   .     S
H76    C332    1.101   .     S
H77    C335    1.100   .     S
H78    C336    1.101   .     S
H79    C338    1.099   .     S
H80    C339    1.100   .     S
H81    C340    1.098   .     S
H82    C341    1.100   .     S
H83    C343    1.101   .     S
H84    C344    1.100   .     S
H85    C347    1.101   .     S
H86    C348    1.100   .     S
H87    C350    1.098   .     S
H88    C351    1.100   .     S
H89    C352    1.100   .     S
H90    C353    1.100   .     S
H91    C355    1.099   .     S
H92    C356    1.101   .     S
H93    C386    1.100   .     S
H94    C388    1.101   .     S
H95    C390    1.099   .     S
C96    C97     1.389   .     D
C96    H317    1.099   1_845 S
C97    C98     1.402   .     S
C97    C383    1.456   1_545 S
C98    H318    1.100   1_845 S
C99    C107    1.429   .     D
C99    C111    1.429   .     S
C100   C102    1.421   .     D
C100   C106    1.422   .     S
C101   H319    1.100   1_845 S
C101   N520    1.303   .     D
C102   C103    1.384   .     S
C102   H320    1.100   1_845 S
C103   C104    1.413   .     D
C103   H321    1.103   1_845 S
C104   C105    1.409   .     S
C104   N519    1.455   .     S
C105   C106    1.382   .     D
C105   H322    1.099   1_845 S
C106   H323    1.100   1_845 S
C107   C108    1.383   .     S
C107   H324    1.100   1_845 S
C108   C109    1.409   .     D
C108   H325    1.103   1_845 S
C109   C110    1.408   .     S
C109   N519    1.445   .     S
C110   C111    1.383   .     D
C110   H326    1.103   1_845 S
C111   H327    1.099   1_845 S
C112   C113    1.412   .     D
C112   C117    1.411   .     S
C112   N519    1.454   .     S
C113   C114    1.383   .     S
C113   H357    1.103   1_845 S
C114   C115    1.422   .     D
C114   H358    1.100   1_845 S
C115   C116    1.423   .     S
C115   C118    1.449   .     S
C116   C117    1.383   .     D
C116   H359    1.100   1_845 S
C117   H360    1.099   1_845 S
C118   C119    1.422   .     D
C118   C123    1.420   .     S
C119   C120    1.390   .     S
C119   H361    1.099   1_845 S
C120   C121    1.403   .     D
C120   C124    1.460   .     S
C121   C122    1.402   .     S
C121   H362    1.099   1_845 S
C122   C123    1.391   .     D
C122   C384    1.457   1_545 S
C123   H363    1.099   1_845 S
C124   H364    1.101   1_845 S
C124   N521    1.302   .     D
H125   C392    1.099   .     S
H126   C394    1.099   .     S
H127   C395    1.098   .     S
H128   C397    1.099   .     S
H129   C399    1.099   .     S
H130   C402    1.101   .     S
H131   C403    1.100   .     S
H132   C404    1.104   .     S
H133   C406    1.104   .     S
H134   C407    1.101   .     S
H135   C408    1.100   .     S
H136   C409    1.103   .     S
H137   C411    1.102   .     S
H138   C412    1.100   .     S
H139   C414    1.104   .     S
H140   C444    1.100   .     S
H141   C446    1.101   .     S
H142   C447    1.104   .     S
H143   C449    1.099   .     S
H144   C451    1.099   .     S
H145   C453    1.100   .     S
H146   C454    1.100   .     S
H147   C457    1.099   .     S
H148   C458    1.100   .     S
H149   C460    1.099   .     S
H150   C461    1.100   .     S
H151   C462    1.099   .     S
H152   C463    1.099   .     S
H153   C465    1.098   .     S
C154   C161    1.409   .     D
C154   C165    1.407   .     S
C154   N520    1.421   .     S
C155   C156    1.408   .     D
C155   C160    1.405   .     S
C155   N521    1.419   .     S
C156   C157    1.379   .     S
C156   H365    1.099   1_845 S
C157   C158    1.427   .     D
C157   H366    1.098   1_845 S
C158   C159    1.426   .     S
C158   C166    1.462   .     S
C159   C160    1.376   .     D
C159   H372    1.098   1_745 S
C160   H367    1.100   1_845 S
C161   C162    1.377   .     S
C161   H368    1.099   1_845 S
C162   C163    1.427   .     D
C162   H369    1.100   1_845 S
C163   C164    1.427   .     S
C163   C167    1.455   .     S
C164   C165    1.378   .     D
C164   H370    1.100   1_845 S
C165   H371    1.100   1_845 S
C166   C173    1.425   .     D
C166   C177    1.426   .     S
C167   C168    1.427   .     D
C167   C172    1.427   .     S
C168   C169    1.377   .     S
C168   H373    1.100   1_745 S
C169   C170    1.407   .     D
C169   H374    1.100   1_745 S
C170   C171    1.409   .     S
C170   N523    1.421   .     S
C171   C172    1.379   .     D
C171   H375    1.099   1_745 S
C172   H376    1.100   1_745 S
C173   C174    1.378   .     S
C173   H377    1.098   1_745 S
C174   C175    1.406   .     D
C174   H378    1.100   1_745 S
C175   C176    1.408   .     S
C175   N522    1.422   .     S
C176   C177    1.378   .     D
C176   H379    1.098   1_745 S
C177   H380    1.098   1_745 S
C178   H381    1.100   1_745 S
C178   C479    1.461   1_445 S
C178   N523    1.304   .     D
C179   H382    1.101   1_745 S
C179   N522    1.303   .     D
C179   C533    1.461   1_445 S
C180   C398    1.457   1_565 S
C180   N525    1.303   .     D
C181   C452    1.458   1_565 S
C181   N524    1.300   .     D
C182   C213    1.409   .     S
C182   C217    1.406   .     D
C182   N524    1.416   .     S
H183   C466    1.100   .     S
H184   C469    1.098   .     S
H185   C470    1.100   .     S
H186   C472    1.099   .     S
H187   C502    1.098   .     S
H188   C503    1.099   .     S
H189   C504    1.100   .     S
H190   C506    1.099   .     S
H191   C507    1.099   .     S
H192   C508    1.100   .     S
H193   C509    1.100   .     S
H194   C383    1.101   1_255 S
H195   C384    1.101   1_255 S
H196   C416    1.098   1_255 S
H197   C417    1.101   1_255 S
H198   C419    1.100   1_255 S
H199   C420    1.100   1_255 S
H200   C421    1.099   1_255 S
H201   C422    1.100   1_255 S
H202   C424    1.101   1_255 S
H203   C425    1.101   1_255 S
H204   C428    1.101   1_255 S
H205   C429    1.101   1_255 S
H206   C431    1.099   1_255 S
H207   C432    1.100   1_255 S
H208   C433    1.100   1_255 S
H209   C434    1.100   1_255 S
H210   C436    1.098   1_255 S
H211   C437    1.101   1_255 S
C212   C218    1.409   .     D
C212   C222    1.408   .     S
C212   N525    1.417   .     S
C213   C214    1.377   .     D
C214   C215    1.428   .     S
C215   C216    1.428   .     D
C215   C223    1.445   .     S
C216   C217    1.376   .     S
C218   C219    1.376   .     S
C219   C220    1.429   .     D
C220   C221    1.430   .     S
C220   C224    1.441   .     S
C221   C222    1.377   .     D
C223   C225    1.428   .     D
C223   C229    1.428   .     S
C224   C230    1.430   .     D
C224   C234    1.429   .     S
C225   C226    1.376   .     S
C226   C227    1.406   .     D
C227   C228    1.409   .     S
C227   N526    1.416   .     S
C228   C229    1.376   .     D
C230   C231    1.376   .     S
C231   C232    1.406   .     D
C232   C233    1.409   .     S
C232   N527    1.416   .     S
C233   C234    1.377   .     D
C235   C236    1.457   .     S
C235   N526    1.301   .     D
C236   C239    1.402   .     D
C236   C272    1.389   .     S
C237   C238    1.457   .     S
C237   N527    1.300   .     D
C238   C273    1.391   .     S
C238   C277    1.403   .     D
C239   C240    1.403   .     S
C240   C270    1.392   .     D
C240   C278    1.458   .     S
H241   C438    1.101   1_255 S
H242   C440    1.101   1_255 S
H243   C442    1.099   1_255 S
H244   C473    1.098   1_255 S
H245   C475    1.099   1_255 S
H246   C476    1.099   1_255 S
H247   C478    1.099   1_255 S
H248   C480    1.099   1_255 S
H249   C481    1.101   1_255 S
H250   C484    1.101   1_255 S
H251   C485    1.103   1_255 S
H252   C487    1.103   1_255 S
H253   C488    1.100   1_255 S
H254   C489    1.101   1_255 S
H255   C490    1.105   1_255 S
H256   C492    1.104   1_255 S
H257   C493    1.100   1_255 S
H258   C495    1.105   1_255 S
H259   C496    1.101   1_255 S
H260   C498    1.100   1_255 S
H261   C499    1.104   1_255 S
H262   C501    1.100   1_255 S
H263   C532    1.099   1_255 S
H264   C534    1.099   1_255 S
H265   C535    1.100   1_255 S
H266   C5      1.099   1_255 S
H267   C6      1.101   1_265 S
H268   C8      1.100   1_265 S
H269   C38     1.100   1_265 S
C270   C271    1.424   .     S
C271   C272    1.422   .     D
C271   C279    1.440   .     S
C273   C274    1.422   .     D
C274   C275    1.424   .     S
C274   C280    1.441   .     S
C275   C276    1.390   .     D
C276   C277    1.403   .     S
C276   C508    1.461   1_665 S
C278   N529    1.299   .     D
C279   C281    1.426   .     D
C279   C285    1.427   .     S
C280   C286    1.428   .     D
C280   C290    1.426   .     S
C281   C282    1.383   .     S
C282   C283    1.410   .     D
C283   C284    1.409   .     S
C283   N528    1.444   .     S
C284   C285    1.382   .     D
C286   C287    1.384   .     S
C287   C288    1.410   .     D
C288   C289    1.409   .     S
C288   N528    1.443   .     S
C289   C290    1.381   .     D
C291   C292    1.409   .     D
C291   C296    1.410   .     S
C291   N528    1.444   .     S
C292   C293    1.383   .     S
C293   C294    1.428   .     D
C294   C295    1.426   .     S
C294   C297    1.443   .     S
C295   C296    1.382   .     D
C297   C298    1.423   .     S
C297   C331    1.425   .     D
C298   C328    1.389   .     D
H299   C39     1.098   1_265 S
H300   C40     1.100   1_265 S
H301   C42     1.100   1_265 S
H302   C43     1.100   1_265 S
H303   C46     1.101   1_265 S
H304   C47     1.100   1_265 S
H305   C49     1.099   1_265 S
H306   C50     1.101   1_265 S
H307   C51     1.100   1_265 S
H308   C52     1.100   1_265 S
H309   C54     1.099   1_265 S
H310   C55     1.101   1_265 S
H311   C56     1.101   1_265 S
H312   C58     1.101   1_265 S
H313   C60     1.099   1_265 S
H314   C62     1.098   1_265 S
H315   C64     1.098   1_265 S
H316   C65     1.099   1_265 S
H317   C96     1.099   1_265 S
H318   C98     1.100   1_265 S
H319   C101    1.100   1_265 S
H320   C102    1.100   1_265 S
H321   C103    1.103   1_265 S
H322   C105    1.099   1_265 S
H323   C106    1.100   1_265 S
H324   C107    1.100   1_265 S
H325   C108    1.103   1_265 S
H326   C110    1.103   1_265 S
H327   C111    1.099   1_265 S
C328   C329    1.402   .     S
C328   C332    1.458   .     S
C329   C330    1.403   .     D
C330   C331    1.392   .     S
C330   C509    1.461   1_665 S
C332   N530    1.302   .     D
C333   C335    1.409   .     D
C333   C339    1.405   .     S
C333   N529    1.414   .     S
C334   C340    1.409   .     D
C334   C344    1.407   .     S
C334   N530    1.418   .     S
C335   C336    1.378   .     S
C336   C337    1.429   .     D
C337   C338    1.429   .     S
C337   C345    1.445   .     S
C338   C339    1.375   .     D
C340   C341    1.376   .     S
C341   C342    1.429   .     D
C342   C343    1.429   .     S
C342   C346    1.444   .     S
C343   C344    1.377   .     D
C345   C347    1.429   .     D
C345   C351    1.428   .     S
C346   C352    1.429   .     S
C346   C356    1.430   .     D
C347   C348    1.377   .     S
C348   C349    1.407   .     D
C349   C350    1.409   .     S
C349   N538    1.417   .     S
C350   C351    1.375   .     D
C352   C353    1.376   .     D
C353   C354    1.405   .     S
C354   C355    1.409   .     D
C354   N539    1.415   .     S
C355   C356    1.377   .     S
H357   C113    1.103   1_265 S
H358   C114    1.100   1_265 S
H359   C116    1.100   1_265 S
H360   C117    1.099   1_265 S
H361   C119    1.099   1_265 S
H362   C121    1.099   1_265 S
H363   C123    1.099   1_265 S
H364   C124    1.101   1_265 S
H365   C156    1.099   1_265 S
H366   C157    1.098   1_265 S
H367   C160    1.100   1_265 S
H368   C161    1.099   1_265 S
H369   C162    1.100   1_265 S
H370   C164    1.100   1_265 S
H371   C165    1.100   1_265 S
H372   C159    1.098   1_365 S
H373   C168    1.100   1_365 S
H374   C169    1.100   1_365 S
H375   C171    1.099   1_365 S
H376   C172    1.100   1_365 S
H377   C173    1.098   1_365 S
H378   C174    1.100   1_365 S
H379   C176    1.098   1_365 S
H380   C177    1.098   1_365 S
H381   C178    1.100   1_365 S
H382   C179    1.101   1_365 S
C383   C97     1.456   1_565 S
C383   H194    1.101   1_855 S
C383   N511    1.300   .     D
C384   C122    1.457   1_565 S
C384   H195    1.101   1_855 S
C384   N510    1.300   .     D
C385   C416    1.409   .     D
C385   C420    1.406   .     S
C385   N510    1.417   .     S
C386   C387    1.456   .     S
C386   N538    1.302   .     D
C387   C390    1.402   .     S
C387   C394    1.388   .     D
C388   C389    1.456   .     S
C388   N539    1.300   .     D
C389   C395    1.392   .     D
C389   C399    1.402   .     S
C390   C391    1.403   .     D
C391   C392    1.392   .     S
C391   C402    1.459   .     S
C392   C393    1.424   .     D
C393   C394    1.421   .     S
C393   C401    1.442   .     S
C395   C396    1.421   .     S
C396   C397    1.422   .     D
C396   C400    1.445   .     S
C397   C398    1.390   .     S
C398   C180    1.457   1_545 S
C398   C399    1.401   .     D
C400   C408    1.425   .     D
C400   C412    1.425   .     S
C401   C403    1.426   .     D
C401   C407    1.428   .     S
C402   N541    1.302   .     D
C403   C404    1.382   .     S
C404   C405    1.410   .     D
C405   C406    1.409   .     S
C405   N540    1.443   .     S
C406   C407    1.382   .     D
C408   C409    1.384   .     S
C409   C410    1.409   .     D
C410   C411    1.408   .     S
C410   N540    1.443   .     S
C411   C412    1.382   .     D
C413   C414    1.409   .     D
C413   C447    1.410   .     S
C413   N540    1.443   .     S
C414   C444    1.381   .     S
C415   C421    1.409   .     D
C415   C425    1.406   .     S
C415   N511    1.414   .     S
C416   H196    1.098   1_855 S
C416   C417    1.377   .     S
C417   H197    1.101   1_855 S
C417   C418    1.429   .     D
C418   C419    1.430   .     S
C418   C426    1.443   .     S
C419   H198    1.100   1_855 S
C419   C420    1.376   .     D
C420   H199    1.100   1_855 S
C421   H200    1.099   1_855 S
C421   C422    1.376   .     S
C422   H201    1.100   1_855 S
C422   C423    1.429   .     D
C423   C424    1.430   .     S
C423   C427    1.441   .     S
C424   H202    1.101   1_855 S
C424   C425    1.376   .     D
C425   H203    1.101   1_855 S
C426   C428    1.430   .     D
C426   C432    1.429   .     S
C427   C433    1.429   .     D
C427   C437    1.429   .     S
C428   H204    1.101   1_855 S
C428   C429    1.377   .     S
C429   H205    1.101   1_855 S
C429   C430    1.407   .     D
C430   C431    1.409   .     S
C430   N512    1.416   .     S
C431   H206    1.099   1_855 S
C431   C432    1.376   .     D
C432   H207    1.100   1_855 S
C433   H208    1.100   1_855 S
C433   C434    1.375   .     S
C434   H209    1.100   1_855 S
C434   C435    1.406   .     D
C435   C436    1.409   .     S
C435   N513    1.415   .     S
C436   H210    1.098   1_855 S
C436   C437    1.377   .     D
C437   H211    1.101   1_855 S
C438   H241    1.101   1_855 S
C438   C439    1.457   .     S
C438   N512    1.302   .     D
C439   C442    1.401   .     D
C439   C475    1.389   .     S
C440   H242    1.101   1_855 S
C440   C441    1.456   .     S
C440   N513    1.300   .     D
C441   C476    1.392   .     D
C441   C480    1.403   .     S
C442   H243    1.099   1_855 S
C442   C443    1.401   .     S
C443   C473    1.392   .     D
C443   C481    1.457   .     S
C444   C445    1.426   .     D
C445   C446    1.427   .     S
C445   C448    1.443   .     S
C446   C447    1.384   .     D
C448   C449    1.423   .     S
C448   C453    1.423   .     D
C449   C450    1.390   .     D
C450   C451    1.403   .     S
C450   C454    1.460   .     S
C451   C452    1.403   .     D
C452   C181    1.458   1_545 S
C452   C453    1.392   .     S
C454   N542    1.301   .     D
C455   C462    1.408   .     D
C455   C466    1.406   .     S
C455   N541    1.420   .     S
C456   C457    1.409   .     D
C456   C461    1.405   .     S
C456   N542    1.419   .     S
C457   C458    1.378   .     S
C458   C459    1.427   .     D
C459   C460    1.427   .     S
C459   C467    1.456   .     S
C460   C461    1.377   .     D
C462   C463    1.377   .     S
C463   C464    1.426   .     D
C464   C465    1.426   .     S
C464   C468    1.461   .     S
C465   C466    1.378   .     D
C467   C503    1.426   .     D
C467   C507    1.427   .     S
C468   C469    1.426   .     D
C468   C502    1.426   .     S
C469   C470    1.377   .     S
C470   C471    1.405   .     D
C471   C472    1.408   .     S
C471   N544    1.421   .     S
C472   C502    1.378   .     D
C473   H244    1.098   1_855 S
C473   C474    1.422   .     S
C474   C475    1.421   .     D
C474   C482    1.445   .     S
C475   H245    1.099   1_855 S
C476   H246    1.099   1_855 S
C476   C477    1.422   .     S
C477   C478    1.424   .     D
C477   C483    1.445   .     S
C478   H247    1.099   1_855 S
C478   C479    1.391   .     S
C479   C178    1.461   1_665 S
C479   C480    1.402   .     D
C480   H248    1.099   1_855 S
C481   H249    1.101   1_855 S
C481   N515    1.299   .     D
C482   C484    1.426   .     D
C482   C488    1.425   .     S
C483   C489    1.428   .     S
C483   C493    1.425   .     D
C484   H250    1.101   1_855 S
C484   C485    1.383   .     S
C485   H251    1.103   1_855 S
C485   C486    1.410   .     D
C486   C487    1.409   .     S
C486   N514    1.443   .     S
C487   H252    1.103   1_855 S
C487   C488    1.382   .     D
C488   H253    1.100   1_855 S
C489   H254    1.101   1_855 S
C489   C490    1.385   .     D
C490   H255    1.105   1_855 S
C490   C491    1.410   .     S
C491   C492    1.409   .     D
C491   N514    1.445   .     S
C492   H256    1.104   1_855 S
C492   C493    1.382   .     S
C493   H257    1.100   1_855 S
C494   C495    1.409   .     D
C494   C499    1.409   .     S
C494   N514    1.445   .     S
C495   H258    1.105   1_855 S
C495   C496    1.383   .     S
C496   H259    1.101   1_855 S
C496   C497    1.429   .     D
C497   C498    1.426   .     S
C497   C500    1.442   .     S
C498   H260    1.100   1_855 S
C498   C499    1.382   .     D
C499   H261    1.104   1_855 S
C500   C501    1.421   .     S
C500   C534    1.426   .     D
C501   H262    1.100   1_855 S
C501   C531    1.388   .     D
C503   C504    1.377   .     S
C504   C505    1.407   .     D
C505   C506    1.409   .     S
C505   N543    1.421   .     S
C506   C507    1.378   .     D
C508   C276    1.461   1_445 S
C508   N544    1.303   .     D
C509   C330    1.461   1_445 S
C509   N543    1.303   .     D
N515   C536    1.415   .     S
N516   C535    1.302   .     D
N516   C537    1.417   .     S
C531   C532    1.402   .     S
C531   C535    1.456   .     S
C532   H263    1.099   1_855 S
C532   C533    1.403   .     D
C533   C179    1.461   1_665 S
C533   C534    1.393   .     S
C534   H264    1.099   1_855 S
C535   H265    1.100   1_855 S
