data_49
_audit_creation_date              2023-09-08
_audit_creation_method            'Materials Studio'
_symmetry_space_group_name_H-M    'P1'
_symmetry_Int_Tables_number       1
_symmetry_cell_setting            triclinic
loop_
_symmetry_equiv_pos_as_xyz
  x,y,z
_cell_length_a                    24.9320
_cell_length_b                    24.9320
_cell_length_c                    24.9320
_cell_angle_alpha                 90.0000
_cell_angle_beta                  90.0000
_cell_angle_gamma                 90.0000
loop_
_atom_site_label
_atom_site_type_symbol
_atom_site_fract_x
_atom_site_fract_y
_atom_site_fract_z
_atom_site_U_iso_or_equiv
_atom_site_adp_type
_atom_site_occupancy
C1     C     0.25087   0.26894   0.88182   0.00000  Uiso   1.00
C2     C     0.26480   0.33867   0.95095   0.00000  Uiso   1.00
C3     C     0.27052   0.23959   0.83427   0.00000  Uiso   1.00
C4     C     0.30608   0.81624   0.75726   0.00000  Uiso   1.00
C5     C     0.62518   0.46618   0.18663   0.00000  Uiso   1.00
N6     N     0.28047   0.30592   0.90423   0.00000  Uiso   1.00
H7     H     0.65075   0.47632   0.15116   0.00000  Uiso   1.00
H8     H     0.59999   0.43089   0.17511   0.00000  Uiso   1.00
H9     H     0.21146   0.25921   0.89794   0.00000  Uiso   1.00
H10    H     0.97388   0.53478   0.74029   0.00000  Uiso   1.00
H11    H     0.43047   0.54246   0.41223   0.00000  Uiso   1.00
C12    C     0.75087   0.76894   0.38182   0.00000  Uiso   1.00
C13    C     0.76480   0.83867   0.45095   0.00000  Uiso   1.00
C14    C     0.77052   0.73959   0.33427   0.00000  Uiso   1.00
C15    C     0.80608   0.31624   0.25726   0.00000  Uiso   1.00
C16    C     0.12518   0.96618   0.68663   0.00000  Uiso   1.00
N17    N     0.78047   0.80592   0.40423   0.00000  Uiso   1.00
H18    H     0.15075   0.97632   0.65116   0.00000  Uiso   1.00
H19    H     0.09999   0.93089   0.67511   0.00000  Uiso   1.00
H20    H     0.71146   0.75921   0.39794   0.00000  Uiso   1.00
H21    H     0.47388   0.03478   0.24029   0.00000  Uiso   1.00
H22    H     0.93047   0.04246   0.91223   0.00000  Uiso   1.00
C23    C     0.24913   0.73106   0.38182   0.00000  Uiso   1.00
C24    C     0.23520   0.66133   0.45095   0.00000  Uiso   1.00
C25    C     0.22948   0.76041   0.33427   0.00000  Uiso   1.00
C26    C     0.19392   0.18376   0.25726   0.00000  Uiso   1.00
C27    C     0.87482   0.53382   0.68663   0.00000  Uiso   1.00
N28    N     0.21953   0.69408   0.40423   0.00000  Uiso   1.00
H29    H     0.84925   0.52368   0.65116   0.00000  Uiso   1.00
H30    H     0.90001   0.56911   0.67511   0.00000  Uiso   1.00
H31    H     0.28854   0.74079   0.39794   0.00000  Uiso   1.00
H32    H     0.52612   0.46522   0.24029   0.00000  Uiso   1.00
H33    H     0.06953   0.45754   0.91223   0.00000  Uiso   1.00
C34    C     0.74913   0.23106   0.88182   0.00000  Uiso   1.00
C35    C     0.73520   0.16133   0.95095   0.00000  Uiso   1.00
C36    C     0.72948   0.26041   0.83427   0.00000  Uiso   1.00
C37    C     0.69392   0.68376   0.75726   0.00000  Uiso   1.00
C38    C     0.37482   0.03382   0.18663   0.00000  Uiso   1.00
N39    N     0.71953   0.19408   0.90423   0.00000  Uiso   1.00
H40    H     0.34925   0.02368   0.15116   0.00000  Uiso   1.00
H41    H     0.40001   0.06911   0.17511   0.00000  Uiso   1.00
H42    H     0.78854   0.24079   0.89794   0.00000  Uiso   1.00
H43    H     0.02612   0.96522   0.74029   0.00000  Uiso   1.00
H44    H     0.56953   0.95754   0.41223   0.00000  Uiso   1.00
C45    C     0.74913   0.76894   0.61818   0.00000  Uiso   1.00
C46    C     0.73520   0.83867   0.54905   0.00000  Uiso   1.00
C47    C     0.72948   0.73959   0.66573   0.00000  Uiso   1.00
C48    C     0.69392   0.31624   0.74274   0.00000  Uiso   1.00
C49    C     0.37482   0.96618   0.31337   0.00000  Uiso   1.00
N50    N     0.71953   0.80592   0.59577   0.00000  Uiso   1.00
H51    H     0.34925   0.97632   0.34884   0.00000  Uiso   1.00
H52    H     0.40001   0.93089   0.32489   0.00000  Uiso   1.00
H53    H     0.78854   0.75921   0.60206   0.00000  Uiso   1.00
H54    H     0.02612   0.03478   0.75971   0.00000  Uiso   1.00
H55    H     0.56953   0.04246   0.08777   0.00000  Uiso   1.00
C56    C     0.24913   0.26894   0.11818   0.00000  Uiso   1.00
C57    C     0.23520   0.33867   0.04905   0.00000  Uiso   1.00
C58    C     0.22948   0.23959   0.16573   0.00000  Uiso   1.00
C59    C     0.19392   0.81624   0.24274   0.00000  Uiso   1.00
C60    C     0.87482   0.46618   0.81337   0.00000  Uiso   1.00
N61    N     0.21953   0.30592   0.09577   0.00000  Uiso   1.00
H62    H     0.84925   0.47632   0.84884   0.00000  Uiso   1.00
H63    H     0.90001   0.43089   0.82489   0.00000  Uiso   1.00
H64    H     0.28854   0.25921   0.10206   0.00000  Uiso   1.00
H65    H     0.52612   0.53478   0.25971   0.00000  Uiso   1.00
H66    H     0.06953   0.54246   0.58777   0.00000  Uiso   1.00
C67    C     0.75087   0.23106   0.11818   0.00000  Uiso   1.00
C68    C     0.76480   0.16133   0.04905   0.00000  Uiso   1.00
C69    C     0.77052   0.26041   0.16573   0.00000  Uiso   1.00
C70    C     0.80608   0.68376   0.24274   0.00000  Uiso   1.00
C71    C     0.12518   0.03382   0.81337   0.00000  Uiso   1.00
N72    N     0.78047   0.19408   0.09577   0.00000  Uiso   1.00
H73    H     0.15075   0.02368   0.84884   0.00000  Uiso   1.00
H74    H     0.09999   0.06911   0.82489   0.00000  Uiso   1.00
H75    H     0.71146   0.24079   0.10206   0.00000  Uiso   1.00
H76    H     0.47388   0.96522   0.25971   0.00000  Uiso   1.00
H77    H     0.93047   0.95754   0.58777   0.00000  Uiso   1.00
C78    C     0.25087   0.73106   0.61818   0.00000  Uiso   1.00
C79    C     0.26480   0.66133   0.54905   0.00000  Uiso   1.00
C80    C     0.27052   0.76041   0.66573   0.00000  Uiso   1.00
C81    C     0.30608   0.18376   0.74274   0.00000  Uiso   1.00
C82    C     0.62518   0.53382   0.31337   0.00000  Uiso   1.00
N83    N     0.28047   0.69408   0.59577   0.00000  Uiso   1.00
H84    H     0.65075   0.52368   0.34884   0.00000  Uiso   1.00
H85    H     0.59999   0.56911   0.32489   0.00000  Uiso   1.00
H86    H     0.21146   0.74079   0.60206   0.00000  Uiso   1.00
H87    H     0.97388   0.46522   0.75971   0.00000  Uiso   1.00
H88    H     0.43047   0.45754   0.08777   0.00000  Uiso   1.00
C89    C     0.88182   0.25087   0.26894   0.00000  Uiso   1.00
C90    C     0.95095   0.26480   0.33867   0.00000  Uiso   1.00
C91    C     0.83427   0.27052   0.23959   0.00000  Uiso   1.00
C92    C     0.75726   0.30608   0.81624   0.00000  Uiso   1.00
C93    C     0.18663   0.62518   0.46618   0.00000  Uiso   1.00
N94    N     0.90423   0.28047   0.30592   0.00000  Uiso   1.00
H95    H     0.15116   0.65075   0.47632   0.00000  Uiso   1.00
H96    H     0.17511   0.59999   0.43089   0.00000  Uiso   1.00
H97    H     0.89794   0.21146   0.25921   0.00000  Uiso   1.00
H98    H     0.74029   0.97388   0.53478   0.00000  Uiso   1.00
H99    H     0.41223   0.43047   0.54246   0.00000  Uiso   1.00
C100   C     0.38182   0.75087   0.76894   0.00000  Uiso   1.00
C101   C     0.45095   0.76480   0.83867   0.00000  Uiso   1.00
C102   C     0.33427   0.77052   0.73959   0.00000  Uiso   1.00
C103   C     0.25726   0.80608   0.31624   0.00000  Uiso   1.00
C104   C     0.68663   0.12518   0.96618   0.00000  Uiso   1.00
N105   N     0.40423   0.78047   0.80592   0.00000  Uiso   1.00
H106   H     0.65116   0.15075   0.97632   0.00000  Uiso   1.00
H107   H     0.67511   0.09999   0.93089   0.00000  Uiso   1.00
H108   H     0.39794   0.71146   0.75921   0.00000  Uiso   1.00
H109   H     0.24029   0.47388   0.03478   0.00000  Uiso   1.00
H110   H     0.91223   0.93047   0.04246   0.00000  Uiso   1.00
C111   C     0.38182   0.24913   0.73106   0.00000  Uiso   1.00
C112   C     0.45095   0.23520   0.66133   0.00000  Uiso   1.00
C113   C     0.33427   0.22948   0.76041   0.00000  Uiso   1.00
C114   C     0.25726   0.19392   0.18376   0.00000  Uiso   1.00
C115   C     0.68663   0.87482   0.53382   0.00000  Uiso   1.00
N116   N     0.40423   0.21953   0.69408   0.00000  Uiso   1.00
H117   H     0.65116   0.84925   0.52368   0.00000  Uiso   1.00
H118   H     0.67511   0.90001   0.56911   0.00000  Uiso   1.00
H119   H     0.39794   0.28854   0.74079   0.00000  Uiso   1.00
H120   H     0.24029   0.52612   0.46522   0.00000  Uiso   1.00
H121   H     0.91223   0.06953   0.45754   0.00000  Uiso   1.00
C122   C     0.88182   0.74913   0.23106   0.00000  Uiso   1.00
C123   C     0.95095   0.73520   0.16133   0.00000  Uiso   1.00
C124   C     0.83427   0.72948   0.26041   0.00000  Uiso   1.00
C125   C     0.75726   0.69392   0.68376   0.00000  Uiso   1.00
C126   C     0.18663   0.37482   0.03382   0.00000  Uiso   1.00
N127   N     0.90423   0.71953   0.19408   0.00000  Uiso   1.00
H128   H     0.15116   0.34925   0.02368   0.00000  Uiso   1.00
H129   H     0.17511   0.40001   0.06911   0.00000  Uiso   1.00
H130   H     0.89794   0.78854   0.24079   0.00000  Uiso   1.00
H131   H     0.74029   0.02612   0.96522   0.00000  Uiso   1.00
H132   H     0.41223   0.56953   0.95754   0.00000  Uiso   1.00
C133   C     0.61818   0.74913   0.76894   0.00000  Uiso   1.00
C134   C     0.54905   0.73520   0.83867   0.00000  Uiso   1.00
C135   C     0.66573   0.72948   0.73959   0.00000  Uiso   1.00
C136   C     0.74274   0.69392   0.31624   0.00000  Uiso   1.00
C137   C     0.31337   0.37482   0.96618   0.00000  Uiso   1.00
N138   N     0.59577   0.71953   0.80592   0.00000  Uiso   1.00
H139   H     0.34884   0.34925   0.97632   0.00000  Uiso   1.00
H140   H     0.32489   0.40001   0.93089   0.00000  Uiso   1.00
H141   H     0.60206   0.78854   0.75921   0.00000  Uiso   1.00
H142   H     0.75971   0.02612   0.03478   0.00000  Uiso   1.00
H143   H     0.08777   0.56953   0.04246   0.00000  Uiso   1.00
C144   C     0.11818   0.24913   0.26894   0.00000  Uiso   1.00
C145   C     0.04905   0.23520   0.33867   0.00000  Uiso   1.00
C146   C     0.16573   0.22948   0.23959   0.00000  Uiso   1.00
C147   C     0.24274   0.19392   0.81624   0.00000  Uiso   1.00
C148   C     0.81337   0.87482   0.46618   0.00000  Uiso   1.00
N149   N     0.09577   0.21953   0.30592   0.00000  Uiso   1.00
H150   H     0.84884   0.84925   0.47632   0.00000  Uiso   1.00
H151   H     0.82489   0.90001   0.43089   0.00000  Uiso   1.00
H152   H     0.10206   0.28854   0.25921   0.00000  Uiso   1.00
H153   H     0.25971   0.52612   0.53478   0.00000  Uiso   1.00
H154   H     0.58777   0.06953   0.54246   0.00000  Uiso   1.00
C155   C     0.11818   0.75087   0.23106   0.00000  Uiso   1.00
C156   C     0.04905   0.76480   0.16133   0.00000  Uiso   1.00
C157   C     0.16573   0.77052   0.26041   0.00000  Uiso   1.00
C158   C     0.24274   0.80608   0.68376   0.00000  Uiso   1.00
C159   C     0.81337   0.12518   0.03382   0.00000  Uiso   1.00
N160   N     0.09577   0.78047   0.19408   0.00000  Uiso   1.00
H161   H     0.84884   0.15075   0.02368   0.00000  Uiso   1.00
H162   H     0.82489   0.09999   0.06911   0.00000  Uiso   1.00
H163   H     0.10206   0.71146   0.24079   0.00000  Uiso   1.00
H164   H     0.25971   0.47388   0.96522   0.00000  Uiso   1.00
H165   H     0.58777   0.93047   0.95754   0.00000  Uiso   1.00
C166   C     0.61818   0.25087   0.73106   0.00000  Uiso   1.00
C167   C     0.54905   0.26480   0.66133   0.00000  Uiso   1.00
C168   C     0.66573   0.27052   0.76041   0.00000  Uiso   1.00
C169   C     0.74274   0.30608   0.18376   0.00000  Uiso   1.00
C170   C     0.31337   0.62518   0.53382   0.00000  Uiso   1.00
N171   N     0.59577   0.28047   0.69408   0.00000  Uiso   1.00
H172   H     0.34884   0.65075   0.52368   0.00000  Uiso   1.00
H173   H     0.32489   0.59999   0.56911   0.00000  Uiso   1.00
H174   H     0.60206   0.21146   0.74079   0.00000  Uiso   1.00
H175   H     0.75971   0.97388   0.46522   0.00000  Uiso   1.00
H176   H     0.08777   0.43047   0.45754   0.00000  Uiso   1.00
C177   C     0.26894   0.88182   0.25087   0.00000  Uiso   1.00
C178   C     0.33867   0.95095   0.26480   0.00000  Uiso   1.00
C179   C     0.23959   0.83427   0.27052   0.00000  Uiso   1.00
C180   C     0.81624   0.75726   0.30608   0.00000  Uiso   1.00
C181   C     0.46618   0.18663   0.62518   0.00000  Uiso   1.00
N182   N     0.30592   0.90423   0.28047   0.00000  Uiso   1.00
H183   H     0.47632   0.15116   0.65075   0.00000  Uiso   1.00
H184   H     0.43089   0.17511   0.59999   0.00000  Uiso   1.00
H185   H     0.25921   0.89794   0.21146   0.00000  Uiso   1.00
H186   H     0.53478   0.74029   0.97388   0.00000  Uiso   1.00
H187   H     0.54246   0.41223   0.43047   0.00000  Uiso   1.00
C188   C     0.76894   0.38182   0.75087   0.00000  Uiso   1.00
C189   C     0.83867   0.45095   0.76480   0.00000  Uiso   1.00
C190   C     0.73959   0.33427   0.77052   0.00000  Uiso   1.00
C191   C     0.31624   0.25726   0.80608   0.00000  Uiso   1.00
C192   C     0.96618   0.68663   0.12518   0.00000  Uiso   1.00
N193   N     0.80592   0.40423   0.78047   0.00000  Uiso   1.00
H194   H     0.97632   0.65116   0.15075   0.00000  Uiso   1.00
H195   H     0.93089   0.67511   0.09999   0.00000  Uiso   1.00
H196   H     0.75921   0.39794   0.71146   0.00000  Uiso   1.00
H197   H     0.03478   0.24029   0.47388   0.00000  Uiso   1.00
H198   H     0.04246   0.91223   0.93047   0.00000  Uiso   1.00
C199   C     0.73106   0.38182   0.24913   0.00000  Uiso   1.00
C200   C     0.66133   0.45095   0.23520   0.00000  Uiso   1.00
C201   C     0.76041   0.33427   0.22948   0.00000  Uiso   1.00
C202   C     0.18376   0.25726   0.19392   0.00000  Uiso   1.00
C203   C     0.53382   0.68663   0.87482   0.00000  Uiso   1.00
N204   N     0.69408   0.40423   0.21953   0.00000  Uiso   1.00
H205   H     0.52368   0.65116   0.84925   0.00000  Uiso   1.00
H206   H     0.56911   0.67511   0.90001   0.00000  Uiso   1.00
H207   H     0.74079   0.39794   0.28854   0.00000  Uiso   1.00
H208   H     0.46522   0.24029   0.52612   0.00000  Uiso   1.00
H209   H     0.45754   0.91223   0.06953   0.00000  Uiso   1.00
C210   C     0.23106   0.88182   0.74913   0.00000  Uiso   1.00
C211   C     0.16133   0.95095   0.73520   0.00000  Uiso   1.00
C212   C     0.26041   0.83427   0.72948   0.00000  Uiso   1.00
C213   C     0.68376   0.75726   0.69392   0.00000  Uiso   1.00
C214   C     0.03382   0.18663   0.37482   0.00000  Uiso   1.00
N215   N     0.19408   0.90423   0.71953   0.00000  Uiso   1.00
H216   H     0.02368   0.15116   0.34925   0.00000  Uiso   1.00
H217   H     0.06911   0.17511   0.40001   0.00000  Uiso   1.00
H218   H     0.24079   0.89794   0.78854   0.00000  Uiso   1.00
H219   H     0.96522   0.74029   0.02612   0.00000  Uiso   1.00
H220   H     0.95754   0.41223   0.56953   0.00000  Uiso   1.00
C221   C     0.76894   0.61818   0.74913   0.00000  Uiso   1.00
C222   C     0.83867   0.54905   0.73520   0.00000  Uiso   1.00
C223   C     0.73959   0.66573   0.72948   0.00000  Uiso   1.00
C224   C     0.31624   0.74274   0.69392   0.00000  Uiso   1.00
C225   C     0.96618   0.31337   0.37482   0.00000  Uiso   1.00
N226   N     0.80592   0.59577   0.71953   0.00000  Uiso   1.00
H227   H     0.97632   0.34884   0.34925   0.00000  Uiso   1.00
H228   H     0.93089   0.32489   0.40001   0.00000  Uiso   1.00
H229   H     0.75921   0.60206   0.78854   0.00000  Uiso   1.00
H230   H     0.03478   0.75971   0.02612   0.00000  Uiso   1.00
H231   H     0.04246   0.08777   0.56953   0.00000  Uiso   1.00
C232   C     0.26894   0.11818   0.24913   0.00000  Uiso   1.00
C233   C     0.33867   0.04905   0.23520   0.00000  Uiso   1.00
C234   C     0.23959   0.16573   0.22948   0.00000  Uiso   1.00
C235   C     0.81624   0.24274   0.19392   0.00000  Uiso   1.00
C236   C     0.46618   0.81337   0.87482   0.00000  Uiso   1.00
N237   N     0.30592   0.09577   0.21953   0.00000  Uiso   1.00
H238   H     0.47632   0.84884   0.84925   0.00000  Uiso   1.00
H239   H     0.43089   0.82489   0.90001   0.00000  Uiso   1.00
H240   H     0.25921   0.10206   0.28854   0.00000  Uiso   1.00
H241   H     0.53478   0.25971   0.52612   0.00000  Uiso   1.00
H242   H     0.54246   0.58777   0.06953   0.00000  Uiso   1.00
C243   C     0.23106   0.11818   0.75087   0.00000  Uiso   1.00
C244   C     0.16133   0.04905   0.76480   0.00000  Uiso   1.00
C245   C     0.26041   0.16573   0.77052   0.00000  Uiso   1.00
C246   C     0.68376   0.24274   0.80608   0.00000  Uiso   1.00
C247   C     0.03382   0.81337   0.12518   0.00000  Uiso   1.00
N248   N     0.19408   0.09577   0.78047   0.00000  Uiso   1.00
H249   H     0.02368   0.84884   0.15075   0.00000  Uiso   1.00
H250   H     0.06911   0.82489   0.09999   0.00000  Uiso   1.00
H251   H     0.24079   0.10206   0.71146   0.00000  Uiso   1.00
H252   H     0.96522   0.25971   0.47388   0.00000  Uiso   1.00
H253   H     0.95754   0.58777   0.93047   0.00000  Uiso   1.00
C254   C     0.73106   0.61818   0.25087   0.00000  Uiso   1.00
C255   C     0.66133   0.54905   0.26480   0.00000  Uiso   1.00
C256   C     0.76041   0.66573   0.27052   0.00000  Uiso   1.00
C257   C     0.18376   0.74274   0.30608   0.00000  Uiso   1.00
C258   C     0.53382   0.31337   0.62518   0.00000  Uiso   1.00
N259   N     0.69408   0.59577   0.28047   0.00000  Uiso   1.00
H260   H     0.52368   0.34884   0.65075   0.00000  Uiso   1.00
H261   H     0.56911   0.32489   0.59999   0.00000  Uiso   1.00
H262   H     0.74079   0.60206   0.21146   0.00000  Uiso   1.00
H263   H     0.46522   0.75971   0.97388   0.00000  Uiso   1.00
H264   H     0.45754   0.08777   0.43047   0.00000  Uiso   1.00
C265   C     0.51894   0.50087   0.13182   0.00000  Uiso   1.00
C266   C     0.58867   0.51480   0.20095   0.00000  Uiso   1.00
C267   C     0.48959   0.52052   0.08427   0.00000  Uiso   1.00
C268   C     0.06624   0.55608   0.00726   0.00000  Uiso   1.00
C269   C     0.71618   0.87518   0.43663   0.00000  Uiso   1.00
N270   N     0.55592   0.53047   0.15423   0.00000  Uiso   1.00
H271   H     0.72632   0.90075   0.40116   0.00000  Uiso   1.00
H272   H     0.68089   0.84999   0.42511   0.00000  Uiso   1.00
H273   H     0.50921   0.46146   0.14794   0.00000  Uiso   1.00
H274   H     0.78478   0.22388   0.99029   0.00000  Uiso   1.00
H275   H     0.79246   0.68047   0.66223   0.00000  Uiso   1.00
C276   C     0.01894   0.00087   0.63182   0.00000  Uiso   1.00
C277   C     0.08867   0.01480   0.70095   0.00000  Uiso   1.00
C278   C     0.98959   0.02052   0.58427   0.00000  Uiso   1.00
C279   C     0.56624   0.05608   0.50726   0.00000  Uiso   1.00
C280   C     0.21618   0.37518   0.93663   0.00000  Uiso   1.00
N281   N     0.05592   0.03047   0.65423   0.00000  Uiso   1.00
H282   H     0.22632   0.40075   0.90116   0.00000  Uiso   1.00
H283   H     0.18089   0.34999   0.92511   0.00000  Uiso   1.00
H284   H     0.00921   0.96146   0.64794   0.00000  Uiso   1.00
H285   H     0.28478   0.72388   0.49029   0.00000  Uiso   1.00
H286   H     0.29246   0.18047   0.16223   0.00000  Uiso   1.00
C287   C     0.98106   0.49913   0.63182   0.00000  Uiso   1.00
C288   C     0.91133   0.48520   0.70095   0.00000  Uiso   1.00
C289   C     0.01041   0.47948   0.58427   0.00000  Uiso   1.00
C290   C     0.43376   0.44392   0.50726   0.00000  Uiso   1.00
C291   C     0.78382   0.12482   0.93663   0.00000  Uiso   1.00
N292   N     0.94408   0.46953   0.65423   0.00000  Uiso   1.00
H293   H     0.77368   0.09925   0.90116   0.00000  Uiso   1.00
H294   H     0.81911   0.15001   0.92511   0.00000  Uiso   1.00
H295   H     0.99079   0.53854   0.64794   0.00000  Uiso   1.00
H296   H     0.71522   0.77612   0.49029   0.00000  Uiso   1.00
H297   H     0.70754   0.31953   0.16223   0.00000  Uiso   1.00
C298   C     0.48106   0.99913   0.13182   0.00000  Uiso   1.00
C299   C     0.41133   0.98520   0.20095   0.00000  Uiso   1.00
C300   C     0.51041   0.97948   0.08427   0.00000  Uiso   1.00
C301   C     0.93376   0.94392   0.00726   0.00000  Uiso   1.00
C302   C     0.28382   0.62482   0.43663   0.00000  Uiso   1.00
N303   N     0.44408   0.96953   0.15423   0.00000  Uiso   1.00
H304   H     0.27368   0.59925   0.40116   0.00000  Uiso   1.00
H305   H     0.31911   0.65001   0.42511   0.00000  Uiso   1.00
H306   H     0.49079   0.03854   0.14794   0.00000  Uiso   1.00
H307   H     0.21522   0.27612   0.99029   0.00000  Uiso   1.00
H308   H     0.20754   0.81953   0.66223   0.00000  Uiso   1.00
C309   C     0.01894   0.99913   0.86818   0.00000  Uiso   1.00
C310   C     0.08867   0.98520   0.79905   0.00000  Uiso   1.00
C311   C     0.98959   0.97948   0.91573   0.00000  Uiso   1.00
C312   C     0.56624   0.94392   0.99274   0.00000  Uiso   1.00
C313   C     0.21618   0.62482   0.56337   0.00000  Uiso   1.00
N314   N     0.05592   0.96953   0.84577   0.00000  Uiso   1.00
H315   H     0.22632   0.59925   0.59884   0.00000  Uiso   1.00
H316   H     0.18089   0.65001   0.57489   0.00000  Uiso   1.00
H317   H     0.00921   0.03854   0.85206   0.00000  Uiso   1.00
H318   H     0.28478   0.27612   0.00971   0.00000  Uiso   1.00
H319   H     0.29246   0.81953   0.33777   0.00000  Uiso   1.00
C320   C     0.51894   0.49913   0.36818   0.00000  Uiso   1.00
C321   C     0.58867   0.48520   0.29905   0.00000  Uiso   1.00
C322   C     0.48959   0.47948   0.41573   0.00000  Uiso   1.00
C323   C     0.06624   0.44392   0.49274   0.00000  Uiso   1.00
C324   C     0.71618   0.12482   0.06337   0.00000  Uiso   1.00
N325   N     0.55592   0.46953   0.34577   0.00000  Uiso   1.00
H326   H     0.72632   0.09925   0.09884   0.00000  Uiso   1.00
H327   H     0.68089   0.15001   0.07489   0.00000  Uiso   1.00
H328   H     0.50921   0.53854   0.35206   0.00000  Uiso   1.00
H329   H     0.78478   0.77612   0.50971   0.00000  Uiso   1.00
H330   H     0.79246   0.31953   0.83777   0.00000  Uiso   1.00
C331   C     0.48106   0.00087   0.36818   0.00000  Uiso   1.00
C332   C     0.41133   0.01480   0.29905   0.00000  Uiso   1.00
C333   C     0.51041   0.02052   0.41573   0.00000  Uiso   1.00
C334   C     0.93376   0.05608   0.49274   0.00000  Uiso   1.00
C335   C     0.28382   0.37518   0.06337   0.00000  Uiso   1.00
N336   N     0.44408   0.03047   0.34577   0.00000  Uiso   1.00
H337   H     0.27368   0.40075   0.09884   0.00000  Uiso   1.00
H338   H     0.31911   0.34999   0.07489   0.00000  Uiso   1.00
H339   H     0.49079   0.96146   0.35206   0.00000  Uiso   1.00
H340   H     0.21522   0.72388   0.50971   0.00000  Uiso   1.00
H341   H     0.20754   0.18047   0.83777   0.00000  Uiso   1.00
C342   C     0.98106   0.50087   0.86818   0.00000  Uiso   1.00
C343   C     0.91133   0.51480   0.79905   0.00000  Uiso   1.00
C344   C     0.01041   0.52052   0.91573   0.00000  Uiso   1.00
C345   C     0.43376   0.55608   0.99274   0.00000  Uiso   1.00
C346   C     0.78382   0.87518   0.56337   0.00000  Uiso   1.00
N347   N     0.94408   0.53047   0.84577   0.00000  Uiso   1.00
H348   H     0.77368   0.90075   0.59884   0.00000  Uiso   1.00
H349   H     0.81911   0.84999   0.57489   0.00000  Uiso   1.00
H350   H     0.99079   0.46146   0.85206   0.00000  Uiso   1.00
H351   H     0.71522   0.22388   0.00971   0.00000  Uiso   1.00
H352   H     0.70754   0.68047   0.33777   0.00000  Uiso   1.00
C353   C     0.50087   0.13182   0.51894   0.00000  Uiso   1.00
C354   C     0.51480   0.20095   0.58867   0.00000  Uiso   1.00
C355   C     0.52052   0.08427   0.48959   0.00000  Uiso   1.00
C356   C     0.55608   0.00726   0.06624   0.00000  Uiso   1.00
C357   C     0.87518   0.43663   0.71618   0.00000  Uiso   1.00
N358   N     0.53047   0.15423   0.55592   0.00000  Uiso   1.00
H359   H     0.90075   0.40116   0.72632   0.00000  Uiso   1.00
H360   H     0.84999   0.42511   0.68089   0.00000  Uiso   1.00
H361   H     0.46146   0.14794   0.50921   0.00000  Uiso   1.00
H362   H     0.22388   0.99029   0.78478   0.00000  Uiso   1.00
H363   H     0.68047   0.66223   0.79246   0.00000  Uiso   1.00
C364   C     0.00087   0.63182   0.01894   0.00000  Uiso   1.00
C365   C     0.01480   0.70095   0.08867   0.00000  Uiso   1.00
C366   C     0.02052   0.58427   0.98959   0.00000  Uiso   1.00
C367   C     0.05608   0.50726   0.56624   0.00000  Uiso   1.00
C368   C     0.37518   0.93663   0.21618   0.00000  Uiso   1.00
N369   N     0.03047   0.65423   0.05592   0.00000  Uiso   1.00
H370   H     0.40075   0.90116   0.22632   0.00000  Uiso   1.00
H371   H     0.34999   0.92511   0.18089   0.00000  Uiso   1.00
H372   H     0.96146   0.64794   0.00921   0.00000  Uiso   1.00
H373   H     0.72388   0.49029   0.28478   0.00000  Uiso   1.00
H374   H     0.18047   0.16223   0.29246   0.00000  Uiso   1.00
C375   C     0.49913   0.63182   0.98106   0.00000  Uiso   1.00
C376   C     0.48520   0.70095   0.91133   0.00000  Uiso   1.00
C377   C     0.47948   0.58427   0.01041   0.00000  Uiso   1.00
C378   C     0.44392   0.50726   0.43376   0.00000  Uiso   1.00
C379   C     0.12482   0.93663   0.78382   0.00000  Uiso   1.00
N380   N     0.46953   0.65423   0.94408   0.00000  Uiso   1.00
H381   H     0.09925   0.90116   0.77368   0.00000  Uiso   1.00
H382   H     0.15001   0.92511   0.81911   0.00000  Uiso   1.00
H383   H     0.53854   0.64794   0.99079   0.00000  Uiso   1.00
H384   H     0.77612   0.49029   0.71522   0.00000  Uiso   1.00
H385   H     0.31953   0.16223   0.70754   0.00000  Uiso   1.00
C386   C     0.99913   0.13182   0.48106   0.00000  Uiso   1.00
C387   C     0.98520   0.20095   0.41133   0.00000  Uiso   1.00
C388   C     0.97948   0.08427   0.51041   0.00000  Uiso   1.00
C389   C     0.94392   0.00726   0.93376   0.00000  Uiso   1.00
C390   C     0.62482   0.43663   0.28382   0.00000  Uiso   1.00
N391   N     0.96953   0.15423   0.44408   0.00000  Uiso   1.00
H392   H     0.59925   0.40116   0.27368   0.00000  Uiso   1.00
H393   H     0.65001   0.42511   0.31911   0.00000  Uiso   1.00
H394   H     0.03854   0.14794   0.49079   0.00000  Uiso   1.00
H395   H     0.27612   0.99029   0.21522   0.00000  Uiso   1.00
H396   H     0.81953   0.66223   0.20754   0.00000  Uiso   1.00
C397   C     0.99913   0.86818   0.01894   0.00000  Uiso   1.00
C398   C     0.98520   0.79905   0.08867   0.00000  Uiso   1.00
C399   C     0.97948   0.91573   0.98959   0.00000  Uiso   1.00
C400   C     0.94392   0.99274   0.56624   0.00000  Uiso   1.00
C401   C     0.62482   0.56337   0.21618   0.00000  Uiso   1.00
N402   N     0.96953   0.84577   0.05592   0.00000  Uiso   1.00
H403   H     0.59925   0.59884   0.22632   0.00000  Uiso   1.00
H404   H     0.65001   0.57489   0.18089   0.00000  Uiso   1.00
H405   H     0.03854   0.85206   0.00921   0.00000  Uiso   1.00
H406   H     0.27612   0.00971   0.28478   0.00000  Uiso   1.00
H407   H     0.81953   0.33777   0.29246   0.00000  Uiso   1.00
C408   C     0.49913   0.36818   0.51894   0.00000  Uiso   1.00
C409   C     0.48520   0.29905   0.58867   0.00000  Uiso   1.00
C410   C     0.47948   0.41573   0.48959   0.00000  Uiso   1.00
C411   C     0.44392   0.49274   0.06624   0.00000  Uiso   1.00
C412   C     0.12482   0.06337   0.71618   0.00000  Uiso   1.00
N413   N     0.46953   0.34577   0.55592   0.00000  Uiso   1.00
H414   H     0.09925   0.09884   0.72632   0.00000  Uiso   1.00
H415   H     0.15001   0.07489   0.68089   0.00000  Uiso   1.00
H416   H     0.53854   0.35206   0.50921   0.00000  Uiso   1.00
H417   H     0.77612   0.50971   0.78478   0.00000  Uiso   1.00
H418   H     0.31953   0.83777   0.79246   0.00000  Uiso   1.00
C419   C     0.00087   0.36818   0.48106   0.00000  Uiso   1.00
C420   C     0.01480   0.29905   0.41133   0.00000  Uiso   1.00
C421   C     0.02052   0.41573   0.51041   0.00000  Uiso   1.00
C422   C     0.05608   0.49274   0.93376   0.00000  Uiso   1.00
C423   C     0.37518   0.06337   0.28382   0.00000  Uiso   1.00
N424   N     0.03047   0.34577   0.44408   0.00000  Uiso   1.00
H425   H     0.40075   0.09884   0.27368   0.00000  Uiso   1.00
H426   H     0.34999   0.07489   0.31911   0.00000  Uiso   1.00
H427   H     0.96146   0.35206   0.49079   0.00000  Uiso   1.00
H428   H     0.72388   0.50971   0.21522   0.00000  Uiso   1.00
H429   H     0.18047   0.83777   0.20754   0.00000  Uiso   1.00
C430   C     0.50087   0.86818   0.98106   0.00000  Uiso   1.00
C431   C     0.51480   0.79905   0.91133   0.00000  Uiso   1.00
C432   C     0.52052   0.91573   0.01041   0.00000  Uiso   1.00
C433   C     0.55608   0.99274   0.43376   0.00000  Uiso   1.00
C434   C     0.87518   0.56337   0.78382   0.00000  Uiso   1.00
N435   N     0.53047   0.84577   0.94408   0.00000  Uiso   1.00
H436   H     0.90075   0.59884   0.77368   0.00000  Uiso   1.00
H437   H     0.84999   0.57489   0.81911   0.00000  Uiso   1.00
H438   H     0.46146   0.85206   0.99079   0.00000  Uiso   1.00
H439   H     0.22388   0.00971   0.71522   0.00000  Uiso   1.00
H440   H     0.68047   0.33777   0.70754   0.00000  Uiso   1.00
C441   C     0.13182   0.51894   0.50087   0.00000  Uiso   1.00
C442   C     0.20095   0.58867   0.51480   0.00000  Uiso   1.00
C443   C     0.08427   0.48959   0.52052   0.00000  Uiso   1.00
C444   C     0.00726   0.06624   0.55608   0.00000  Uiso   1.00
C445   C     0.43663   0.71618   0.87518   0.00000  Uiso   1.00
N446   N     0.15423   0.55592   0.53047   0.00000  Uiso   1.00
H447   H     0.40116   0.72632   0.90075   0.00000  Uiso   1.00
H448   H     0.42511   0.68089   0.84999   0.00000  Uiso   1.00
H449   H     0.14794   0.50921   0.46146   0.00000  Uiso   1.00
H450   H     0.99029   0.78478   0.22388   0.00000  Uiso   1.00
H451   H     0.66223   0.79246   0.68047   0.00000  Uiso   1.00
C452   C     0.63182   0.01894   0.00087   0.00000  Uiso   1.00
C453   C     0.70095   0.08867   0.01480   0.00000  Uiso   1.00
C454   C     0.58427   0.98959   0.02052   0.00000  Uiso   1.00
C455   C     0.50726   0.56624   0.05608   0.00000  Uiso   1.00
C456   C     0.93663   0.21618   0.37518   0.00000  Uiso   1.00
N457   N     0.65423   0.05592   0.03047   0.00000  Uiso   1.00
H458   H     0.90116   0.22632   0.40075   0.00000  Uiso   1.00
H459   H     0.92511   0.18089   0.34999   0.00000  Uiso   1.00
H460   H     0.64794   0.00921   0.96146   0.00000  Uiso   1.00
H461   H     0.49029   0.28478   0.72388   0.00000  Uiso   1.00
H462   H     0.16223   0.29246   0.18047   0.00000  Uiso   1.00
C463   C     0.63182   0.98106   0.49913   0.00000  Uiso   1.00
C464   C     0.70095   0.91133   0.48520   0.00000  Uiso   1.00
C465   C     0.58427   0.01041   0.47948   0.00000  Uiso   1.00
C466   C     0.50726   0.43376   0.44392   0.00000  Uiso   1.00
C467   C     0.93663   0.78382   0.12482   0.00000  Uiso   1.00
N468   N     0.65423   0.94408   0.46953   0.00000  Uiso   1.00
H469   H     0.90116   0.77368   0.09925   0.00000  Uiso   1.00
H470   H     0.92511   0.81911   0.15001   0.00000  Uiso   1.00
H471   H     0.64794   0.99079   0.53854   0.00000  Uiso   1.00
H472   H     0.49029   0.71522   0.77612   0.00000  Uiso   1.00
H473   H     0.16223   0.70754   0.31953   0.00000  Uiso   1.00
C474   C     0.13182   0.48106   0.99913   0.00000  Uiso   1.00
C475   C     0.20095   0.41133   0.98520   0.00000  Uiso   1.00
C476   C     0.08427   0.51041   0.97948   0.00000  Uiso   1.00
C477   C     0.00726   0.93376   0.94392   0.00000  Uiso   1.00
C478   C     0.43663   0.28382   0.62482   0.00000  Uiso   1.00
N479   N     0.15423   0.44408   0.96953   0.00000  Uiso   1.00
H480   H     0.40116   0.27368   0.59925   0.00000  Uiso   1.00
H481   H     0.42511   0.31911   0.65001   0.00000  Uiso   1.00
H482   H     0.14794   0.49079   0.03854   0.00000  Uiso   1.00
H483   H     0.99029   0.21522   0.27612   0.00000  Uiso   1.00
H484   H     0.66223   0.20754   0.81953   0.00000  Uiso   1.00
C485   C     0.86818   0.01894   0.99913   0.00000  Uiso   1.00
C486   C     0.79905   0.08867   0.98520   0.00000  Uiso   1.00
C487   C     0.91573   0.98959   0.97948   0.00000  Uiso   1.00
C488   C     0.99274   0.56624   0.94392   0.00000  Uiso   1.00
C489   C     0.56337   0.21618   0.62482   0.00000  Uiso   1.00
N490   N     0.84577   0.05592   0.96953   0.00000  Uiso   1.00
H491   H     0.59884   0.22632   0.59925   0.00000  Uiso   1.00
H492   H     0.57489   0.18089   0.65001   0.00000  Uiso   1.00
H493   H     0.85206   0.00921   0.03854   0.00000  Uiso   1.00
H494   H     0.00971   0.28478   0.27612   0.00000  Uiso   1.00
H495   H     0.33777   0.29246   0.81953   0.00000  Uiso   1.00
C496   C     0.36818   0.51894   0.49913   0.00000  Uiso   1.00
C497   C     0.29905   0.58867   0.48520   0.00000  Uiso   1.00
C498   C     0.41573   0.48959   0.47948   0.00000  Uiso   1.00
C499   C     0.49274   0.06624   0.44392   0.00000  Uiso   1.00
C500   C     0.06337   0.71618   0.12482   0.00000  Uiso   1.00
N501   N     0.34577   0.55592   0.46953   0.00000  Uiso   1.00
H502   H     0.09884   0.72632   0.09925   0.00000  Uiso   1.00
H503   H     0.07489   0.68089   0.15001   0.00000  Uiso   1.00
H504   H     0.35206   0.50921   0.53854   0.00000  Uiso   1.00
H505   H     0.50971   0.78478   0.77612   0.00000  Uiso   1.00
H506   H     0.83777   0.79246   0.31953   0.00000  Uiso   1.00
C507   C     0.36818   0.48106   0.00087   0.00000  Uiso   1.00
C508   C     0.29905   0.41133   0.01480   0.00000  Uiso   1.00
C509   C     0.41573   0.51041   0.02052   0.00000  Uiso   1.00
C510   C     0.49274   0.93376   0.05608   0.00000  Uiso   1.00
C511   C     0.06337   0.28382   0.37518   0.00000  Uiso   1.00
N512   N     0.34577   0.44408   0.03047   0.00000  Uiso   1.00
H513   H     0.09884   0.27368   0.40075   0.00000  Uiso   1.00
H514   H     0.07489   0.31911   0.34999   0.00000  Uiso   1.00
H515   H     0.35206   0.49079   0.96146   0.00000  Uiso   1.00
H516   H     0.50971   0.21522   0.72388   0.00000  Uiso   1.00
H517   H     0.83777   0.20754   0.18047   0.00000  Uiso   1.00
C518   C     0.86818   0.98106   0.50087   0.00000  Uiso   1.00
C519   C     0.79905   0.91133   0.51480   0.00000  Uiso   1.00
C520   C     0.91573   0.01041   0.52052   0.00000  Uiso   1.00
C521   C     0.99274   0.43376   0.55608   0.00000  Uiso   1.00
C522   C     0.56337   0.78382   0.87518   0.00000  Uiso   1.00
N523   N     0.84577   0.94408   0.53047   0.00000  Uiso   1.00
H524   H     0.59884   0.77368   0.90075   0.00000  Uiso   1.00
H525   H     0.57489   0.81911   0.84999   0.00000  Uiso   1.00
H526   H     0.85206   0.99079   0.46146   0.00000  Uiso   1.00
H527   H     0.00971   0.71522   0.22388   0.00000  Uiso   1.00
H528   H     0.33777   0.70754   0.68047   0.00000  Uiso   1.00
C529   C     0.25000   0.69733   0.50000   0.00000  Uiso   1.00
C530   C     0.25000   0.30267   0.00000   0.00000  Uiso   1.00
C531   C     0.75000   0.19733   0.00000   0.00000  Uiso   1.00
C532   C     0.75000   0.80267   0.50000   0.00000  Uiso   1.00
C533   C     0.50000   0.25000   0.69733   0.00000  Uiso   1.00
C534   C     0.00000   0.25000   0.30267   0.00000  Uiso   1.00
C535   C     0.00000   0.75000   0.19733   0.00000  Uiso   1.00
C536   C     0.50000   0.75000   0.80267   0.00000  Uiso   1.00
C537   C     0.69733   0.50000   0.25000   0.00000  Uiso   1.00
C538   C     0.30267   0.00000   0.25000   0.00000  Uiso   1.00
C539   C     0.19733   0.00000   0.75000   0.00000  Uiso   1.00
C540   C     0.80267   0.50000   0.75000   0.00000  Uiso   1.00
C541   C     0.94733   0.50000   0.75000   0.00000  Uiso   1.00
C542   C     0.55267   0.50000   0.25000   0.00000  Uiso   1.00
C543   C     0.44733   0.00000   0.25000   0.00000  Uiso   1.00
C544   C     0.05267   0.00000   0.75000   0.00000  Uiso   1.00
C545   C     0.50000   0.75000   0.94733   0.00000  Uiso   1.00
C546   C     0.50000   0.25000   0.55267   0.00000  Uiso   1.00
C547   C     0.00000   0.25000   0.44733   0.00000  Uiso   1.00
C548   C     0.00000   0.75000   0.05267   0.00000  Uiso   1.00
C549   C     0.75000   0.94733   0.50000   0.00000  Uiso   1.00
C550   C     0.25000   0.55267   0.50000   0.00000  Uiso   1.00
C551   C     0.25000   0.44733   0.00000   0.00000  Uiso   1.00
C552   C     0.75000   0.05267   0.00000   0.00000  Uiso   1.00
loop_
_geom_bond_atom_site_label_1
_geom_bond_atom_site_label_2
_geom_bond_distance
_geom_bond_site_symmetry_2
_ccdc_geom_bond_type
C1     C3      1.477   .     S
C1     N6      1.306   .     D
C1     H9      1.089   .     S
C2     N6      1.475   .     S
C2     C137    1.557   .     S
C2     C280    1.557   .     S
C2     C530    1.561   1_556 S
C3     C147    1.407   .     D
C3     C191    1.410   .     S
C4     C102    1.410   .     S
C4     C212    1.407   .     D
C4     H418    1.082   .     S
C5     H7      1.119   .     S
C5     H8      1.119   .     S
C5     C200    1.557   .     S
C5     C266    1.557   .     S
H10    C541    1.117   .     S
H11    C378    1.082   .     S
C12    C14     1.477   .     S
C12    N17     1.306   .     D
C12    H20     1.089   .     S
C13    N17     1.475   .     S
C13    C148    1.557   .     S
C13    C269    1.557   .     S
C13    C532    1.561   .     S
C14    C136    1.407   .     D
C14    C180    1.410   .     S
C15    C91     1.410   .     S
C15    C201    1.407   .     D
C15    H407    1.082   .     S
C16    H18     1.119   .     S
C16    H19     1.119   .     S
C16    C211    1.557   .     S
C16    C277    1.557   1_565 S
H21    C543    1.117   .     S
H22    C389    1.082   .     S
C23    C25     1.477   .     S
C23    N28     1.306   .     D
C23    H31     1.089   .     S
C24    N28     1.475   .     S
C24    C93     1.557   .     S
C24    C302    1.557   .     S
C24    C529    1.561   .     S
C25    C103    1.407   .     D
C25    C257    1.410   .     S
C26    C146    1.410   .     S
C26    C234    1.407   .     D
C26    H374    1.082   .     S
C27    H29     1.119   .     S
C27    H30     1.119   .     S
C27    C222    1.557   .     S
C27    C288    1.557   .     S
H32    C542    1.117   .     S
H33    C422    1.082   .     S
C34    C36     1.477   .     S
C34    N39     1.306   .     D
C34    H42     1.089   .     S
C35    N39     1.475   .     S
C35    C104    1.557   .     S
C35    C291    1.557   .     S
C35    C531    1.561   1_556 S
C36    C92     1.407   .     D
C36    C246    1.410   .     S
C37    C135    1.410   .     S
C37    C223    1.407   .     D
C37    H363    1.082   .     S
C38    H40     1.119   .     S
C38    H41     1.119   .     S
C38    C233    1.557   .     S
C38    C299    1.557   1_545 S
H43    C544    1.117   1_565 S
H44    C433    1.082   .     S
C45    C47     1.477   .     S
C45    N50     1.306   .     D
C45    H53     1.089   .     S
C46    N50     1.475   .     S
C46    C115    1.557   .     S
C46    C346    1.557   .     S
C46    C532    1.561   .     S
C47    C125    1.407   .     D
C47    C213    1.410   .     S
C48    C168    1.410   .     S
C48    C190    1.407   .     D
C48    H440    1.082   .     S
C49    H51     1.119   .     S
C49    H52     1.119   .     S
C49    C178    1.557   .     S
C49    C332    1.557   1_565 S
H54    C544    1.117   .     S
H55    C356    1.082   .     S
C56    C58     1.477   .     S
C56    N61     1.306   .     D
C56    H64     1.089   .     S
C57    N61     1.475   .     S
C57    C126    1.557   .     S
C57    C335    1.557   .     S
C57    C530    1.561   .     S
C58    C114    1.407   .     D
C58    C202    1.410   .     S
C59    C157    1.410   .     S
C59    C179    1.407   .     D
C59    H429    1.082   .     S
C60    H62     1.119   .     S
C60    H63     1.119   .     S
C60    C189    1.557   .     S
C60    C343    1.557   .     S
H65    C542    1.117   .     S
H66    C367    1.082   .     S
C67    C69     1.477   .     S
C67    N72     1.306   .     D
C67    H75     1.089   .     S
C68    N72     1.475   .     S
C68    C159    1.557   .     S
C68    C324    1.557   .     S
C68    C531    1.561   .     S
C69    C169    1.407   .     D
C69    C235    1.410   .     S
C70    C124    1.410   .     S
C70    C256    1.407   .     D
C70    H396    1.082   .     S
C71    H73     1.119   .     S
C71    H74     1.119   .     S
C71    C244    1.557   .     S
C71    C310    1.557   1_545 S
H76    C543    1.117   1_565 S
H77    C400    1.082   .     S
C78    C80     1.477   .     S
C78    N83     1.306   .     D
C78    H86     1.089   .     S
C79    N83     1.475   .     S
C79    C170    1.557   .     S
C79    C313    1.557   .     S
C79    C529    1.561   .     S
C80    C158    1.407   .     D
C80    C224    1.410   .     S
C81    C113    1.410   .     S
C81    C245    1.407   .     D
C81    H385    1.082   .     S
C82    H84     1.119   .     S
C82    H85     1.119   .     S
C82    C255    1.557   .     S
C82    C321    1.557   .     S
H87    C541    1.117   .     S
H88    C411    1.082   .     S
C89    C91     1.477   .     S
C89    N94     1.306   .     D
C89    H97     1.089   .     S
C90    N94     1.475   .     S
C90    C225    1.557   .     S
C90    C456    1.557   .     S
C90    C534    1.561   1_655 S
C91    C235    1.407   .     D
C92    C190    1.410   .     S
C92    H330    1.082   .     S
C93    H95     1.119   .     S
C93    H96     1.119   .     S
C93    C442    1.557   .     S
H98    C549    1.117   .     S
H99    C290    1.082   .     S
C100   C102    1.477   .     S
C100   N105    1.306   .     D
C100   H108    1.089   .     S
C101   N105    1.475   .     S
C101   C236    1.557   .     S
C101   C445    1.557   .     S
C101   C536    1.561   .     S
C102   C224    1.407   .     D
C103   C179    1.410   .     S
C103   H319    1.082   .     S
C104   H106    1.119   .     S
C104   H107    1.119   .     S
C104   C453    1.557   1_556 S
H109   C551    1.117   .     S
H110   C301    1.082   .     S
C111   C113    1.477   .     S
C111   N116    1.306   .     D
C111   H119    1.089   .     S
C112   N116    1.475   .     S
C112   C181    1.557   .     S
C112   C478    1.557   .     S
C112   C533    1.561   .     S
C113   C191    1.407   .     D
C114   C234    1.410   .     S
C114   H286    1.082   .     S
C115   H117    1.119   .     S
C115   H118    1.119   .     S
C115   C464    1.557   .     S
H120   C550    1.117   .     S
H121   C334    1.082   .     S
C122   C124    1.477   .     S
C122   N127    1.306   .     D
C122   H130    1.089   .     S
C123   N127    1.475   .     S
C123   C192    1.557   .     S
C123   C467    1.557   .     S
C123   C535    1.561   1_655 S
C124   C180    1.407   .     D
C125   C223    1.410   .     S
C125   H275    1.082   .     S
C126   H128    1.119   .     S
C126   H129    1.119   .     S
C126   C475    1.557   1_554 S
H131   C552    1.117   1_556 S
H132   C345    1.082   .     S
C133   C135    1.477   .     S
C133   N138    1.306   .     D
C133   H141    1.089   .     S
C134   N138    1.475   .     S
C134   C203    1.557   .     S
C134   C522    1.557   .     S
C134   C536    1.561   .     S
C135   C213    1.407   .     D
C136   C256    1.410   .     S
C136   H352    1.082   .     S
C137   H139    1.119   .     S
C137   H140    1.119   .     S
C137   C508    1.557   1_556 S
H142   C552    1.117   .     S
H143   C268    1.082   .     S
C144   C146    1.477   .     S
C144   N149    1.306   .     D
C144   H152    1.089   .     S
C145   N149    1.475   .     S
C145   C214    1.557   .     S
C145   C511    1.557   .     S
C145   C534    1.561   .     S
C146   C202    1.407   .     D
C147   C245    1.410   .     S
C147   H341    1.082   .     S
C148   H150    1.119   .     S
C148   H151    1.119   .     S
C148   C519    1.557   .     S
H153   C550    1.117   .     S
H154   C279    1.082   .     S
C155   C157    1.477   .     S
C155   N160    1.306   .     D
C155   H163    1.089   .     S
C156   N160    1.475   .     S
C156   C247    1.557   .     S
C156   C500    1.557   .     S
C156   C535    1.561   .     S
C157   C257    1.407   .     D
C158   C212    1.410   .     S
C158   H308    1.082   .     S
C159   H161    1.119   .     S
C159   H162    1.119   .     S
C159   C486    1.557   1_554 S
H164   C551    1.117   1_556 S
H165   C312    1.082   .     S
C166   C168    1.477   .     S
C166   N171    1.306   .     D
C166   H174    1.089   .     S
C167   N171    1.475   .     S
C167   C258    1.557   .     S
C167   C489    1.557   .     S
C167   C533    1.561   .     S
C168   C246    1.407   .     D
C169   C201    1.410   .     S
C169   H297    1.082   .     S
C170   H172    1.119   .     S
C170   H173    1.119   .     S
C170   C497    1.557   .     S
H175   C549    1.117   .     S
H176   C323    1.082   .     S
C177   C179    1.477   .     S
C177   N182    1.306   .     D
C177   H185    1.089   .     S
C178   N182    1.475   .     S
C178   C368    1.557   .     S
C178   C538    1.561   1_565 S
C180   H506    1.082   .     S
C181   H183    1.119   .     S
C181   H184    1.119   .     S
C181   C354    1.557   .     S
H186   C545    1.117   .     S
H187   C466    1.082   .     S
C188   C190    1.477   .     S
C188   N193    1.306   .     D
C188   H196    1.089   .     S
C189   N193    1.475   .     S
C189   C357    1.557   .     S
C189   C540    1.561   .     S
C191   H495    1.082   .     S
C192   H194    1.119   .     S
C192   H195    1.119   .     S
C192   C365    1.557   1_655 S
H197   C547    1.117   .     S
H198   C477    1.082   .     S
C199   C201    1.477   .     S
C199   N204    1.306   .     D
C199   H207    1.089   .     S
C200   N204    1.475   .     S
C200   C390    1.557   .     S
C200   C537    1.561   .     S
C202   H462    1.082   .     S
C203   H205    1.119   .     S
C203   H206    1.119   .     S
C203   C376    1.557   .     S
H208   C546    1.117   .     S
H209   C510    1.082   .     S
C210   C212    1.477   .     S
C210   N215    1.306   .     D
C210   H218    1.089   .     S
C211   N215    1.475   .     S
C211   C379    1.557   .     S
C211   C539    1.561   1_565 S
C213   H451    1.082   .     S
C214   H216    1.119   .     S
C214   H217    1.119   .     S
C214   C387    1.557   1_455 S
H219   C548    1.117   1_655 S
H220   C521    1.082   .     S
C221   C223    1.477   .     S
C221   N226    1.306   .     D
C221   H229    1.089   .     S
C222   N226    1.475   .     S
C222   C434    1.557   .     S
C222   C540    1.561   .     S
C224   H528    1.082   .     S
C225   H227    1.119   .     S
C225   H228    1.119   .     S
C225   C420    1.557   1_655 S
H230   C548    1.117   .     S
H231   C444    1.082   .     S
C232   C234    1.477   .     S
C232   N237    1.306   .     D
C232   H240    1.089   .     S
C233   N237    1.475   .     S
C233   C423    1.557   .     S
C233   C538    1.561   .     S
C235   H517    1.082   .     S
C236   H238    1.119   .     S
C236   H239    1.119   .     S
C236   C431    1.557   .     S
H241   C546    1.117   .     S
H242   C455    1.082   .     S
C243   C245    1.477   .     S
C243   N248    1.306   .     D
C243   H251    1.089   .     S
C244   N248    1.475   .     S
C244   C412    1.557   .     S
C244   C539    1.561   .     S
C246   H484    1.082   .     S
C247   H249    1.119   .     S
C247   H250    1.119   .     S
C247   C398    1.557   1_455 S
H252   C547    1.117   1_655 S
H253   C488    1.082   .     S
C254   C256    1.477   .     S
C254   N259    1.306   .     D
C254   H262    1.089   .     S
C255   N259    1.475   .     S
C255   C401    1.557   .     S
C255   C537    1.561   .     S
C257   H473    1.082   .     S
C258   H260    1.119   .     S
C258   H261    1.119   .     S
C258   C409    1.557   .     S
H263   C545    1.117   .     S
H264   C499    1.082   .     S
C265   C267    1.477   .     S
C265   N270    1.306   .     D
C265   H273    1.089   .     S
C266   N270    1.475   .     S
C266   C401    1.557   .     S
C266   C542    1.561   .     S
C267   C411    1.407   .     S
C267   C455    1.410   .     D
C268   C366    1.410   1_554 D
C268   C476    1.407   1_554 S
C269   H271    1.119   .     S
C269   H272    1.119   .     S
C269   C464    1.557   .     S
H274   C531    1.117   1_556 S
C276   C278    1.477   1_455 S
C276   N281    1.306   .     D
C276   H284    1.089   1_545 S
C277   C16     1.557   1_545 S
C277   N281    1.475   .     S
C277   C412    1.557   .     S
C277   C544    1.561   .     S
C278   C276    1.477   1_655 S
C278   C400    1.407   1_545 S
C278   C444    1.410   1_655 D
C279   C355    1.410   .     D
C279   C465    1.407   .     S
C280   H282    1.119   .     S
C280   H283    1.119   .     S
C280   C475    1.557   .     S
H284   C276    1.089   1_565 S
H285   C529    1.117   .     S
C287   C289    1.477   1_655 S
C287   N292    1.306   .     D
C287   H295    1.089   .     S
C288   N292    1.475   .     S
C288   C357    1.557   .     S
C288   C541    1.561   .     S
C289   C287    1.477   1_455 S
C289   C367    1.407   .     S
C289   C521    1.410   1_455 D
C290   C410    1.410   .     D
C290   C498    1.407   .     S
C291   H293    1.119   .     S
C291   H294    1.119   .     S
C291   C486    1.557   .     S
H296   C532    1.117   .     S
C298   C300    1.477   .     S
C298   N303    1.306   .     D
C298   H306    1.089   1_565 S
C299   C38     1.557   1_565 S
C299   N303    1.475   .     S
C299   C368    1.557   .     S
C299   C543    1.561   1_565 S
C300   C356    1.407   1_565 S
C300   C510    1.410   .     D
C301   C399    1.410   1_554 D
C301   C487    1.407   1_554 S
C302   H304    1.119   .     S
C302   H305    1.119   .     S
C302   C497    1.557   .     S
H306   C298    1.089   1_545 S
H307   C530    1.117   1_556 S
C309   C311    1.477   1_455 S
C309   N314    1.306   .     D
C309   H317    1.089   1_565 S
C310   C71     1.557   1_565 S
C310   N314    1.475   .     S
C310   C379    1.557   .     S
C310   C544    1.561   1_565 S
C311   C309    1.477   1_655 S
C311   C389    1.407   1_565 S
C311   C477    1.410   1_655 D
C312   C432    1.410   1_556 D
C312   C454    1.407   1_556 S
C313   H315    1.119   .     S
C313   H316    1.119   .     S
C313   C442    1.557   .     S
H317   C309    1.089   1_545 S
H318   C530    1.117   .     S
C320   C322    1.477   .     S
C320   N325    1.306   .     D
C320   H328    1.089   .     S
C321   N325    1.475   .     S
C321   C390    1.557   .     S
C321   C542    1.561   .     S
C322   C378    1.407   .     S
C322   C466    1.410   .     D
C323   C421    1.410   .     D
C323   C443    1.407   .     S
C324   H326    1.119   .     S
C324   H327    1.119   .     S
C324   C453    1.557   .     S
H329   C532    1.117   .     S
C331   C333    1.477   .     S
C331   N336    1.306   .     D
C331   H339    1.089   1_545 S
C332   C49     1.557   1_545 S
C332   N336    1.475   .     S
C332   C423    1.557   .     S
C332   C543    1.561   .     S
C333   C433    1.407   1_545 S
C333   C499    1.410   .     D
C334   C388    1.410   .     D
C334   C520    1.407   .     S
C335   H337    1.119   .     S
C335   H338    1.119   .     S
C335   C508    1.557   .     S
H339   C331    1.089   1_565 S
H340   C529    1.117   .     S
C342   C344    1.477   1_655 S
C342   N347    1.306   .     D
C342   H350    1.089   .     S
C343   N347    1.475   .     S
C343   C434    1.557   .     S
C343   C541    1.561   .     S
C344   C342    1.477   1_455 S
C344   C422    1.407   .     S
C344   C488    1.410   1_455 D
C345   C377    1.410   1_556 D
C345   C509    1.407   1_556 S
C346   H348    1.119   .     S
C346   H349    1.119   .     S
C346   C519    1.557   .     S
H351   C531    1.117   .     S
C353   C355    1.477   .     S
C353   N358    1.306   .     D
C353   H361    1.089   .     S
C354   N358    1.475   .     S
C354   C489    1.557   .     S
C354   C546    1.561   .     S
C355   C499    1.407   .     S
C356   C300    1.407   1_545 S
C356   C454    1.410   1_545 D
C357   H359    1.119   .     S
C357   H360    1.119   .     S
H362   C539    1.117   1_565 S
C364   C366    1.477   1_554 S
C364   N369    1.306   .     D
C364   H372    1.089   1_455 S
C365   C192    1.557   1_455 S
C365   N369    1.475   .     S
C365   C500    1.557   .     S
C365   C548    1.561   .     S
C366   C364    1.477   1_556 S
C366   C268    1.410   1_556 D
C366   C488    1.407   1_455 S
C367   C443    1.410   .     D
C368   H370    1.119   .     S
C368   H371    1.119   .     S
H372   C364    1.089   1_655 S
H373   C537    1.117   .     S
C375   C377    1.477   1_556 S
C375   N380    1.306   .     D
C375   H383    1.089   .     S
C376   N380    1.475   .     S
C376   C445    1.557   .     S
C376   C545    1.561   .     S
C377   C375    1.477   1_554 S
C377   C345    1.410   1_554 D
C377   C455    1.407   .     S
C378   C498    1.410   .     D
C379   H381    1.119   .     S
C379   H382    1.119   .     S
H384   C540    1.117   .     S
C386   C388    1.477   .     S
C386   N391    1.306   .     D
C386   H394    1.089   1_655 S
C387   C214    1.557   1_655 S
C387   N391    1.475   .     S
C387   C456    1.557   .     S
C387   C547    1.561   1_655 S
C388   C444    1.407   1_655 S
C389   C311    1.407   1_545 S
C389   C487    1.410   1_545 D
C390   H392    1.119   .     S
C390   H393    1.119   .     S
H394   C386    1.089   1_455 S
H395   C538    1.117   1_565 S
C397   C399    1.477   1_554 S
C397   N402    1.306   .     D
C397   H405    1.089   1_655 S
C398   C247    1.557   1_655 S
C398   N402    1.475   .     S
C398   C467    1.557   .     S
C398   C548    1.561   1_655 S
C399   C301    1.410   1_556 D
C399   C397    1.477   1_556 S
C399   C477    1.407   1_655 S
C400   C278    1.407   1_565 S
C400   C520    1.410   1_565 D
C401   H403    1.119   .     S
C401   H404    1.119   .     S
H405   C397    1.089   1_455 S
H406   C538    1.117   .     S
C408   C410    1.477   .     S
C408   N413    1.306   .     D
C408   H416    1.089   .     S
C409   N413    1.475   .     S
C409   C478    1.557   .     S
C409   C546    1.561   .     S
C410   C466    1.407   .     S
C411   C509    1.410   .     D
C412   H414    1.119   .     S
C412   H415    1.119   .     S
H417   C540    1.117   .     S
C419   C421    1.477   .     S
C419   N424    1.306   .     D
C419   H427    1.089   1_455 S
C420   C225    1.557   1_455 S
C420   N424    1.475   .     S
C420   C511    1.557   .     S
C420   C547    1.561   .     S
C421   C521    1.407   1_455 S
C422   C476    1.410   .     D
C423   H425    1.119   .     S
C423   H426    1.119   .     S
H427   C419    1.089   1_655 S
H428   C537    1.117   .     S
C430   C432    1.477   1_556 S
C430   N435    1.306   .     D
C430   H438    1.089   .     S
C431   N435    1.475   .     S
C431   C522    1.557   .     S
C431   C545    1.561   .     S
C432   C312    1.410   1_554 D
C432   C430    1.477   1_554 S
C432   C510    1.407   .     S
C433   C333    1.407   1_565 S
C433   C465    1.410   1_565 D
C434   H436    1.119   .     S
C434   H437    1.119   .     S
H439   C539    1.117   .     S
C441   C443    1.477   .     S
C441   N446    1.306   .     D
C441   H449    1.089   .     S
C442   N446    1.475   .     S
C442   C550    1.561   .     S
C444   C388    1.407   1_455 S
C444   C278    1.410   1_455 D
C445   H447    1.119   .     S
C445   H448    1.119   .     S
H450   C535    1.117   1_655 S
C452   C454    1.477   1_545 S
C452   N457    1.306   .     D
C452   H460    1.089   1_554 S
C453   C104    1.557   1_554 S
C453   N457    1.475   .     S
C453   C552    1.561   .     S
C454   C452    1.477   1_565 S
C454   C356    1.410   1_565 D
C454   C312    1.407   1_554 S
C456   H458    1.119   .     S
C456   H459    1.119   .     S
H460   C452    1.089   1_556 S
H461   C533    1.117   .     S
C463   C465    1.477   1_565 S
C463   N468    1.306   .     D
C463   H471    1.089   .     S
C464   N468    1.475   .     S
C464   C549    1.561   .     S
C465   C433    1.410   1_545 D
C465   C463    1.477   1_545 S
C467   H469    1.119   .     S
C467   H470    1.119   .     S
H472   C536    1.117   .     S
C474   C476    1.477   .     S
C474   N479    1.306   .     D
C474   H482    1.089   1_556 S
C475   C126    1.557   1_556 S
C475   N479    1.475   .     S
C475   C551    1.561   1_556 S
C476   C268    1.407   1_556 S
C477   C399    1.407   1_455 S
C477   C311    1.410   1_455 D
C478   H480    1.119   .     S
C478   H481    1.119   .     S
H482   C474    1.089   1_554 S
H483   C534    1.117   1_655 S
C485   C487    1.477   1_545 S
C485   N490    1.306   .     D
C485   H493    1.089   1_556 S
C486   C159    1.557   1_556 S
C486   N490    1.475   .     S
C486   C552    1.561   1_556 S
C487   C389    1.410   1_565 D
C487   C485    1.477   1_565 S
C487   C301    1.407   1_556 S
C488   C366    1.407   1_655 S
C488   C344    1.410   1_655 D
C489   H491    1.119   .     S
C489   H492    1.119   .     S
H493   C485    1.089   1_554 S
H494   C534    1.117   .     S
C496   C498    1.477   .     S
C496   N501    1.306   .     D
C496   H504    1.089   .     S
C497   N501    1.475   .     S
C497   C550    1.561   .     S
C500   H502    1.119   .     S
C500   H503    1.119   .     S
H505   C536    1.117   .     S
C507   C509    1.477   .     S
C507   N512    1.306   .     D
C507   H515    1.089   1_554 S
C508   C137    1.557   1_554 S
C508   N512    1.475   .     S
C508   C551    1.561   .     S
C509   C345    1.407   1_554 S
C511   H513    1.119   .     S
C511   H514    1.119   .     S
H515   C507    1.089   1_556 S
H516   C533    1.117   .     S
C518   C520    1.477   1_565 S
C518   N523    1.306   .     D
C518   H526    1.089   .     S
C519   N523    1.475   .     S
C519   C549    1.561   .     S
C520   C518    1.477   1_545 S
C520   C400    1.410   1_545 D
C521   C421    1.407   1_655 S
C521   C289    1.410   1_655 D
C522   H524    1.119   .     S
C522   H525    1.119   .     S
H527   C535    1.117   .     S
C530   C2      1.561   1_554 S
C530   H307    1.117   1_554 S
C531   H274    1.117   1_554 S
C531   C35     1.561   1_554 S
C534   C90     1.561   1_455 S
C534   H483    1.117   1_455 S
C535   C123    1.561   1_455 S
C535   H450    1.117   1_455 S
C538   C178    1.561   1_545 S
C538   H395    1.117   1_545 S
C539   C211    1.561   1_545 S
C539   H362    1.117   1_545 S
C543   H76     1.117   1_545 S
C543   C299    1.561   1_545 S
C544   H43     1.117   1_545 S
C544   C310    1.561   1_545 S
C547   H252    1.117   1_455 S
C547   C387    1.561   1_455 S
C548   H219    1.117   1_455 S
C548   C398    1.561   1_455 S
C551   H164    1.117   1_554 S
C551   C475    1.561   1_554 S
C552   C486    1.561   1_554 S
C552   H131    1.117   1_554 S
