data_490
_audit_creation_date              2023-09-08
_audit_creation_method            'Materials Studio'
_symmetry_space_group_name_H-M    'P1'
_symmetry_Int_Tables_number       1
_symmetry_cell_setting            triclinic
loop_
_symmetry_equiv_pos_as_xyz
  x,y,z
_cell_length_a                    44.0018
_cell_length_b                    44.0018
_cell_length_c                    6.6472
_cell_angle_alpha                 90.0000
_cell_angle_beta                  90.0000
_cell_angle_gamma                 120.0000
loop_
_atom_site_label
_atom_site_type_symbol
_atom_site_fract_x
_atom_site_fract_y
_atom_site_fract_z
_atom_site_U_iso_or_equiv
_atom_site_adp_type
_atom_site_occupancy
C1     C     0.47098   0.50266   0.58912   0.00000  Uiso   1.00
C2     C     0.44303   0.51194   0.62820   0.00000  Uiso   1.00
C3     C     0.49798   0.53036   0.47811   0.00000  Uiso   1.00
C4     C     0.42041   0.60469   0.45909   0.00000  Uiso   1.00
C5     C     0.43149   0.63697   0.36029   0.00000  Uiso   1.00
C6     C     0.41024   0.65207   0.35540   0.00000  Uiso   1.00
C7     C     0.36588   0.60312   0.54683   0.00000  Uiso   1.00
C8     C     0.38711   0.58797   0.55231   0.00000  Uiso   1.00
C9     C     0.37701   0.63556   0.44935   0.00000  Uiso   1.00
C10    C     0.35478   0.65214   0.44755   0.00000  Uiso   1.00
C11    C     0.47288   0.47287   0.64435   0.00000  Uiso   1.00
C12    C     0.44354   0.58965   0.45914   0.00000  Uiso   1.00
C13    C     0.48777   0.55772   0.44224   0.00000  Uiso   1.00
C14    C     0.31794   0.63151   0.44573   0.00000  Uiso   1.00
C15    C     0.53009   0.49990   0.47244   0.00000  Uiso   1.00
C16    C     0.55804   0.49061   0.43336   0.00000  Uiso   1.00
C17    C     0.50309   0.47219   0.58344   0.00000  Uiso   1.00
C18    C     0.58063   0.39783   0.60254   0.00000  Uiso   1.00
C19    C     0.56955   0.36556   0.70127   0.00000  Uiso   1.00
C20    C     0.59079   0.35044   0.70616   0.00000  Uiso   1.00
C21    C     0.63517   0.39941   0.51487   0.00000  Uiso   1.00
C22    C     0.61395   0.41457   0.50938   0.00000  Uiso   1.00
C23    C     0.62404   0.36697   0.61229   0.00000  Uiso   1.00
C24    C     0.64626   0.35039   0.61411   0.00000  Uiso   1.00
C25    C     0.52820   0.52969   0.41720   0.00000  Uiso   1.00
C26    C     0.55752   0.41289   0.60246   0.00000  Uiso   1.00
C27    C     0.51329   0.44483   0.61932   0.00000  Uiso   1.00
C28    C     0.68310   0.37105   0.61589   0.00000  Uiso   1.00
N29    N     0.45480   0.54508   0.53652   0.00000  Uiso   1.00
N30    N     0.43336   0.55928   0.54140   0.00000  Uiso   1.00
N31    N     0.54628   0.45748   0.52506   0.00000  Uiso   1.00
N32    N     0.56771   0.44326   0.52020   0.00000  Uiso   1.00
O33    O     0.49678   0.41737   0.71198   0.00000  Uiso   1.00
O34    O     0.41561   0.49550   0.71976   0.00000  Uiso   1.00
O35    O     0.50428   0.58517   0.34959   0.00000  Uiso   1.00
O36    O     0.58547   0.50705   0.34181   0.00000  Uiso   1.00
H37    H     0.45679   0.65041   0.28566   0.00000  Uiso   1.00
H38    H     0.41978   0.67649   0.27476   0.00000  Uiso   1.00
H39    H     0.34093   0.58970   0.62376   0.00000  Uiso   1.00
H40    H     0.37786   0.56314   0.62945   0.00000  Uiso   1.00
H41    H     0.45217   0.45152   0.72957   0.00000  Uiso   1.00
H42    H     0.46865   0.60539   0.39021   0.00000  Uiso   1.00
H43    H     0.30635   0.60334   0.44679   0.00000  Uiso   1.00
H44    H     0.54427   0.35215   0.77617   0.00000  Uiso   1.00
H45    H     0.58140   0.32618   0.78848   0.00000  Uiso   1.00
H46    H     0.66023   0.41291   0.43919   0.00000  Uiso   1.00
H47    H     0.62323   0.43943   0.43251   0.00000  Uiso   1.00
H48    H     0.54891   0.55104   0.33199   0.00000  Uiso   1.00
H49    H     0.53241   0.39716   0.67135   0.00000  Uiso   1.00
H50    H     0.69554   0.39930   0.61456   0.00000  Uiso   1.00
C51    C     0.13765   0.83599   0.92245   0.00000  Uiso   1.00
C52    C     0.10970   0.84527   0.96153   0.00000  Uiso   1.00
C53    C     0.16465   0.86369   0.81144   0.00000  Uiso   1.00
C54    C     0.08708   0.93802   0.79242   0.00000  Uiso   1.00
C55    C     0.09816   0.97030   0.69362   0.00000  Uiso   1.00
C56    C     0.07691   0.98540   0.68873   0.00000  Uiso   1.00
C57    C     0.03255   0.93645   0.88016   0.00000  Uiso   1.00
C58    C     0.05378   0.92130   0.88564   0.00000  Uiso   1.00
C59    C     0.04368   0.96889   0.78268   0.00000  Uiso   1.00
C60    C     0.02145   0.98547   0.78088   0.00000  Uiso   1.00
C61    C     0.13955   0.80620   0.97768   0.00000  Uiso   1.00
C62    C     0.11021   0.92298   0.79247   0.00000  Uiso   1.00
C63    C     0.15444   0.89105   0.77557   0.00000  Uiso   1.00
C64    C     0.98461   0.96484   0.77906   0.00000  Uiso   1.00
C65    C     0.19676   0.83323   0.80577   0.00000  Uiso   1.00
C66    C     0.22471   0.82394   0.76669   0.00000  Uiso   1.00
C67    C     0.16976   0.80552   0.91677   0.00000  Uiso   1.00
C68    C     0.24730   0.73116   0.93587   0.00000  Uiso   1.00
C69    C     0.23622   0.69889   1.03460   0.00000  Uiso   1.00
C70    C     0.25746   0.68377   1.03949   0.00000  Uiso   1.00
C71    C     0.30184   0.73274   0.84820   0.00000  Uiso   1.00
C72    C     0.28062   0.74790   0.84271   0.00000  Uiso   1.00
C73    C     0.29071   0.70030   0.94562   0.00000  Uiso   1.00
C74    C     0.31293   0.68372   0.94744   0.00000  Uiso   1.00
C75    C     0.19487   0.86302   0.75053   0.00000  Uiso   1.00
C76    C     0.22419   0.74622   0.93579   0.00000  Uiso   1.00
C77    C     0.17996   0.77816   0.95265   0.00000  Uiso   1.00
C78    C     0.34977   0.70438   0.94922   0.00000  Uiso   1.00
N79    N     0.12147   0.87841   0.86985   0.00000  Uiso   1.00
N80    N     0.10003   0.89261   0.87473   0.00000  Uiso   1.00
N81    N     0.21295   0.79081   0.85839   0.00000  Uiso   1.00
N82    N     0.23438   0.77659   0.85353   0.00000  Uiso   1.00
O83    O     0.16345   0.75070   1.04531   0.00000  Uiso   1.00
O84    O     0.08228   0.82883   1.05309   0.00000  Uiso   1.00
O85    O     0.17095   0.91850   0.68292   0.00000  Uiso   1.00
O86    O     0.25214   0.84038   0.67514   0.00000  Uiso   1.00
H87    H     0.12346   0.98375   0.61899   0.00000  Uiso   1.00
H88    H     0.08645   0.00983   0.60810   0.00000  Uiso   1.00
H89    H     0.00759   0.92303   0.95709   0.00000  Uiso   1.00
H90    H     0.04452   0.89648   0.96278   0.00000  Uiso   1.00
H91    H     0.11884   0.78486   1.06290   0.00000  Uiso   1.00
H92    H     0.13532   0.93872   0.72355   0.00000  Uiso   1.00
H93    H     0.97301   0.93667   0.78012   0.00000  Uiso   1.00
H94    H     0.21094   0.68549   1.10951   0.00000  Uiso   1.00
H95    H     0.24807   0.65951   1.12181   0.00000  Uiso   1.00
H96    H     0.32689   0.74625   0.77252   0.00000  Uiso   1.00
H97    H     0.28990   0.77276   0.76585   0.00000  Uiso   1.00
H98    H     0.21558   0.88438   0.66533   0.00000  Uiso   1.00
H99    H     0.19907   0.73049   1.00468   0.00000  Uiso   1.00
H100   H     0.36221   0.73263   0.94790   0.00000  Uiso   1.00
C101   C     0.80431   0.16933   0.25579   0.00000  Uiso   1.00
C102   C     0.77636   0.17861   0.29487   0.00000  Uiso   1.00
C103   C     0.83131   0.19703   0.14478   0.00000  Uiso   1.00
C104   C     0.75374   0.27136   0.12576   0.00000  Uiso   1.00
C105   C     0.76482   0.30364   0.02696   0.00000  Uiso   1.00
C106   C     0.74357   0.31874   0.02207   0.00000  Uiso   1.00
C107   C     0.69921   0.26979   0.21350   0.00000  Uiso   1.00
C108   C     0.72044   0.25464   0.21898   0.00000  Uiso   1.00
C109   C     0.71034   0.30223   0.11602   0.00000  Uiso   1.00
C110   C     0.68811   0.31881   0.11422   0.00000  Uiso   1.00
C111   C     0.80621   0.13954   0.31102   0.00000  Uiso   1.00
C112   C     0.77687   0.25632   0.12581   0.00000  Uiso   1.00
C113   C     0.82110   0.22439   0.10891   0.00000  Uiso   1.00
C114   C     0.65127   0.29818   0.11240   0.00000  Uiso   1.00
C115   C     0.86342   0.16657   0.13911   0.00000  Uiso   1.00
C116   C     0.89137   0.15728   0.10003   0.00000  Uiso   1.00
C117   C     0.83642   0.13886   0.25011   0.00000  Uiso   1.00
C118   C     0.91396   0.06450   0.26921   0.00000  Uiso   1.00
C119   C     0.90288   0.03223   0.36794   0.00000  Uiso   1.00
C120   C     0.92412   0.01711   0.37283   0.00000  Uiso   1.00
C121   C     0.96850   0.06608   0.18154   0.00000  Uiso   1.00
C122   C     0.94728   0.08124   0.17605   0.00000  Uiso   1.00
C123   C     0.95737   0.03364   0.27896   0.00000  Uiso   1.00
C124   C     0.97959   0.01706   0.28078   0.00000  Uiso   1.00
C125   C     0.86153   0.19636   0.08387   0.00000  Uiso   1.00
C126   C     0.89085   0.07956   0.26913   0.00000  Uiso   1.00
C127   C     0.84662   0.11150   0.28599   0.00000  Uiso   1.00
C128   C     0.01643   0.03772   0.28256   0.00000  Uiso   1.00
N129   N     0.78813   0.21175   0.20319   0.00000  Uiso   1.00
N130   N     0.76669   0.22595   0.20807   0.00000  Uiso   1.00
N131   N     0.87961   0.12415   0.19173   0.00000  Uiso   1.00
N132   N     0.90104   0.10993   0.18687   0.00000  Uiso   1.00
O133   O     0.83011   0.08404   0.37865   0.00000  Uiso   1.00
O134   O     0.74894   0.16217   0.38643   0.00000  Uiso   1.00
O135   O     0.83761   0.25184   0.01626   0.00000  Uiso   1.00
O136   O     0.91880   0.17372   0.00848   0.00000  Uiso   1.00
H137   H     0.79013   0.31708  -0.04767   0.00000  Uiso   1.00
H138   H     0.75311   0.34316  -0.05857   0.00000  Uiso   1.00
H139   H     0.67426   0.25637   0.29042   0.00000  Uiso   1.00
H140   H     0.71119   0.22981   0.29611   0.00000  Uiso   1.00
H141   H     0.78550   0.11819   0.39624   0.00000  Uiso   1.00
H142   H     0.80199   0.27205   0.05688   0.00000  Uiso   1.00
H143   H     0.63968   0.27001   0.11346   0.00000  Uiso   1.00
H144   H     0.87760   0.01882   0.44284   0.00000  Uiso   1.00
H145   H     0.91473   0.99284   0.45514   0.00000  Uiso   1.00
H146   H     0.99356   0.07958   0.10586   0.00000  Uiso   1.00
H147   H     0.95657   0.10609   0.09918   0.00000  Uiso   1.00
H148   H     0.88224   0.21771  -0.00134   0.00000  Uiso   1.00
H149   H     0.86574   0.06383   0.33802   0.00000  Uiso   1.00
H150   H     0.02888   0.06596   0.28123   0.00000  Uiso   1.00
C151   C     0.49734   0.96832   0.58912   0.00000  Uiso   1.00
C152   C     0.48806   0.93109   0.62820   0.00000  Uiso   1.00
C153   C     0.46964   0.96762   0.47811   0.00000  Uiso   1.00
C154   C     0.39531   0.81572   0.45909   0.00000  Uiso   1.00
C155   C     0.36303   0.79452   0.36029   0.00000  Uiso   1.00
C156   C     0.34793   0.75817   0.35540   0.00000  Uiso   1.00
C157   C     0.39688   0.76276   0.54683   0.00000  Uiso   1.00
C158   C     0.41203   0.79914   0.55231   0.00000  Uiso   1.00
C159   C     0.36444   0.74145   0.44935   0.00000  Uiso   1.00
C160   C     0.34786   0.70264   0.44755   0.00000  Uiso   1.00
C161   C     0.52713   0.00001   0.64435   0.00000  Uiso   1.00
C162   C     0.41035   0.85389   0.45914   0.00000  Uiso   1.00
C163   C     0.44228   0.93005   0.44224   0.00000  Uiso   1.00
C164   C     0.36849   0.68643   0.44573   0.00000  Uiso   1.00
C165   C     0.50010   0.03019   0.47244   0.00000  Uiso   1.00
C166   C     0.50939   0.06743   0.43336   0.00000  Uiso   1.00
C167   C     0.52781   0.03090   0.58344   0.00000  Uiso   1.00
C168   C     0.60217   0.18280   0.60254   0.00000  Uiso   1.00
C169   C     0.63444   0.20399   0.70127   0.00000  Uiso   1.00
C170   C     0.64956   0.24035   0.70616   0.00000  Uiso   1.00
C171   C     0.60059   0.23576   0.51487   0.00000  Uiso   1.00
C172   C     0.58543   0.19938   0.50938   0.00000  Uiso   1.00
C173   C     0.63303   0.25707   0.61229   0.00000  Uiso   1.00
C174   C     0.64961   0.29587   0.61411   0.00000  Uiso   1.00
C175   C     0.47031   0.99851   0.41720   0.00000  Uiso   1.00
C176   C     0.58711   0.14463   0.60246   0.00000  Uiso   1.00
C177   C     0.55517   0.06846   0.61932   0.00000  Uiso   1.00
C178   C     0.62895   0.31205   0.61589   0.00000  Uiso   1.00
N179   N     0.45492   0.90972   0.53652   0.00000  Uiso   1.00
N180   N     0.44072   0.87408   0.54140   0.00000  Uiso   1.00
N181   N     0.54252   0.08880   0.52506   0.00000  Uiso   1.00
N182   N     0.55674   0.12445   0.52020   0.00000  Uiso   1.00
O183   O     0.58263   0.07941   0.71198   0.00000  Uiso   1.00
O184   O     0.50450   0.92011   0.71976   0.00000  Uiso   1.00
O185   O     0.41483   0.91911   0.34959   0.00000  Uiso   1.00
O186   O     0.49295   0.07842   0.34181   0.00000  Uiso   1.00
H187   H     0.34959   0.80638   0.28566   0.00000  Uiso   1.00
H188   H     0.32351   0.74329   0.27476   0.00000  Uiso   1.00
H189   H     0.41030   0.75123   0.62376   0.00000  Uiso   1.00
H190   H     0.43686   0.81471   0.62945   0.00000  Uiso   1.00
H191   H     0.54848   0.00065   0.72957   0.00000  Uiso   1.00
H192   H     0.39461   0.86327   0.39021   0.00000  Uiso   1.00
H193   H     0.39666   0.70301   0.44679   0.00000  Uiso   1.00
H194   H     0.64785   0.19212   0.77617   0.00000  Uiso   1.00
H195   H     0.67383   0.25523   0.78848   0.00000  Uiso   1.00
H196   H     0.58709   0.24731   0.43919   0.00000  Uiso   1.00
H197   H     0.56058   0.18381   0.43251   0.00000  Uiso   1.00
H198   H     0.44896   0.99787   0.33199   0.00000  Uiso   1.00
H199   H     0.60284   0.13525   0.67135   0.00000  Uiso   1.00
H200   H     0.60070   0.29625   0.61456   0.00000  Uiso   1.00
C201   C     0.16401   0.30165   0.92245   0.00000  Uiso   1.00
C202   C     0.15473   0.26442   0.96153   0.00000  Uiso   1.00
C203   C     0.13631   0.30095   0.81144   0.00000  Uiso   1.00
C204   C     0.06198   0.14905   0.79242   0.00000  Uiso   1.00
C205   C     0.02970   0.12785   0.69362   0.00000  Uiso   1.00
C206   C     0.01460   0.09150   0.68873   0.00000  Uiso   1.00
C207   C     0.06355   0.09609   0.88016   0.00000  Uiso   1.00
C208   C     0.07870   0.13247   0.88564   0.00000  Uiso   1.00
C209   C     0.03111   0.07478   0.78268   0.00000  Uiso   1.00
C210   C     0.01453   0.03597   0.78088   0.00000  Uiso   1.00
C211   C     0.19380   0.33334   0.97768   0.00000  Uiso   1.00
C212   C     0.07702   0.18722   0.79247   0.00000  Uiso   1.00
C213   C     0.10895   0.26338   0.77557   0.00000  Uiso   1.00
C214   C     0.03516   0.01976   0.77906   0.00000  Uiso   1.00
C215   C     0.16677   0.36352   0.80577   0.00000  Uiso   1.00
C216   C     0.17606   0.40076   0.76669   0.00000  Uiso   1.00
C217   C     0.19448   0.36423   0.91677   0.00000  Uiso   1.00
C218   C     0.26884   0.51613   0.93587   0.00000  Uiso   1.00
C219   C     0.30111   0.53732   1.03460   0.00000  Uiso   1.00
C220   C     0.31623   0.57368   1.03949   0.00000  Uiso   1.00
C221   C     0.26726   0.56909   0.84820   0.00000  Uiso   1.00
C222   C     0.25210   0.53271   0.84271   0.00000  Uiso   1.00
C223   C     0.29970   0.59040   0.94562   0.00000  Uiso   1.00
C224   C     0.31628   0.62920   0.94744   0.00000  Uiso   1.00
C225   C     0.13698   0.33184   0.75053   0.00000  Uiso   1.00
C226   C     0.25378   0.47796   0.93579   0.00000  Uiso   1.00
C227   C     0.22184   0.40179   0.95265   0.00000  Uiso   1.00
C228   C     0.29562   0.64538   0.94922   0.00000  Uiso   1.00
N229   N     0.12159   0.24305   0.86985   0.00000  Uiso   1.00
N230   N     0.10739   0.20741   0.87473   0.00000  Uiso   1.00
N231   N     0.20919   0.42213   0.85839   0.00000  Uiso   1.00
N232   N     0.22341   0.45778   0.85353   0.00000  Uiso   1.00
O233   O     0.24930   0.41274   1.04531   0.00000  Uiso   1.00
O234   O     0.17117   0.25344   1.05309   0.00000  Uiso   1.00
O235   O     0.08150   0.25244   0.68292   0.00000  Uiso   1.00
O236   O     0.15962   0.41175   0.67514   0.00000  Uiso   1.00
H237   H     0.01626   0.13972   0.61899   0.00000  Uiso   1.00
H238   H     0.99017   0.07662   0.60810   0.00000  Uiso   1.00
H239   H     0.07697   0.08456   0.95709   0.00000  Uiso   1.00
H240   H     0.10352   0.14805   0.96278   0.00000  Uiso   1.00
H241   H     0.21515   0.33398   1.06290   0.00000  Uiso   1.00
H242   H     0.06128   0.19660   0.72355   0.00000  Uiso   1.00
H243   H     0.06333   0.03634   0.78012   0.00000  Uiso   1.00
H244   H     0.31451   0.52545   1.10951   0.00000  Uiso   1.00
H245   H     0.34049   0.58856   1.12181   0.00000  Uiso   1.00
H246   H     0.25375   0.58065   0.77252   0.00000  Uiso   1.00
H247   H     0.22724   0.51714   0.76585   0.00000  Uiso   1.00
H248   H     0.11563   0.33120   0.66533   0.00000  Uiso   1.00
H249   H     0.26951   0.46858   1.00468   0.00000  Uiso   1.00
H250   H     0.26737   0.62958   0.94790   0.00000  Uiso   1.00
C251   C     0.83067   0.63499   0.25579   0.00000  Uiso   1.00
C252   C     0.82139   0.59776   0.29487   0.00000  Uiso   1.00
C253   C     0.80297   0.63429   0.14478   0.00000  Uiso   1.00
C254   C     0.72864   0.48239   0.12576   0.00000  Uiso   1.00
C255   C     0.69636   0.46119   0.02696   0.00000  Uiso   1.00
C256   C     0.68126   0.42484   0.02207   0.00000  Uiso   1.00
C257   C     0.73021   0.42943   0.21350   0.00000  Uiso   1.00
C258   C     0.74536   0.46581   0.21898   0.00000  Uiso   1.00
C259   C     0.69777   0.40812   0.11602   0.00000  Uiso   1.00
C260   C     0.68119   0.36931   0.11422   0.00000  Uiso   1.00
C261   C     0.86046   0.66668   0.31102   0.00000  Uiso   1.00
C262   C     0.74368   0.52056   0.12581   0.00000  Uiso   1.00
C263   C     0.77561   0.59672   0.10891   0.00000  Uiso   1.00
C264   C     0.70182   0.35310   0.11240   0.00000  Uiso   1.00
C265   C     0.83343   0.69686   0.13911   0.00000  Uiso   1.00
C266   C     0.84272   0.73410   0.10003   0.00000  Uiso   1.00
C267   C     0.86114   0.69757   0.25011   0.00000  Uiso   1.00
C268   C     0.93550   0.84947   0.26921   0.00000  Uiso   1.00
C269   C     0.96777   0.87066   0.36794   0.00000  Uiso   1.00
C270   C     0.98289   0.90702   0.37283   0.00000  Uiso   1.00
C271   C     0.93392   0.90243   0.18154   0.00000  Uiso   1.00
C272   C     0.91876   0.86605   0.17605   0.00000  Uiso   1.00
C273   C     0.96636   0.92374   0.27896   0.00000  Uiso   1.00
C274   C     0.98294   0.96254   0.28078   0.00000  Uiso   1.00
C275   C     0.80364   0.66518   0.08387   0.00000  Uiso   1.00
C276   C     0.92044   0.81130   0.26913   0.00000  Uiso   1.00
C277   C     0.88850   0.73513   0.28599   0.00000  Uiso   1.00
C278   C     0.96228   0.97872   0.28256   0.00000  Uiso   1.00
N279   N     0.78825   0.57639   0.20319   0.00000  Uiso   1.00
N280   N     0.77405   0.54075   0.20807   0.00000  Uiso   1.00
N281   N     0.87585   0.75547   0.19173   0.00000  Uiso   1.00
N282   N     0.89007   0.79112   0.18687   0.00000  Uiso   1.00
O283   O     0.91596   0.74608   0.37865   0.00000  Uiso   1.00
O284   O     0.83783   0.58678   0.38643   0.00000  Uiso   1.00
O285   O     0.74816   0.58578   0.01626   0.00000  Uiso   1.00
O286   O     0.82628   0.74509   0.00848   0.00000  Uiso   1.00
H287   H     0.68292   0.47305  -0.04767   0.00000  Uiso   1.00
H288   H     0.65684   0.40995  -0.05857   0.00000  Uiso   1.00
H289   H     0.74363   0.41789   0.29042   0.00000  Uiso   1.00
H290   H     0.77019   0.48138   0.29611   0.00000  Uiso   1.00
H291   H     0.88181   0.66732   0.39624   0.00000  Uiso   1.00
H292   H     0.72795   0.52993   0.05688   0.00000  Uiso   1.00
H293   H     0.72999   0.36967   0.11346   0.00000  Uiso   1.00
H294   H     0.98118   0.85878   0.44284   0.00000  Uiso   1.00
H295   H     0.00716   0.92189   0.45514   0.00000  Uiso   1.00
H296   H     0.92042   0.91398   0.10586   0.00000  Uiso   1.00
H297   H     0.89391   0.85048   0.09918   0.00000  Uiso   1.00
H298   H     0.78229   0.66454  -0.00134   0.00000  Uiso   1.00
H299   H     0.93618   0.80192   0.33802   0.00000  Uiso   1.00
H300   H     0.93404   0.96291   0.28123   0.00000  Uiso   1.00
C301   C     0.03168   0.52902   0.58912   0.00000  Uiso   1.00
C302   C     0.06891   0.55697   0.62820   0.00000  Uiso   1.00
C303   C     0.03238   0.50202   0.47811   0.00000  Uiso   1.00
C304   C     0.18428   0.57959   0.45909   0.00000  Uiso   1.00
C305   C     0.20548   0.56851   0.36029   0.00000  Uiso   1.00
C306   C     0.24183   0.58976   0.35540   0.00000  Uiso   1.00
C307   C     0.23724   0.63412   0.54683   0.00000  Uiso   1.00
C308   C     0.20086   0.61289   0.55231   0.00000  Uiso   1.00
C309   C     0.25855   0.62299   0.44935   0.00000  Uiso   1.00
C310   C     0.29736   0.64522   0.44755   0.00000  Uiso   1.00
C311   C     0.99999   0.52712   0.64435   0.00000  Uiso   1.00
C312   C     0.14611   0.55646   0.45914   0.00000  Uiso   1.00
C313   C     0.06995   0.51223   0.44224   0.00000  Uiso   1.00
C314   C     0.31357   0.68206   0.44573   0.00000  Uiso   1.00
C315   C     0.96981   0.46991   0.47244   0.00000  Uiso   1.00
C316   C     0.93257   0.44196   0.43336   0.00000  Uiso   1.00
C317   C     0.96910   0.49691   0.58344   0.00000  Uiso   1.00
C318   C     0.81720   0.41937   0.60254   0.00000  Uiso   1.00
C319   C     0.79601   0.43045   0.70127   0.00000  Uiso   1.00
C320   C     0.75965   0.40921   0.70616   0.00000  Uiso   1.00
C321   C     0.76424   0.36483   0.51487   0.00000  Uiso   1.00
C322   C     0.80062   0.38605   0.50938   0.00000  Uiso   1.00
C323   C     0.74293   0.37596   0.61229   0.00000  Uiso   1.00
C324   C     0.70413   0.35374   0.61411   0.00000  Uiso   1.00
C325   C     0.00149   0.47180   0.41720   0.00000  Uiso   1.00
C326   C     0.85537   0.44248   0.60246   0.00000  Uiso   1.00
C327   C     0.93154   0.48671   0.61932   0.00000  Uiso   1.00
C328   C     0.68795   0.31690   0.61589   0.00000  Uiso   1.00
N329   N     0.09028   0.54520   0.53652   0.00000  Uiso   1.00
N330   N     0.12592   0.56664   0.54140   0.00000  Uiso   1.00
N331   N     0.91120   0.45372   0.52506   0.00000  Uiso   1.00
N332   N     0.87555   0.43229   0.52020   0.00000  Uiso   1.00
O333   O     0.92059   0.50322   0.71198   0.00000  Uiso   1.00
O334   O     0.07989   0.58439   0.71976   0.00000  Uiso   1.00
O335   O     0.08089   0.49572   0.34959   0.00000  Uiso   1.00
O336   O     0.92158   0.41453   0.34181   0.00000  Uiso   1.00
H337   H     0.19362   0.54321   0.28566   0.00000  Uiso   1.00
H338   H     0.25672   0.58022   0.27476   0.00000  Uiso   1.00
H339   H     0.24877   0.65907   0.62376   0.00000  Uiso   1.00
H340   H     0.18529   0.62214   0.62945   0.00000  Uiso   1.00
H341   H     0.99935   0.54783   0.72957   0.00000  Uiso   1.00
H342   H     0.13674   0.53135   0.39021   0.00000  Uiso   1.00
H343   H     0.29699   0.69365   0.44679   0.00000  Uiso   1.00
H344   H     0.80789   0.45573   0.77617   0.00000  Uiso   1.00
H345   H     0.74478   0.41860   0.78848   0.00000  Uiso   1.00
H346   H     0.75269   0.33978   0.43919   0.00000  Uiso   1.00
H347   H     0.81619   0.37677   0.43251   0.00000  Uiso   1.00
H348   H     0.00213   0.45109   0.33199   0.00000  Uiso   1.00
H349   H     0.86475   0.46759   0.67135   0.00000  Uiso   1.00
H350   H     0.70375   0.30446   0.61456   0.00000  Uiso   1.00
C351   C     0.69835   0.86235   0.92245   0.00000  Uiso   1.00
C352   C     0.73558   0.89030   0.96153   0.00000  Uiso   1.00
C353   C     0.69905   0.83535   0.81144   0.00000  Uiso   1.00
C354   C     0.85095   0.91292   0.79242   0.00000  Uiso   1.00
C355   C     0.87215   0.90184   0.69362   0.00000  Uiso   1.00
C356   C     0.90850   0.92309   0.68873   0.00000  Uiso   1.00
C357   C     0.90391   0.96745   0.88016   0.00000  Uiso   1.00
C358   C     0.86753   0.94622   0.88564   0.00000  Uiso   1.00
C359   C     0.92522   0.95632   0.78268   0.00000  Uiso   1.00
C360   C     0.96403   0.97855   0.78088   0.00000  Uiso   1.00
C361   C     0.66666   0.86045   0.97768   0.00000  Uiso   1.00
C362   C     0.81278   0.88979   0.79247   0.00000  Uiso   1.00
C363   C     0.73662   0.84556   0.77557   0.00000  Uiso   1.00
C364   C     0.98024   0.01539   0.77906   0.00000  Uiso   1.00
C365   C     0.63648   0.80324   0.80577   0.00000  Uiso   1.00
C366   C     0.59924   0.77529   0.76669   0.00000  Uiso   1.00
C367   C     0.63577   0.83024   0.91677   0.00000  Uiso   1.00
C368   C     0.48387   0.75270   0.93587   0.00000  Uiso   1.00
C369   C     0.46268   0.76378   1.03460   0.00000  Uiso   1.00
C370   C     0.42632   0.74254   1.03949   0.00000  Uiso   1.00
C371   C     0.43091   0.69816   0.84820   0.00000  Uiso   1.00
C372   C     0.46729   0.71938   0.84271   0.00000  Uiso   1.00
C373   C     0.40960   0.70929   0.94562   0.00000  Uiso   1.00
C374   C     0.37080   0.68707   0.94744   0.00000  Uiso   1.00
C375   C     0.66816   0.80513   0.75053   0.00000  Uiso   1.00
C376   C     0.52204   0.77581   0.93579   0.00000  Uiso   1.00
C377   C     0.59821   0.82004   0.95265   0.00000  Uiso   1.00
C378   C     0.35462   0.65023   0.94922   0.00000  Uiso   1.00
N379   N     0.75695   0.87853   0.86985   0.00000  Uiso   1.00
N380   N     0.79259   0.89997   0.87473   0.00000  Uiso   1.00
N381   N     0.57787   0.78705   0.85839   0.00000  Uiso   1.00
N382   N     0.54222   0.76562   0.85353   0.00000  Uiso   1.00
O383   O     0.58726   0.83655   1.04531   0.00000  Uiso   1.00
O384   O     0.74656   0.91772   1.05309   0.00000  Uiso   1.00
O385   O     0.74756   0.82905   0.68292   0.00000  Uiso   1.00
O386   O     0.58825   0.74786   0.67514   0.00000  Uiso   1.00
H387   H     0.86028   0.87654   0.61899   0.00000  Uiso   1.00
H388   H     0.92338   0.91355   0.60810   0.00000  Uiso   1.00
H389   H     0.91544   0.99241   0.95709   0.00000  Uiso   1.00
H390   H     0.85195   0.95548   0.96278   0.00000  Uiso   1.00
H391   H     0.66602   0.88116   1.06290   0.00000  Uiso   1.00
H392   H     0.80340   0.86468   0.72355   0.00000  Uiso   1.00
H393   H     0.96366   0.02699   0.78012   0.00000  Uiso   1.00
H394   H     0.47455   0.78906   1.10951   0.00000  Uiso   1.00
H395   H     0.41144   0.75193   1.12181   0.00000  Uiso   1.00
H396   H     0.41935   0.67311   0.77252   0.00000  Uiso   1.00
H397   H     0.48286   0.71010   0.76585   0.00000  Uiso   1.00
H398   H     0.66880   0.78442   0.66533   0.00000  Uiso   1.00
H399   H     0.53142   0.80093   1.00468   0.00000  Uiso   1.00
H400   H     0.37042   0.63779   0.94790   0.00000  Uiso   1.00
C401   C     0.36501   0.19569   0.25579   0.00000  Uiso   1.00
C402   C     0.40224   0.22364   0.29487   0.00000  Uiso   1.00
C403   C     0.36571   0.16869   0.14478   0.00000  Uiso   1.00
C404   C     0.51761   0.24626   0.12576   0.00000  Uiso   1.00
C405   C     0.53881   0.23518   0.02696   0.00000  Uiso   1.00
C406   C     0.57516   0.25643   0.02207   0.00000  Uiso   1.00
C407   C     0.57057   0.30079   0.21350   0.00000  Uiso   1.00
C408   C     0.53419   0.27956   0.21898   0.00000  Uiso   1.00
C409   C     0.59188   0.28966   0.11602   0.00000  Uiso   1.00
C410   C     0.63069   0.31189   0.11422   0.00000  Uiso   1.00
C411   C     0.33332   0.19379   0.31102   0.00000  Uiso   1.00
C412   C     0.47944   0.22313   0.12581   0.00000  Uiso   1.00
C413   C     0.40328   0.17890   0.10891   0.00000  Uiso   1.00
C414   C     0.64690   0.34873   0.11240   0.00000  Uiso   1.00
C415   C     0.30314   0.13658   0.13911   0.00000  Uiso   1.00
C416   C     0.26590   0.10863   0.10003   0.00000  Uiso   1.00
C417   C     0.30243   0.16358   0.25011   0.00000  Uiso   1.00
C418   C     0.15053   0.08604   0.26921   0.00000  Uiso   1.00
C419   C     0.12934   0.09712   0.36794   0.00000  Uiso   1.00
C420   C     0.09298   0.07588   0.37283   0.00000  Uiso   1.00
C421   C     0.09757   0.03150   0.18154   0.00000  Uiso   1.00
C422   C     0.13395   0.05272   0.17605   0.00000  Uiso   1.00
C423   C     0.07626   0.04263   0.27896   0.00000  Uiso   1.00
C424   C     0.03746   0.02041   0.28078   0.00000  Uiso   1.00
C425   C     0.33482   0.13847   0.08387   0.00000  Uiso   1.00
C426   C     0.18870   0.10915   0.26913   0.00000  Uiso   1.00
C427   C     0.26487   0.15338   0.28599   0.00000  Uiso   1.00
C428   C     0.02128   0.98357   0.28256   0.00000  Uiso   1.00
N429   N     0.42361   0.21187   0.20319   0.00000  Uiso   1.00
N430   N     0.45925   0.23331   0.20807   0.00000  Uiso   1.00
N431   N     0.24453   0.12039   0.19173   0.00000  Uiso   1.00
N432   N     0.20888   0.09896   0.18687   0.00000  Uiso   1.00
O433   O     0.25392   0.16989   0.37865   0.00000  Uiso   1.00
O434   O     0.41322   0.25106   0.38643   0.00000  Uiso   1.00
O435   O     0.41422   0.16239   0.01626   0.00000  Uiso   1.00
O436   O     0.25491   0.08120   0.00848   0.00000  Uiso   1.00
H437   H     0.52695   0.20987  -0.04767   0.00000  Uiso   1.00
H438   H     0.59005   0.24689  -0.05857   0.00000  Uiso   1.00
H439   H     0.58211   0.32574   0.29042   0.00000  Uiso   1.00
H440   H     0.51862   0.28881   0.29611   0.00000  Uiso   1.00
H441   H     0.33269   0.21450   0.39624   0.00000  Uiso   1.00
H442   H     0.47007   0.19802   0.05688   0.00000  Uiso   1.00
H443   H     0.63033   0.36032   0.11346   0.00000  Uiso   1.00
H444   H     0.14122   0.12240   0.44284   0.00000  Uiso   1.00
H445   H     0.07811   0.08527   0.45514   0.00000  Uiso   1.00
H446   H     0.08602   0.00644   0.10586   0.00000  Uiso   1.00
H447   H     0.14953   0.04343   0.09918   0.00000  Uiso   1.00
H448   H     0.33547   0.11776  -0.00134   0.00000  Uiso   1.00
H449   H     0.19809   0.13426   0.33802   0.00000  Uiso   1.00
H450   H     0.03709   0.97112   0.28123   0.00000  Uiso   1.00
loop_
_geom_bond_atom_site_label_1
_geom_bond_atom_site_label_2
_geom_bond_distance
_geom_bond_site_symmetry_2
_ccdc_geom_bond_type
C1     C2      1.500   .     S
C1     C3      1.412   .     D
C1     C11     1.403   .     S
C2     N29     1.418   .     S
C2     O34     1.215   .     D
C3     C13     1.500   .     S
C3     C25     1.404   .     S
C4     C5      1.412   .     S
C4     C8      1.412   .     D
C4     C12     1.465   .     S
C5     C6      1.392   .     D
C5     H37     1.085   .     S
C6     C9      1.412   .     S
C6     H38     1.080   .     S
C7     C8      1.393   .     S
C7     C9      1.414   .     D
C7     H39     1.080   .     S
C8     H40     1.085   .     S
C9     C10     1.484   .     S
C10    C14     1.407   .     S
C10    C164    1.315   .     D
C11    C17     1.404   .     D
C11    H41     1.085   .     S
C12    N30     1.299   .     D
C12    H42     1.070   .     S
C13    N29     1.414   .     S
C13    O35     1.220   .     D
C14    H43     1.079   .     S
C14    C310    1.315   .     D
C15    C16     1.500   .     S
C15    C17     1.412   .     S
C15    C25     1.403   .     D
C16    N31     1.418   .     S
C16    O36     1.215   .     D
C17    C27     1.499   .     S
C18    C19     1.412   .     S
C18    C22     1.413   .     D
C18    C26     1.465   .     S
C19    C20     1.392   .     D
C19    H44     1.085   .     S
C20    C23     1.412   .     S
C20    H45     1.081   .     S
C21    C22     1.393   .     S
C21    C23     1.413   .     D
C21    H46     1.080   .     S
C22    H47     1.085   .     S
C23    C24     1.484   .     S
C24    C28     1.407   .     S
C24    C178    1.463   .     D
C25    H48     1.085   .     S
C26    N32     1.299   .     D
C26    H49     1.070   .     S
C27    N31     1.415   .     S
C27    O33     1.220   .     D
C28    H50     1.079   .     S
C28    C324    1.463   .     D
N29    N30     1.368   .     S
N31    N32     1.368   .     S
C51    C52     1.500   .     S
C51    C53     1.412   .     S
C51    C61     1.403   .     D
C52    N79     1.418   .     S
C52    O84     1.215   .     D
C53    C63     1.500   .     S
C53    C75     1.404   .     D
C54    C55     1.412   .     S
C54    C58     1.412   .     D
C54    C62     1.465   .     S
C55    C56     1.392   .     D
C55    H87     1.085   .     S
C56    C59     1.412   .     S
C56    H88     1.080   1_565 S
C57    C58     1.393   .     S
C57    C59     1.414   .     D
C57    H89     1.080   .     S
C58    H90     1.085   .     S
C59    C60     1.484   .     S
C60    C64     1.407   1_455 S
C60    C214    1.315   1_565 D
C61    C67     1.404   .     S
C61    H91     1.085   .     S
C62    N80     1.299   .     D
C62    H92     1.070   .     S
C63    N79     1.414   .     S
C63    O85     1.220   .     D
C64    C60     1.407   1_655 S
C64    H93     1.079   .     S
C64    C360    1.315   .     D
C65    C66     1.500   .     S
C65    C67     1.412   .     D
C65    C75     1.403   .     S
C66    N81     1.418   .     S
C66    O86     1.215   .     D
C67    C77     1.499   .     S
C68    C69     1.412   .     S
C68    C72     1.413   .     D
C68    C76     1.465   .     S
C69    C70     1.392   .     D
C69    H94     1.085   .     S
C70    C73     1.412   .     S
C70    H95     1.081   .     S
C71    C72     1.393   .     S
C71    C73     1.413   .     D
C71    H96     1.080   .     S
C72    H97     1.085   .     S
C73    C74     1.484   .     S
C74    C78     1.407   .     D
C74    C228    1.463   .     S
C75    H98     1.085   .     S
C76    N82     1.299   .     D
C76    H99     1.070   .     S
C77    N81     1.415   .     S
C77    O83     1.220   .     D
C78    H100    1.079   .     S
C78    C374    1.463   .     S
N79    N80     1.368   .     S
N81    N82     1.368   .     S
H88    C56     1.080   1_545 S
C101   C102    1.500   .     S
C101   C103    1.412   .     D
C101   C111    1.403   .     S
C102   N129    1.418   .     S
C102   O134    1.215   .     D
C103   C113    1.500   .     S
C103   C125    1.404   .     S
C104   C105    1.412   .     S
C104   C108    1.412   .     D
C104   C112    1.465   .     S
C105   C106    1.392   .     D
C105   H137    1.085   .     S
C106   C109    1.412   .     S
C106   H138    1.080   .     S
C107   C108    1.393   .     S
C107   C109    1.414   .     D
C107   H139    1.080   .     S
C108   H140    1.085   .     S
C109   C110    1.484   .     S
C110   C114    1.407   .     S
C110   C264    1.315   .     D
C111   C117    1.404   .     D
C111   H141    1.085   .     S
C112   N130    1.299   .     D
C112   H142    1.070   .     S
C113   N129    1.414   .     S
C113   O135    1.220   .     D
C114   H143    1.079   .     S
C114   C410    1.315   .     D
C115   C116    1.500   .     S
C115   C117    1.412   .     S
C115   C125    1.403   .     D
C116   N131    1.418   .     S
C116   O136    1.215   .     D
C117   C127    1.499   .     S
C118   C119    1.412   .     S
C118   C122    1.413   .     D
C118   C126    1.465   .     S
C119   C120    1.392   .     D
C119   H144    1.085   .     S
C120   C123    1.412   .     S
C120   H145    1.081   1_545 S
C121   C122    1.393   .     S
C121   C123    1.413   .     D
C121   H146    1.080   .     S
C122   H147    1.085   .     S
C123   C124    1.484   .     S
C124   C128    1.407   1_655 D
C124   C278    1.463   1_545 S
C125   H148    1.085   .     S
C126   N132    1.299   .     D
C126   H149    1.070   .     S
C127   N131    1.415   .     S
C127   O133    1.220   .     D
C128   C124    1.407   1_455 D
C128   H150    1.079   .     S
C128   C424    1.463   .     S
N129   N130    1.368   .     S
N131   N132    1.368   .     S
H145   C120    1.081   1_565 S
C151   C152    1.500   .     S
C151   C153    1.412   .     D
C151   C161    1.403   1_565 S
C152   N179    1.418   .     S
C152   O184    1.215   .     D
C153   C163    1.500   .     S
C153   C175    1.404   .     S
C154   C155    1.412   .     D
C154   C158    1.412   .     S
C154   C162    1.465   .     S
C155   C156    1.392   .     S
C155   H187    1.085   .     S
C156   C159    1.412   .     D
C156   H188    1.080   .     S
C157   C158    1.393   .     D
C157   C159    1.414   .     S
C157   H189    1.080   .     S
C158   H190    1.085   .     S
C159   C160    1.484   .     S
C160   C164    1.407   .     S
C160   C314    1.315   .     D
C161   C151    1.403   1_545 S
C161   C167    1.404   .     D
C161   H191    1.085   .     S
C162   N180    1.299   .     D
C162   H192    1.070   .     S
C163   N179    1.414   .     S
C163   O185    1.220   .     D
C164   H193    1.079   .     S
C165   C166    1.500   .     S
C165   C167    1.412   .     S
C165   C175    1.403   1_545 D
C166   N181    1.418   .     S
C166   O186    1.215   .     D
C167   C177    1.499   .     S
C168   C169    1.412   .     D
C168   C172    1.413   .     S
C168   C176    1.465   .     S
C169   C170    1.392   .     S
C169   H194    1.085   .     S
C170   C173    1.412   .     D
C170   H195    1.081   .     S
C171   C172    1.393   .     D
C171   C173    1.413   .     S
C171   H196    1.080   .     S
C172   H197    1.085   .     S
C173   C174    1.484   .     S
C174   C178    1.407   .     S
C174   C328    1.463   .     D
C175   C165    1.403   1_565 D
C175   H198    1.085   .     S
C176   N182    1.299   .     D
C176   H199    1.070   .     S
C177   N181    1.415   .     S
C177   O183    1.220   .     D
C178   H200    1.079   .     S
N179   N180    1.368   .     S
N181   N182    1.368   .     S
C201   C202    1.500   .     S
C201   C203    1.412   .     S
C201   C211    1.403   .     D
C202   N229    1.418   .     S
C202   O234    1.215   .     D
C203   C213    1.500   .     S
C203   C225    1.404   .     D
C204   C205    1.412   .     D
C204   C208    1.412   .     S
C204   C212    1.465   .     S
C205   C206    1.392   .     S
C205   H237    1.085   .     S
C206   C209    1.412   .     D
C206   H238    1.080   1_455 S
C207   C208    1.393   .     D
C207   C209    1.414   .     S
C207   H239    1.080   .     S
C208   H240    1.085   .     S
C209   C210    1.484   .     S
C210   C214    1.407   .     S
C210   C364    1.315   1_455 D
C211   C217    1.404   .     S
C211   H241    1.085   .     S
C212   N230    1.299   .     D
C212   H242    1.070   .     S
C213   N229    1.414   .     S
C213   O235    1.220   .     D
C214   C60     1.315   1_545 D
C214   H243    1.079   .     S
C215   C216    1.500   .     S
C215   C217    1.412   .     D
C215   C225    1.403   .     S
C216   N231    1.418   .     S
C216   O236    1.215   .     D
C217   C227    1.499   .     S
C218   C219    1.412   .     D
C218   C222    1.413   .     S
C218   C226    1.465   .     S
C219   C220    1.392   .     S
C219   H244    1.085   .     S
C220   C223    1.412   .     D
C220   H245    1.081   .     S
C221   C222    1.393   .     D
C221   C223    1.413   .     S
C221   H246    1.080   .     S
C222   H247    1.085   .     S
C223   C224    1.484   .     S
C224   C228    1.407   .     D
C224   C378    1.463   .     S
C225   H248    1.085   .     S
C226   N232    1.299   .     D
C226   H249    1.070   .     S
C227   N231    1.415   .     S
C227   O233    1.220   .     D
C228   H250    1.079   .     S
N229   N230    1.368   .     S
N231   N232    1.368   .     S
H238   C206    1.080   1_655 S
C251   C252    1.500   .     S
C251   C253    1.412   .     D
C251   C261    1.403   .     S
C252   N279    1.418   .     S
C252   O284    1.215   .     D
C253   C263    1.500   .     S
C253   C275    1.404   .     S
C254   C255    1.412   .     S
C254   C258    1.412   .     D
C254   C262    1.465   .     S
C255   C256    1.392   .     D
C255   H287    1.085   .     S
C256   C259    1.412   .     S
C256   H288    1.080   .     S
C257   C258    1.393   .     S
C257   C259    1.414   .     D
C257   H289    1.080   .     S
C258   H290    1.085   .     S
C259   C260    1.484   .     S
C260   C264    1.407   .     S
C260   C414    1.315   .     D
C261   C267    1.404   .     D
C261   H291    1.085   .     S
C262   N280    1.299   .     D
C262   H292    1.070   .     S
C263   N279    1.414   .     S
C263   O285    1.220   .     D
C264   H293    1.079   .     S
C265   C266    1.500   .     S
C265   C267    1.412   .     S
C265   C275    1.403   .     D
C266   N281    1.418   .     S
C266   O286    1.215   .     D
C267   C277    1.499   .     S
C268   C269    1.412   .     D
C268   C272    1.413   .     S
C268   C276    1.465   .     S
C269   C270    1.392   .     S
C269   H294    1.085   .     S
C270   C273    1.412   .     D
C270   H295    1.081   1_655 S
C271   C272    1.393   .     D
C271   C273    1.413   .     S
C271   H296    1.080   .     S
C272   H297    1.085   .     S
C273   C274    1.484   .     S
C274   C278    1.407   .     D
C274   C428    1.463   1_655 S
C275   H298    1.085   .     S
C276   N282    1.299   .     D
C276   H299    1.070   .     S
C277   N281    1.415   .     S
C277   O283    1.220   .     D
C278   C124    1.463   1_565 S
C278   H300    1.079   .     S
N279   N280    1.368   .     S
N281   N282    1.368   .     S
H295   C270    1.081   1_455 S
C301   C302    1.500   .     S
C301   C303    1.412   .     S
C301   C311    1.403   1_455 D
C302   N329    1.418   .     S
C302   O334    1.215   .     D
C303   C313    1.500   .     S
C303   C325    1.404   .     D
C304   C305    1.412   .     D
C304   C308    1.412   .     S
C304   C312    1.465   .     S
C305   C306    1.392   .     S
C305   H337    1.085   .     S
C306   C309    1.412   .     D
C306   H338    1.080   .     S
C307   C308    1.393   .     D
C307   C309    1.414   .     S
C307   H339    1.080   .     S
C308   H340    1.085   .     S
C309   C310    1.484   .     S
C310   C314    1.407   .     S
C311   C301    1.403   1_655 D
C311   C317    1.404   .     S
C311   H341    1.085   .     S
C312   N330    1.299   .     D
C312   H342    1.070   .     S
C313   N329    1.414   .     S
C313   O335    1.220   .     D
C314   H343    1.079   .     S
C315   C316    1.500   .     S
C315   C317    1.412   .     D
C315   C325    1.403   1_655 S
C316   N331    1.418   .     S
C316   O336    1.215   .     D
C317   C327    1.499   .     S
C318   C319    1.412   .     D
C318   C322    1.413   .     S
C318   C326    1.465   .     S
C319   C320    1.392   .     S
C319   H344    1.085   .     S
C320   C323    1.412   .     D
C320   H345    1.081   .     S
C321   C322    1.393   .     D
C321   C323    1.413   .     S
C321   H346    1.080   .     S
C322   H347    1.085   .     S
C323   C324    1.484   .     S
C324   C328    1.407   .     S
C325   C315    1.403   1_455 S
C325   H348    1.085   .     S
C326   N332    1.299   .     D
C326   H349    1.070   .     S
C327   N331    1.415   .     S
C327   O333    1.220   .     D
C328   H350    1.079   .     S
N329   N330    1.368   .     S
N331   N332    1.368   .     S
C351   C352    1.500   .     S
C351   C353    1.412   .     D
C351   C361    1.403   .     S
C352   N379    1.418   .     S
C352   O384    1.215   .     D
C353   C363    1.500   .     S
C353   C375    1.404   .     S
C354   C355    1.412   .     D
C354   C358    1.412   .     S
C354   C362    1.465   .     S
C355   C356    1.392   .     S
C355   H387    1.085   .     S
C356   C359    1.412   .     D
C356   H388    1.080   .     S
C357   C358    1.393   .     D
C357   C359    1.414   .     S
C357   H389    1.080   .     S
C358   H390    1.085   .     S
C359   C360    1.484   .     S
C360   C364    1.407   1_565 S
C361   C367    1.404   .     D
C361   H391    1.085   .     S
C362   N380    1.299   .     D
C362   H392    1.070   .     S
C363   N379    1.414   .     S
C363   O385    1.220   .     D
C364   C210    1.315   1_655 D
C364   C360    1.407   1_545 S
C364   H393    1.079   .     S
C365   C366    1.500   .     S
C365   C367    1.412   .     S
C365   C375    1.403   .     D
C366   N381    1.418   .     S
C366   O386    1.215   .     D
C367   C377    1.499   .     S
C368   C369    1.412   .     D
C368   C372    1.413   .     S
C368   C376    1.465   .     S
C369   C370    1.392   .     S
C369   H394    1.085   .     S
C370   C373    1.412   .     D
C370   H395    1.081   .     S
C371   C372    1.393   .     D
C371   C373    1.413   .     S
C371   H396    1.080   .     S
C372   H397    1.085   .     S
C373   C374    1.484   .     S
C374   C378    1.407   .     D
C375   H398    1.085   .     S
C376   N382    1.299   .     D
C376   H399    1.070   .     S
C377   N381    1.415   .     S
C377   O383    1.220   .     D
C378   H400    1.079   .     S
N379   N380    1.368   .     S
N381   N382    1.368   .     S
C401   C402    1.500   .     S
C401   C403    1.412   .     S
C401   C411    1.403   .     D
C402   N429    1.418   .     S
C402   O434    1.215   .     D
C403   C413    1.500   .     S
C403   C425    1.404   .     D
C404   C405    1.412   .     D
C404   C408    1.412   .     S
C404   C412    1.465   .     S
C405   C406    1.392   .     S
C405   H437    1.085   .     S
C406   C409    1.412   .     D
C406   H438    1.080   .     S
C407   C408    1.393   .     D
C407   C409    1.414   .     S
C407   H439    1.080   .     S
C408   H440    1.085   .     S
C409   C410    1.484   .     S
C410   C414    1.407   .     S
C411   C417    1.404   .     S
C411   H441    1.085   .     S
C412   N430    1.299   .     D
C412   H442    1.070   .     S
C413   N429    1.414   .     S
C413   O435    1.220   .     D
C414   H443    1.079   .     S
C415   C416    1.500   .     S
C415   C417    1.412   .     D
C415   C425    1.403   .     S
C416   N431    1.418   .     S
C416   O436    1.215   .     D
C417   C427    1.499   .     S
C418   C419    1.412   .     D
C418   C422    1.413   .     S
C418   C426    1.465   .     S
C419   C420    1.392   .     S
C419   H444    1.085   .     S
C420   C423    1.412   .     D
C420   H445    1.081   .     S
C421   C422    1.393   .     D
C421   C423    1.413   .     S
C421   H446    1.080   .     S
C422   H447    1.085   .     S
C423   C424    1.484   .     S
C424   C428    1.407   1_545 D
C425   H448    1.085   .     S
C426   N432    1.299   .     D
C426   H449    1.070   .     S
C427   N431    1.415   .     S
C427   O433    1.220   .     D
C428   C424    1.407   1_565 D
C428   C274    1.463   1_455 S
C428   H450    1.079   .     S
N429   N430    1.368   .     S
N431   N432    1.368   .     S
