data_50
_audit_creation_date              2023-09-08
_audit_creation_method            'Materials Studio'
_symmetry_space_group_name_H-M    'P1'
_symmetry_Int_Tables_number       1
_symmetry_cell_setting            triclinic
loop_
_symmetry_equiv_pos_as_xyz
  x,y,z
_cell_length_a                    24.9060
_cell_length_b                    24.9060
_cell_length_c                    24.9060
_cell_angle_alpha                 90.0000
_cell_angle_beta                  90.0000
_cell_angle_gamma                 90.0000
loop_
_atom_site_label
_atom_site_type_symbol
_atom_site_fract_x
_atom_site_fract_y
_atom_site_fract_z
_atom_site_U_iso_or_equiv
_atom_site_adp_type
_atom_site_occupancy
C1     C     0.26469   0.25356   0.89261   0.00000  Uiso   1.00
C2     C     0.26608   0.33896   0.95128   0.00000  Uiso   1.00
C3     C     0.28922   0.22162   0.85622   0.00000  Uiso   1.00
C4     C     0.33008   0.84094   0.73604   0.00000  Uiso   1.00
C5     C     0.62501   0.46806   0.18598   0.00000  Uiso   1.00
N6     N     0.28244   0.30731   0.90406   0.00000  Uiso   1.00
O7     O     0.26691   0.85207   0.37201   0.00000  Uiso   1.00
H8     H     0.65064   0.47879   0.15098   0.00000  Uiso   1.00
H9     H     0.59927   0.43375   0.17339   0.00000  Uiso   1.00
H10    H     0.30112   0.32863   0.87312   0.00000  Uiso   1.00
H11    H     0.22798   0.23963   0.91111   0.00000  Uiso   1.00
H12    H     0.97295   0.53471   0.74007   0.00000  Uiso   1.00
C13    C     0.76469   0.75356   0.39261   0.00000  Uiso   1.00
C14    C     0.76608   0.83896   0.45128   0.00000  Uiso   1.00
C15    C     0.78922   0.72162   0.35622   0.00000  Uiso   1.00
C16    C     0.83008   0.34094   0.23604   0.00000  Uiso   1.00
C17    C     0.12501   0.96806   0.68598   0.00000  Uiso   1.00
N18    N     0.78244   0.80731   0.40406   0.00000  Uiso   1.00
O19    O     0.76691   0.35207   0.87201   0.00000  Uiso   1.00
H20    H     0.15064   0.97879   0.65098   0.00000  Uiso   1.00
H21    H     0.09927   0.93375   0.67339   0.00000  Uiso   1.00
H22    H     0.80112   0.82863   0.37312   0.00000  Uiso   1.00
H23    H     0.72798   0.73963   0.41111   0.00000  Uiso   1.00
H24    H     0.47295   0.03471   0.24007   0.00000  Uiso   1.00
C25    C     0.23531   0.74644   0.39261   0.00000  Uiso   1.00
C26    C     0.23392   0.66104   0.45128   0.00000  Uiso   1.00
C27    C     0.21078   0.77838   0.35622   0.00000  Uiso   1.00
C28    C     0.16992   0.15906   0.23604   0.00000  Uiso   1.00
C29    C     0.87499   0.53194   0.68598   0.00000  Uiso   1.00
N30    N     0.21756   0.69269   0.40406   0.00000  Uiso   1.00
O31    O     0.23309   0.14793   0.87201   0.00000  Uiso   1.00
H32    H     0.84936   0.52121   0.65098   0.00000  Uiso   1.00
H33    H     0.90073   0.56625   0.67339   0.00000  Uiso   1.00
H34    H     0.19888   0.67137   0.37312   0.00000  Uiso   1.00
H35    H     0.27202   0.76037   0.41111   0.00000  Uiso   1.00
H36    H     0.52705   0.46529   0.24007   0.00000  Uiso   1.00
C37    C     0.73531   0.24644   0.89261   0.00000  Uiso   1.00
C38    C     0.73392   0.16104   0.95128   0.00000  Uiso   1.00
C39    C     0.71078   0.27838   0.85622   0.00000  Uiso   1.00
C40    C     0.66992   0.65906   0.73604   0.00000  Uiso   1.00
C41    C     0.37499   0.03194   0.18598   0.00000  Uiso   1.00
N42    N     0.71756   0.19269   0.90406   0.00000  Uiso   1.00
O43    O     0.73309   0.64793   0.37201   0.00000  Uiso   1.00
H44    H     0.34936   0.02121   0.15098   0.00000  Uiso   1.00
H45    H     0.40073   0.06625   0.17339   0.00000  Uiso   1.00
H46    H     0.69888   0.17137   0.87312   0.00000  Uiso   1.00
H47    H     0.77202   0.26037   0.91111   0.00000  Uiso   1.00
H48    H     0.02705   0.96529   0.74007   0.00000  Uiso   1.00
C49    C     0.73531   0.75356   0.60739   0.00000  Uiso   1.00
C50    C     0.73392   0.83896   0.54872   0.00000  Uiso   1.00
C51    C     0.71078   0.72162   0.64378   0.00000  Uiso   1.00
C52    C     0.66992   0.34094   0.76396   0.00000  Uiso   1.00
C53    C     0.37499   0.96806   0.31402   0.00000  Uiso   1.00
N54    N     0.71756   0.80731   0.59594   0.00000  Uiso   1.00
O55    O     0.73309   0.35207   0.12799   0.00000  Uiso   1.00
H56    H     0.34936   0.97879   0.34902   0.00000  Uiso   1.00
H57    H     0.40073   0.93375   0.32661   0.00000  Uiso   1.00
H58    H     0.69888   0.82863   0.62688   0.00000  Uiso   1.00
H59    H     0.77202   0.73963   0.58889   0.00000  Uiso   1.00
H60    H     0.02705   0.03471   0.75993   0.00000  Uiso   1.00
C61    C     0.23531   0.25356   0.10739   0.00000  Uiso   1.00
C62    C     0.23392   0.33896   0.04872   0.00000  Uiso   1.00
C63    C     0.21078   0.22162   0.14378   0.00000  Uiso   1.00
C64    C     0.16992   0.84094   0.26396   0.00000  Uiso   1.00
C65    C     0.87499   0.46806   0.81402   0.00000  Uiso   1.00
N66    N     0.21756   0.30731   0.09594   0.00000  Uiso   1.00
O67    O     0.23309   0.85207   0.62799   0.00000  Uiso   1.00
H68    H     0.84936   0.47879   0.84902   0.00000  Uiso   1.00
H69    H     0.90073   0.43375   0.82661   0.00000  Uiso   1.00
H70    H     0.19888   0.32863   0.12688   0.00000  Uiso   1.00
H71    H     0.27202   0.23963   0.08889   0.00000  Uiso   1.00
H72    H     0.52705   0.53471   0.25993   0.00000  Uiso   1.00
C73    C     0.76469   0.24644   0.10739   0.00000  Uiso   1.00
C74    C     0.76608   0.16104   0.04872   0.00000  Uiso   1.00
C75    C     0.78922   0.27838   0.14378   0.00000  Uiso   1.00
C76    C     0.83008   0.65906   0.26396   0.00000  Uiso   1.00
C77    C     0.12501   0.03194   0.81402   0.00000  Uiso   1.00
N78    N     0.78244   0.19269   0.09594   0.00000  Uiso   1.00
O79    O     0.76691   0.64793   0.62799   0.00000  Uiso   1.00
H80    H     0.15064   0.02121   0.84902   0.00000  Uiso   1.00
H81    H     0.09927   0.06625   0.82661   0.00000  Uiso   1.00
H82    H     0.80112   0.17137   0.12688   0.00000  Uiso   1.00
H83    H     0.72798   0.26037   0.08889   0.00000  Uiso   1.00
H84    H     0.47295   0.96529   0.25993   0.00000  Uiso   1.00
C85    C     0.26469   0.74644   0.60739   0.00000  Uiso   1.00
C86    C     0.26608   0.66104   0.54872   0.00000  Uiso   1.00
C87    C     0.28922   0.77838   0.64378   0.00000  Uiso   1.00
C88    C     0.33008   0.15906   0.76396   0.00000  Uiso   1.00
C89    C     0.62501   0.53194   0.31402   0.00000  Uiso   1.00
N90    N     0.28244   0.69269   0.59594   0.00000  Uiso   1.00
O91    O     0.26691   0.14793   0.12799   0.00000  Uiso   1.00
H92    H     0.65064   0.52121   0.34902   0.00000  Uiso   1.00
H93    H     0.59927   0.56625   0.32661   0.00000  Uiso   1.00
H94    H     0.30112   0.67137   0.62688   0.00000  Uiso   1.00
H95    H     0.22798   0.76037   0.58889   0.00000  Uiso   1.00
H96    H     0.97295   0.46529   0.75993   0.00000  Uiso   1.00
C97    C     0.89261   0.26469   0.25356   0.00000  Uiso   1.00
C98    C     0.95128   0.26608   0.33896   0.00000  Uiso   1.00
C99    C     0.85622   0.28922   0.22162   0.00000  Uiso   1.00
C100   C     0.73604   0.33008   0.84094   0.00000  Uiso   1.00
C101   C     0.18598   0.62501   0.46806   0.00000  Uiso   1.00
N102   N     0.90406   0.28244   0.30731   0.00000  Uiso   1.00
O103   O     0.37201   0.26691   0.85207   0.00000  Uiso   1.00
H104   H     0.15098   0.65064   0.47879   0.00000  Uiso   1.00
H105   H     0.17339   0.59927   0.43375   0.00000  Uiso   1.00
H106   H     0.87312   0.30112   0.32863   0.00000  Uiso   1.00
H107   H     0.91111   0.22798   0.23963   0.00000  Uiso   1.00
H108   H     0.74007   0.97295   0.53471   0.00000  Uiso   1.00
C109   C     0.39261   0.76469   0.75356   0.00000  Uiso   1.00
C110   C     0.45128   0.76608   0.83896   0.00000  Uiso   1.00
C111   C     0.35622   0.78922   0.72162   0.00000  Uiso   1.00
C112   C     0.23604   0.83008   0.34094   0.00000  Uiso   1.00
C113   C     0.68598   0.12501   0.96806   0.00000  Uiso   1.00
N114   N     0.40406   0.78244   0.80731   0.00000  Uiso   1.00
O115   O     0.87201   0.76691   0.35207   0.00000  Uiso   1.00
H116   H     0.65098   0.15064   0.97879   0.00000  Uiso   1.00
H117   H     0.67339   0.09927   0.93375   0.00000  Uiso   1.00
H118   H     0.37312   0.80112   0.82863   0.00000  Uiso   1.00
H119   H     0.41111   0.72798   0.73963   0.00000  Uiso   1.00
H120   H     0.24007   0.47295   0.03471   0.00000  Uiso   1.00
C121   C     0.39261   0.23531   0.74644   0.00000  Uiso   1.00
C122   C     0.45128   0.23392   0.66104   0.00000  Uiso   1.00
C123   C     0.35622   0.21078   0.77838   0.00000  Uiso   1.00
C124   C     0.23604   0.16992   0.15906   0.00000  Uiso   1.00
C125   C     0.68598   0.87499   0.53194   0.00000  Uiso   1.00
N126   N     0.40406   0.21756   0.69269   0.00000  Uiso   1.00
O127   O     0.87201   0.23309   0.14793   0.00000  Uiso   1.00
H128   H     0.65098   0.84936   0.52121   0.00000  Uiso   1.00
H129   H     0.67339   0.90073   0.56625   0.00000  Uiso   1.00
H130   H     0.37312   0.19888   0.67137   0.00000  Uiso   1.00
H131   H     0.41111   0.27202   0.76037   0.00000  Uiso   1.00
H132   H     0.24007   0.52705   0.46529   0.00000  Uiso   1.00
C133   C     0.89261   0.73531   0.24644   0.00000  Uiso   1.00
C134   C     0.95128   0.73392   0.16104   0.00000  Uiso   1.00
C135   C     0.85622   0.71078   0.27838   0.00000  Uiso   1.00
C136   C     0.73604   0.66992   0.65906   0.00000  Uiso   1.00
C137   C     0.18598   0.37499   0.03194   0.00000  Uiso   1.00
N138   N     0.90406   0.71756   0.19269   0.00000  Uiso   1.00
O139   O     0.37201   0.73309   0.64793   0.00000  Uiso   1.00
H140   H     0.15098   0.34936   0.02121   0.00000  Uiso   1.00
H141   H     0.17339   0.40073   0.06625   0.00000  Uiso   1.00
H142   H     0.87312   0.69888   0.17137   0.00000  Uiso   1.00
H143   H     0.91111   0.77202   0.26037   0.00000  Uiso   1.00
H144   H     0.74007   0.02705   0.96529   0.00000  Uiso   1.00
C145   C     0.60739   0.73531   0.75356   0.00000  Uiso   1.00
C146   C     0.54872   0.73392   0.83896   0.00000  Uiso   1.00
C147   C     0.64378   0.71078   0.72162   0.00000  Uiso   1.00
C148   C     0.76396   0.66992   0.34094   0.00000  Uiso   1.00
C149   C     0.31402   0.37499   0.96806   0.00000  Uiso   1.00
N150   N     0.59594   0.71756   0.80731   0.00000  Uiso   1.00
O151   O     0.12799   0.73309   0.35207   0.00000  Uiso   1.00
H152   H     0.34902   0.34936   0.97879   0.00000  Uiso   1.00
H153   H     0.32661   0.40073   0.93375   0.00000  Uiso   1.00
H154   H     0.62688   0.69888   0.82863   0.00000  Uiso   1.00
H155   H     0.58889   0.77202   0.73963   0.00000  Uiso   1.00
H156   H     0.75993   0.02705   0.03471   0.00000  Uiso   1.00
C157   C     0.10739   0.23531   0.25356   0.00000  Uiso   1.00
C158   C     0.04872   0.23392   0.33896   0.00000  Uiso   1.00
C159   C     0.14378   0.21078   0.22162   0.00000  Uiso   1.00
C160   C     0.26396   0.16992   0.84094   0.00000  Uiso   1.00
C161   C     0.81402   0.87499   0.46806   0.00000  Uiso   1.00
N162   N     0.09594   0.21756   0.30731   0.00000  Uiso   1.00
O163   O     0.62799   0.23309   0.85207   0.00000  Uiso   1.00
H164   H     0.84902   0.84936   0.47879   0.00000  Uiso   1.00
H165   H     0.82661   0.90073   0.43375   0.00000  Uiso   1.00
H166   H     0.12688   0.19888   0.32863   0.00000  Uiso   1.00
H167   H     0.08889   0.27202   0.23963   0.00000  Uiso   1.00
H168   H     0.25993   0.52705   0.53471   0.00000  Uiso   1.00
C169   C     0.10739   0.76469   0.24644   0.00000  Uiso   1.00
C170   C     0.04872   0.76608   0.16104   0.00000  Uiso   1.00
C171   C     0.14378   0.78922   0.27838   0.00000  Uiso   1.00
C172   C     0.26396   0.83008   0.65906   0.00000  Uiso   1.00
C173   C     0.81402   0.12501   0.03194   0.00000  Uiso   1.00
N174   N     0.09594   0.78244   0.19269   0.00000  Uiso   1.00
O175   O     0.62799   0.76691   0.64793   0.00000  Uiso   1.00
H176   H     0.84902   0.15064   0.02121   0.00000  Uiso   1.00
H177   H     0.82661   0.09927   0.06625   0.00000  Uiso   1.00
H178   H     0.12688   0.80112   0.17137   0.00000  Uiso   1.00
H179   H     0.08889   0.72798   0.26037   0.00000  Uiso   1.00
H180   H     0.25993   0.47295   0.96529   0.00000  Uiso   1.00
C181   C     0.60739   0.26469   0.74644   0.00000  Uiso   1.00
C182   C     0.54872   0.26608   0.66104   0.00000  Uiso   1.00
C183   C     0.64378   0.28922   0.77838   0.00000  Uiso   1.00
C184   C     0.76396   0.33008   0.15906   0.00000  Uiso   1.00
C185   C     0.31402   0.62501   0.53194   0.00000  Uiso   1.00
N186   N     0.59594   0.28244   0.69269   0.00000  Uiso   1.00
O187   O     0.12799   0.26691   0.14793   0.00000  Uiso   1.00
H188   H     0.34902   0.65064   0.52121   0.00000  Uiso   1.00
H189   H     0.32661   0.59927   0.56625   0.00000  Uiso   1.00
H190   H     0.62688   0.30112   0.67137   0.00000  Uiso   1.00
H191   H     0.58889   0.22798   0.76037   0.00000  Uiso   1.00
H192   H     0.75993   0.97295   0.46529   0.00000  Uiso   1.00
C193   C     0.25356   0.89261   0.26469   0.00000  Uiso   1.00
C194   C     0.33896   0.95128   0.26608   0.00000  Uiso   1.00
C195   C     0.22162   0.85622   0.28922   0.00000  Uiso   1.00
C196   C     0.84094   0.73604   0.33008   0.00000  Uiso   1.00
C197   C     0.46806   0.18598   0.62501   0.00000  Uiso   1.00
N198   N     0.30731   0.90406   0.28244   0.00000  Uiso   1.00
O199   O     0.85207   0.37201   0.26691   0.00000  Uiso   1.00
H200   H     0.47879   0.15098   0.65064   0.00000  Uiso   1.00
H201   H     0.43375   0.17339   0.59927   0.00000  Uiso   1.00
H202   H     0.32863   0.87312   0.30112   0.00000  Uiso   1.00
H203   H     0.23963   0.91111   0.22798   0.00000  Uiso   1.00
H204   H     0.53471   0.74007   0.97295   0.00000  Uiso   1.00
C205   C     0.75356   0.39261   0.76469   0.00000  Uiso   1.00
C206   C     0.83896   0.45128   0.76608   0.00000  Uiso   1.00
C207   C     0.72162   0.35622   0.78922   0.00000  Uiso   1.00
C208   C     0.34094   0.23604   0.83008   0.00000  Uiso   1.00
C209   C     0.96806   0.68598   0.12501   0.00000  Uiso   1.00
N210   N     0.80731   0.40406   0.78244   0.00000  Uiso   1.00
O211   O     0.35207   0.87201   0.76691   0.00000  Uiso   1.00
H212   H     0.97879   0.65098   0.15064   0.00000  Uiso   1.00
H213   H     0.93375   0.67339   0.09927   0.00000  Uiso   1.00
H214   H     0.82863   0.37312   0.80112   0.00000  Uiso   1.00
H215   H     0.73963   0.41111   0.72798   0.00000  Uiso   1.00
H216   H     0.03471   0.24007   0.47295   0.00000  Uiso   1.00
C217   C     0.74644   0.39261   0.23531   0.00000  Uiso   1.00
C218   C     0.66104   0.45128   0.23392   0.00000  Uiso   1.00
C219   C     0.77838   0.35622   0.21078   0.00000  Uiso   1.00
C220   C     0.15906   0.23604   0.16992   0.00000  Uiso   1.00
C221   C     0.53194   0.68598   0.87499   0.00000  Uiso   1.00
N222   N     0.69269   0.40406   0.21756   0.00000  Uiso   1.00
O223   O     0.14793   0.87201   0.23309   0.00000  Uiso   1.00
H224   H     0.52121   0.65098   0.84936   0.00000  Uiso   1.00
H225   H     0.56625   0.67339   0.90073   0.00000  Uiso   1.00
H226   H     0.67137   0.37312   0.19888   0.00000  Uiso   1.00
H227   H     0.76037   0.41111   0.27202   0.00000  Uiso   1.00
H228   H     0.46529   0.24007   0.52705   0.00000  Uiso   1.00
C229   C     0.24644   0.89261   0.73531   0.00000  Uiso   1.00
C230   C     0.16104   0.95128   0.73392   0.00000  Uiso   1.00
C231   C     0.27838   0.85622   0.71078   0.00000  Uiso   1.00
C232   C     0.65906   0.73604   0.66992   0.00000  Uiso   1.00
C233   C     0.03194   0.18598   0.37499   0.00000  Uiso   1.00
N234   N     0.19269   0.90406   0.71756   0.00000  Uiso   1.00
O235   O     0.64793   0.37201   0.73309   0.00000  Uiso   1.00
H236   H     0.02121   0.15098   0.34936   0.00000  Uiso   1.00
H237   H     0.06625   0.17339   0.40073   0.00000  Uiso   1.00
H238   H     0.17137   0.87312   0.69888   0.00000  Uiso   1.00
H239   H     0.26037   0.91111   0.77202   0.00000  Uiso   1.00
H240   H     0.96529   0.74007   0.02705   0.00000  Uiso   1.00
C241   C     0.75356   0.60739   0.73531   0.00000  Uiso   1.00
C242   C     0.83896   0.54872   0.73392   0.00000  Uiso   1.00
C243   C     0.72162   0.64378   0.71078   0.00000  Uiso   1.00
C244   C     0.34094   0.76396   0.66992   0.00000  Uiso   1.00
C245   C     0.96806   0.31402   0.37499   0.00000  Uiso   1.00
N246   N     0.80731   0.59594   0.71756   0.00000  Uiso   1.00
O247   O     0.35207   0.12799   0.73309   0.00000  Uiso   1.00
H248   H     0.97879   0.34902   0.34936   0.00000  Uiso   1.00
H249   H     0.93375   0.32661   0.40073   0.00000  Uiso   1.00
H250   H     0.82863   0.62688   0.69888   0.00000  Uiso   1.00
H251   H     0.73963   0.58889   0.77202   0.00000  Uiso   1.00
H252   H     0.03471   0.75993   0.02705   0.00000  Uiso   1.00
C253   C     0.25356   0.10739   0.23531   0.00000  Uiso   1.00
C254   C     0.33896   0.04872   0.23392   0.00000  Uiso   1.00
C255   C     0.22162   0.14378   0.21078   0.00000  Uiso   1.00
C256   C     0.84094   0.26396   0.16992   0.00000  Uiso   1.00
C257   C     0.46806   0.81402   0.87499   0.00000  Uiso   1.00
N258   N     0.30731   0.09594   0.21756   0.00000  Uiso   1.00
O259   O     0.85207   0.62799   0.23309   0.00000  Uiso   1.00
H260   H     0.47879   0.84902   0.84936   0.00000  Uiso   1.00
H261   H     0.43375   0.82661   0.90073   0.00000  Uiso   1.00
H262   H     0.32863   0.12688   0.19888   0.00000  Uiso   1.00
H263   H     0.23963   0.08889   0.27202   0.00000  Uiso   1.00
H264   H     0.53471   0.25993   0.52705   0.00000  Uiso   1.00
C265   C     0.24644   0.10739   0.76469   0.00000  Uiso   1.00
C266   C     0.16104   0.04872   0.76608   0.00000  Uiso   1.00
C267   C     0.27838   0.14378   0.78922   0.00000  Uiso   1.00
C268   C     0.65906   0.26396   0.83008   0.00000  Uiso   1.00
C269   C     0.03194   0.81402   0.12501   0.00000  Uiso   1.00
N270   N     0.19269   0.09594   0.78244   0.00000  Uiso   1.00
O271   O     0.64793   0.62799   0.76691   0.00000  Uiso   1.00
H272   H     0.02121   0.84902   0.15064   0.00000  Uiso   1.00
H273   H     0.06625   0.82661   0.09927   0.00000  Uiso   1.00
H274   H     0.17137   0.12688   0.80112   0.00000  Uiso   1.00
H275   H     0.26037   0.08889   0.72798   0.00000  Uiso   1.00
H276   H     0.96529   0.25993   0.47295   0.00000  Uiso   1.00
C277   C     0.74644   0.60739   0.26469   0.00000  Uiso   1.00
C278   C     0.66104   0.54872   0.26608   0.00000  Uiso   1.00
C279   C     0.77838   0.64378   0.28922   0.00000  Uiso   1.00
C280   C     0.15906   0.76396   0.33008   0.00000  Uiso   1.00
C281   C     0.53194   0.31402   0.62501   0.00000  Uiso   1.00
N282   N     0.69269   0.59594   0.28244   0.00000  Uiso   1.00
O283   O     0.14793   0.12799   0.26691   0.00000  Uiso   1.00
H284   H     0.52121   0.34902   0.65064   0.00000  Uiso   1.00
H285   H     0.56625   0.32661   0.59927   0.00000  Uiso   1.00
H286   H     0.67137   0.62688   0.30112   0.00000  Uiso   1.00
H287   H     0.76037   0.58889   0.22798   0.00000  Uiso   1.00
H288   H     0.46529   0.75993   0.97295   0.00000  Uiso   1.00
C289   C     0.50356   0.51469   0.14261   0.00000  Uiso   1.00
C290   C     0.58896   0.51608   0.20128   0.00000  Uiso   1.00
C291   C     0.47162   0.53922   0.10622   0.00000  Uiso   1.00
C292   C     0.09094   0.58008   0.98604   0.00000  Uiso   1.00
C293   C     0.71806   0.87501   0.43598   0.00000  Uiso   1.00
N294   N     0.55731   0.53244   0.15406   0.00000  Uiso   1.00
O295   O     0.10207   0.51691   0.62201   0.00000  Uiso   1.00
H296   H     0.72879   0.90064   0.40098   0.00000  Uiso   1.00
H297   H     0.68375   0.84927   0.42339   0.00000  Uiso   1.00
H298   H     0.57863   0.55112   0.12312   0.00000  Uiso   1.00
H299   H     0.48963   0.47798   0.16111   0.00000  Uiso   1.00
H300   H     0.78471   0.22295   0.99007   0.00000  Uiso   1.00
C301   C     0.00356   0.01469   0.64261   0.00000  Uiso   1.00
C302   C     0.08896   0.01608   0.70128   0.00000  Uiso   1.00
C303   C     0.97162   0.03922   0.60622   0.00000  Uiso   1.00
C304   C     0.59094   0.08008   0.48604   0.00000  Uiso   1.00
C305   C     0.21806   0.37501   0.93598   0.00000  Uiso   1.00
N306   N     0.05731   0.03244   0.65406   0.00000  Uiso   1.00
O307   O     0.60207   0.01691   0.12201   0.00000  Uiso   1.00
H308   H     0.22879   0.40064   0.90098   0.00000  Uiso   1.00
H309   H     0.18375   0.34927   0.92339   0.00000  Uiso   1.00
H310   H     0.07863   0.05112   0.62312   0.00000  Uiso   1.00
H311   H     0.98963   0.97798   0.66111   0.00000  Uiso   1.00
H312   H     0.28471   0.72295   0.49007   0.00000  Uiso   1.00
C313   C     0.99644   0.48531   0.64261   0.00000  Uiso   1.00
C314   C     0.91104   0.48392   0.70128   0.00000  Uiso   1.00
C315   C     0.02838   0.46078   0.60622   0.00000  Uiso   1.00
C316   C     0.40906   0.41992   0.48604   0.00000  Uiso   1.00
C317   C     0.78194   0.12499   0.93598   0.00000  Uiso   1.00
N318   N     0.94269   0.46756   0.65406   0.00000  Uiso   1.00
O319   O     0.39793   0.48309   0.12201   0.00000  Uiso   1.00
H320   H     0.77121   0.09936   0.90098   0.00000  Uiso   1.00
H321   H     0.81625   0.15073   0.92339   0.00000  Uiso   1.00
H322   H     0.92137   0.44888   0.62312   0.00000  Uiso   1.00
H323   H     0.01037   0.52202   0.66111   0.00000  Uiso   1.00
H324   H     0.71529   0.77705   0.49007   0.00000  Uiso   1.00
C325   C     0.49644   0.98531   0.14261   0.00000  Uiso   1.00
C326   C     0.41104   0.98392   0.20128   0.00000  Uiso   1.00
C327   C     0.52838   0.96078   0.10622   0.00000  Uiso   1.00
C328   C     0.90906   0.91992   0.98604   0.00000  Uiso   1.00
C329   C     0.28194   0.62499   0.43598   0.00000  Uiso   1.00
N330   N     0.44269   0.96756   0.15406   0.00000  Uiso   1.00
O331   O     0.89793   0.98309   0.62201   0.00000  Uiso   1.00
H332   H     0.27121   0.59936   0.40098   0.00000  Uiso   1.00
H333   H     0.31625   0.65073   0.42339   0.00000  Uiso   1.00
H334   H     0.42137   0.94888   0.12312   0.00000  Uiso   1.00
H335   H     0.51037   0.02202   0.16111   0.00000  Uiso   1.00
H336   H     0.21529   0.27705   0.99007   0.00000  Uiso   1.00
C337   C     0.00356   0.98531   0.85739   0.00000  Uiso   1.00
C338   C     0.08896   0.98392   0.79872   0.00000  Uiso   1.00
C339   C     0.97162   0.96078   0.89378   0.00000  Uiso   1.00
C340   C     0.59094   0.91992   0.01396   0.00000  Uiso   1.00
C341   C     0.21806   0.62499   0.56402   0.00000  Uiso   1.00
N342   N     0.05731   0.96756   0.84594   0.00000  Uiso   1.00
O343   O     0.60207   0.98309   0.37799   0.00000  Uiso   1.00
H344   H     0.22879   0.59936   0.59902   0.00000  Uiso   1.00
H345   H     0.18375   0.65073   0.57661   0.00000  Uiso   1.00
H346   H     0.07863   0.94888   0.87688   0.00000  Uiso   1.00
H347   H     0.98963   0.02202   0.83889   0.00000  Uiso   1.00
H348   H     0.28471   0.27705   0.00993   0.00000  Uiso   1.00
C349   C     0.50356   0.48531   0.35739   0.00000  Uiso   1.00
C350   C     0.58896   0.48392   0.29872   0.00000  Uiso   1.00
C351   C     0.47162   0.46078   0.39378   0.00000  Uiso   1.00
C352   C     0.09094   0.41992   0.51396   0.00000  Uiso   1.00
C353   C     0.71806   0.12499   0.06402   0.00000  Uiso   1.00
N354   N     0.55731   0.46756   0.34594   0.00000  Uiso   1.00
O355   O     0.10207   0.48309   0.87799   0.00000  Uiso   1.00
H356   H     0.72879   0.09936   0.09902   0.00000  Uiso   1.00
H357   H     0.68375   0.15073   0.07661   0.00000  Uiso   1.00
H358   H     0.57863   0.44888   0.37688   0.00000  Uiso   1.00
H359   H     0.48963   0.52202   0.33889   0.00000  Uiso   1.00
H360   H     0.78471   0.77705   0.50993   0.00000  Uiso   1.00
C361   C     0.49644   0.01469   0.35739   0.00000  Uiso   1.00
C362   C     0.41104   0.01608   0.29872   0.00000  Uiso   1.00
C363   C     0.52838   0.03922   0.39378   0.00000  Uiso   1.00
C364   C     0.90906   0.08008   0.51396   0.00000  Uiso   1.00
C365   C     0.28194   0.37501   0.06402   0.00000  Uiso   1.00
N366   N     0.44269   0.03244   0.34594   0.00000  Uiso   1.00
O367   O     0.89793   0.01691   0.87799   0.00000  Uiso   1.00
H368   H     0.27121   0.40064   0.09902   0.00000  Uiso   1.00
H369   H     0.31625   0.34927   0.07661   0.00000  Uiso   1.00
H370   H     0.42137   0.05112   0.37688   0.00000  Uiso   1.00
H371   H     0.51037   0.97798   0.33889   0.00000  Uiso   1.00
H372   H     0.21529   0.72295   0.50993   0.00000  Uiso   1.00
C373   C     0.99644   0.51469   0.85739   0.00000  Uiso   1.00
C374   C     0.91104   0.51608   0.79872   0.00000  Uiso   1.00
C375   C     0.02838   0.53922   0.89378   0.00000  Uiso   1.00
C376   C     0.40906   0.58008   0.01396   0.00000  Uiso   1.00
C377   C     0.78194   0.87501   0.56402   0.00000  Uiso   1.00
N378   N     0.94269   0.53244   0.84594   0.00000  Uiso   1.00
O379   O     0.39793   0.51691   0.37799   0.00000  Uiso   1.00
H380   H     0.77121   0.90064   0.59902   0.00000  Uiso   1.00
H381   H     0.81625   0.84927   0.57661   0.00000  Uiso   1.00
H382   H     0.92137   0.55112   0.87688   0.00000  Uiso   1.00
H383   H     0.01037   0.47798   0.83889   0.00000  Uiso   1.00
H384   H     0.71529   0.22295   0.00993   0.00000  Uiso   1.00
C385   C     0.51469   0.14261   0.50356   0.00000  Uiso   1.00
C386   C     0.51608   0.20128   0.58896   0.00000  Uiso   1.00
C387   C     0.53922   0.10622   0.47162   0.00000  Uiso   1.00
C388   C     0.58008   0.98604   0.09094   0.00000  Uiso   1.00
C389   C     0.87501   0.43598   0.71806   0.00000  Uiso   1.00
N390   N     0.53244   0.15406   0.55731   0.00000  Uiso   1.00
O391   O     0.51691   0.62201   0.10207   0.00000  Uiso   1.00
H392   H     0.90064   0.40098   0.72879   0.00000  Uiso   1.00
H393   H     0.84927   0.42339   0.68375   0.00000  Uiso   1.00
H394   H     0.55112   0.12312   0.57863   0.00000  Uiso   1.00
H395   H     0.47798   0.16111   0.48963   0.00000  Uiso   1.00
H396   H     0.22295   0.99007   0.78471   0.00000  Uiso   1.00
C397   C     0.01469   0.64261   0.00356   0.00000  Uiso   1.00
C398   C     0.01608   0.70128   0.08896   0.00000  Uiso   1.00
C399   C     0.03922   0.60622   0.97162   0.00000  Uiso   1.00
C400   C     0.08008   0.48604   0.59094   0.00000  Uiso   1.00
C401   C     0.37501   0.93598   0.21806   0.00000  Uiso   1.00
N402   N     0.03244   0.65406   0.05731   0.00000  Uiso   1.00
O403   O     0.01691   0.12201   0.60207   0.00000  Uiso   1.00
H404   H     0.40064   0.90098   0.22879   0.00000  Uiso   1.00
H405   H     0.34927   0.92339   0.18375   0.00000  Uiso   1.00
H406   H     0.05112   0.62312   0.07863   0.00000  Uiso   1.00
H407   H     0.97798   0.66111   0.98963   0.00000  Uiso   1.00
H408   H     0.72295   0.49007   0.28471   0.00000  Uiso   1.00
C409   C     0.48531   0.64261   0.99644   0.00000  Uiso   1.00
C410   C     0.48392   0.70128   0.91104   0.00000  Uiso   1.00
C411   C     0.46078   0.60622   0.02838   0.00000  Uiso   1.00
C412   C     0.41992   0.48604   0.40906   0.00000  Uiso   1.00
C413   C     0.12499   0.93598   0.78194   0.00000  Uiso   1.00
N414   N     0.46756   0.65406   0.94269   0.00000  Uiso   1.00
O415   O     0.48309   0.12201   0.39793   0.00000  Uiso   1.00
H416   H     0.09936   0.90098   0.77121   0.00000  Uiso   1.00
H417   H     0.15073   0.92339   0.81625   0.00000  Uiso   1.00
H418   H     0.44888   0.62312   0.92137   0.00000  Uiso   1.00
H419   H     0.52202   0.66111   0.01037   0.00000  Uiso   1.00
H420   H     0.77705   0.49007   0.71529   0.00000  Uiso   1.00
C421   C     0.98531   0.14261   0.49644   0.00000  Uiso   1.00
C422   C     0.98392   0.20128   0.41104   0.00000  Uiso   1.00
C423   C     0.96078   0.10622   0.52838   0.00000  Uiso   1.00
C424   C     0.91992   0.98604   0.90906   0.00000  Uiso   1.00
C425   C     0.62499   0.43598   0.28194   0.00000  Uiso   1.00
N426   N     0.96756   0.15406   0.44269   0.00000  Uiso   1.00
O427   O     0.98309   0.62201   0.89793   0.00000  Uiso   1.00
H428   H     0.59936   0.40098   0.27121   0.00000  Uiso   1.00
H429   H     0.65073   0.42339   0.31625   0.00000  Uiso   1.00
H430   H     0.94888   0.12312   0.42137   0.00000  Uiso   1.00
H431   H     0.02202   0.16111   0.51037   0.00000  Uiso   1.00
H432   H     0.27705   0.99007   0.21529   0.00000  Uiso   1.00
C433   C     0.98531   0.85739   0.00356   0.00000  Uiso   1.00
C434   C     0.98392   0.79872   0.08896   0.00000  Uiso   1.00
C435   C     0.96078   0.89378   0.97162   0.00000  Uiso   1.00
C436   C     0.91992   0.01396   0.59094   0.00000  Uiso   1.00
C437   C     0.62499   0.56402   0.21806   0.00000  Uiso   1.00
N438   N     0.96756   0.84594   0.05731   0.00000  Uiso   1.00
O439   O     0.98309   0.37799   0.60207   0.00000  Uiso   1.00
H440   H     0.59936   0.59902   0.22879   0.00000  Uiso   1.00
H441   H     0.65073   0.57661   0.18375   0.00000  Uiso   1.00
H442   H     0.94888   0.87688   0.07863   0.00000  Uiso   1.00
H443   H     0.02202   0.83889   0.98963   0.00000  Uiso   1.00
H444   H     0.27705   0.00993   0.28471   0.00000  Uiso   1.00
C445   C     0.48531   0.35739   0.50356   0.00000  Uiso   1.00
C446   C     0.48392   0.29872   0.58896   0.00000  Uiso   1.00
C447   C     0.46078   0.39378   0.47162   0.00000  Uiso   1.00
C448   C     0.41992   0.51396   0.09094   0.00000  Uiso   1.00
C449   C     0.12499   0.06402   0.71806   0.00000  Uiso   1.00
N450   N     0.46756   0.34594   0.55731   0.00000  Uiso   1.00
O451   O     0.48309   0.87799   0.10207   0.00000  Uiso   1.00
H452   H     0.09936   0.09902   0.72879   0.00000  Uiso   1.00
H453   H     0.15073   0.07661   0.68375   0.00000  Uiso   1.00
H454   H     0.44888   0.37688   0.57863   0.00000  Uiso   1.00
H455   H     0.52202   0.33889   0.48963   0.00000  Uiso   1.00
H456   H     0.77705   0.50993   0.78471   0.00000  Uiso   1.00
C457   C     0.01469   0.35739   0.49644   0.00000  Uiso   1.00
C458   C     0.01608   0.29872   0.41104   0.00000  Uiso   1.00
C459   C     0.03922   0.39378   0.52838   0.00000  Uiso   1.00
C460   C     0.08008   0.51396   0.90906   0.00000  Uiso   1.00
C461   C     0.37501   0.06402   0.28194   0.00000  Uiso   1.00
N462   N     0.03244   0.34594   0.44269   0.00000  Uiso   1.00
O463   O     0.01691   0.87799   0.89793   0.00000  Uiso   1.00
H464   H     0.40064   0.09902   0.27121   0.00000  Uiso   1.00
H465   H     0.34927   0.07661   0.31625   0.00000  Uiso   1.00
H466   H     0.05112   0.37688   0.42137   0.00000  Uiso   1.00
H467   H     0.97798   0.33889   0.51037   0.00000  Uiso   1.00
H468   H     0.72295   0.50993   0.21529   0.00000  Uiso   1.00
C469   C     0.51469   0.85739   0.99644   0.00000  Uiso   1.00
C470   C     0.51608   0.79872   0.91104   0.00000  Uiso   1.00
C471   C     0.53922   0.89378   0.02838   0.00000  Uiso   1.00
C472   C     0.58008   0.01396   0.40906   0.00000  Uiso   1.00
C473   C     0.87501   0.56402   0.78194   0.00000  Uiso   1.00
N474   N     0.53244   0.84594   0.94269   0.00000  Uiso   1.00
O475   O     0.51691   0.37799   0.39793   0.00000  Uiso   1.00
H476   H     0.90064   0.59902   0.77121   0.00000  Uiso   1.00
H477   H     0.84927   0.57661   0.81625   0.00000  Uiso   1.00
H478   H     0.55112   0.87688   0.92137   0.00000  Uiso   1.00
H479   H     0.47798   0.83889   0.01037   0.00000  Uiso   1.00
H480   H     0.22295   0.00993   0.71529   0.00000  Uiso   1.00
C481   C     0.14261   0.50356   0.51469   0.00000  Uiso   1.00
C482   C     0.20128   0.58896   0.51608   0.00000  Uiso   1.00
C483   C     0.10622   0.47162   0.53922   0.00000  Uiso   1.00
C484   C     0.98604   0.09094   0.58008   0.00000  Uiso   1.00
C485   C     0.43598   0.71806   0.87501   0.00000  Uiso   1.00
N486   N     0.15406   0.55731   0.53244   0.00000  Uiso   1.00
O487   O     0.62201   0.10207   0.51691   0.00000  Uiso   1.00
H488   H     0.40098   0.72879   0.90064   0.00000  Uiso   1.00
H489   H     0.42339   0.68375   0.84927   0.00000  Uiso   1.00
H490   H     0.12312   0.57863   0.55112   0.00000  Uiso   1.00
H491   H     0.16111   0.48963   0.47798   0.00000  Uiso   1.00
H492   H     0.99007   0.78471   0.22295   0.00000  Uiso   1.00
C493   C     0.64261   0.00356   0.01469   0.00000  Uiso   1.00
C494   C     0.70128   0.08896   0.01608   0.00000  Uiso   1.00
C495   C     0.60622   0.97162   0.03922   0.00000  Uiso   1.00
C496   C     0.48604   0.59094   0.08008   0.00000  Uiso   1.00
C497   C     0.93598   0.21806   0.37501   0.00000  Uiso   1.00
N498   N     0.65406   0.05731   0.03244   0.00000  Uiso   1.00
O499   O     0.12201   0.60207   0.01691   0.00000  Uiso   1.00
H500   H     0.90098   0.22879   0.40064   0.00000  Uiso   1.00
H501   H     0.92339   0.18375   0.34927   0.00000  Uiso   1.00
H502   H     0.62312   0.07863   0.05112   0.00000  Uiso   1.00
H503   H     0.66111   0.98963   0.97798   0.00000  Uiso   1.00
H504   H     0.49007   0.28471   0.72295   0.00000  Uiso   1.00
C505   C     0.64261   0.99644   0.48531   0.00000  Uiso   1.00
C506   C     0.70128   0.91104   0.48392   0.00000  Uiso   1.00
C507   C     0.60622   0.02838   0.46078   0.00000  Uiso   1.00
C508   C     0.48604   0.40906   0.41992   0.00000  Uiso   1.00
C509   C     0.93598   0.78194   0.12499   0.00000  Uiso   1.00
N510   N     0.65406   0.94269   0.46756   0.00000  Uiso   1.00
O511   O     0.12201   0.39793   0.48309   0.00000  Uiso   1.00
H512   H     0.90098   0.77121   0.09936   0.00000  Uiso   1.00
H513   H     0.92339   0.81625   0.15073   0.00000  Uiso   1.00
H514   H     0.62312   0.92137   0.44888   0.00000  Uiso   1.00
H515   H     0.66111   0.01037   0.52202   0.00000  Uiso   1.00
H516   H     0.49007   0.71529   0.77705   0.00000  Uiso   1.00
C517   C     0.14261   0.49644   0.98531   0.00000  Uiso   1.00
C518   C     0.20128   0.41104   0.98392   0.00000  Uiso   1.00
C519   C     0.10622   0.52838   0.96078   0.00000  Uiso   1.00
C520   C     0.98604   0.90906   0.91992   0.00000  Uiso   1.00
C521   C     0.43598   0.28194   0.62499   0.00000  Uiso   1.00
N522   N     0.15406   0.44269   0.96756   0.00000  Uiso   1.00
O523   O     0.62201   0.89793   0.98309   0.00000  Uiso   1.00
H524   H     0.40098   0.27121   0.59936   0.00000  Uiso   1.00
H525   H     0.42339   0.31625   0.65073   0.00000  Uiso   1.00
H526   H     0.12312   0.42137   0.94888   0.00000  Uiso   1.00
H527   H     0.16111   0.51037   0.02202   0.00000  Uiso   1.00
H528   H     0.99007   0.21529   0.27705   0.00000  Uiso   1.00
C529   C     0.85739   0.00356   0.98531   0.00000  Uiso   1.00
C530   C     0.79872   0.08896   0.98392   0.00000  Uiso   1.00
C531   C     0.89378   0.97162   0.96078   0.00000  Uiso   1.00
C532   C     0.01396   0.59094   0.91992   0.00000  Uiso   1.00
C533   C     0.56402   0.21806   0.62499   0.00000  Uiso   1.00
N534   N     0.84594   0.05731   0.96756   0.00000  Uiso   1.00
O535   O     0.37799   0.60207   0.98309   0.00000  Uiso   1.00
H536   H     0.59902   0.22879   0.59936   0.00000  Uiso   1.00
H537   H     0.57661   0.18375   0.65073   0.00000  Uiso   1.00
H538   H     0.87688   0.07863   0.94888   0.00000  Uiso   1.00
H539   H     0.83889   0.98963   0.02202   0.00000  Uiso   1.00
H540   H     0.00993   0.28471   0.27705   0.00000  Uiso   1.00
C541   C     0.35739   0.50356   0.48531   0.00000  Uiso   1.00
C542   C     0.29872   0.58896   0.48392   0.00000  Uiso   1.00
C543   C     0.39378   0.47162   0.46078   0.00000  Uiso   1.00
C544   C     0.51396   0.09094   0.41992   0.00000  Uiso   1.00
C545   C     0.06402   0.71806   0.12499   0.00000  Uiso   1.00
N546   N     0.34594   0.55731   0.46756   0.00000  Uiso   1.00
O547   O     0.87799   0.10207   0.48309   0.00000  Uiso   1.00
H548   H     0.09902   0.72879   0.09936   0.00000  Uiso   1.00
H549   H     0.07661   0.68375   0.15073   0.00000  Uiso   1.00
H550   H     0.37688   0.57863   0.44888   0.00000  Uiso   1.00
H551   H     0.33889   0.48963   0.52202   0.00000  Uiso   1.00
H552   H     0.50993   0.78471   0.77705   0.00000  Uiso   1.00
C553   C     0.35739   0.49644   0.01469   0.00000  Uiso   1.00
C554   C     0.29872   0.41104   0.01608   0.00000  Uiso   1.00
C555   C     0.39378   0.52838   0.03922   0.00000  Uiso   1.00
C556   C     0.51396   0.90906   0.08008   0.00000  Uiso   1.00
C557   C     0.06402   0.28194   0.37501   0.00000  Uiso   1.00
N558   N     0.34594   0.44269   0.03244   0.00000  Uiso   1.00
O559   O     0.87799   0.89793   0.01691   0.00000  Uiso   1.00
H560   H     0.09902   0.27121   0.40064   0.00000  Uiso   1.00
H561   H     0.07661   0.31625   0.34927   0.00000  Uiso   1.00
H562   H     0.37688   0.42137   0.05112   0.00000  Uiso   1.00
H563   H     0.33889   0.51037   0.97798   0.00000  Uiso   1.00
H564   H     0.50993   0.21529   0.72295   0.00000  Uiso   1.00
C565   C     0.85739   0.99644   0.51469   0.00000  Uiso   1.00
C566   C     0.79872   0.91104   0.51608   0.00000  Uiso   1.00
C567   C     0.89378   0.02838   0.53922   0.00000  Uiso   1.00
C568   C     0.01396   0.40906   0.58008   0.00000  Uiso   1.00
C569   C     0.56402   0.78194   0.87501   0.00000  Uiso   1.00
N570   N     0.84594   0.94269   0.53244   0.00000  Uiso   1.00
O571   O     0.37799   0.39793   0.51691   0.00000  Uiso   1.00
H572   H     0.59902   0.77121   0.90064   0.00000  Uiso   1.00
H573   H     0.57661   0.81625   0.84927   0.00000  Uiso   1.00
H574   H     0.87688   0.92137   0.55112   0.00000  Uiso   1.00
H575   H     0.83889   0.01037   0.47798   0.00000  Uiso   1.00
H576   H     0.00993   0.71529   0.22295   0.00000  Uiso   1.00
C577   C     0.25000   0.69681   0.50000   0.00000  Uiso   1.00
C578   C     0.25000   0.30319   0.00000   0.00000  Uiso   1.00
C579   C     0.75000   0.19681   0.00000   0.00000  Uiso   1.00
C580   C     0.75000   0.80319   0.50000   0.00000  Uiso   1.00
C581   C     0.50000   0.25000   0.69681   0.00000  Uiso   1.00
C582   C     0.00000   0.25000   0.30319   0.00000  Uiso   1.00
C583   C     0.00000   0.75000   0.19681   0.00000  Uiso   1.00
C584   C     0.50000   0.75000   0.80319   0.00000  Uiso   1.00
C585   C     0.69681   0.50000   0.25000   0.00000  Uiso   1.00
C586   C     0.30319   0.00000   0.25000   0.00000  Uiso   1.00
C587   C     0.19681   0.00000   0.75000   0.00000  Uiso   1.00
C588   C     0.80319   0.50000   0.75000   0.00000  Uiso   1.00
C589   C     0.94681   0.50000   0.75000   0.00000  Uiso   1.00
C590   C     0.55319   0.50000   0.25000   0.00000  Uiso   1.00
C591   C     0.44681   0.00000   0.25000   0.00000  Uiso   1.00
C592   C     0.05319   0.00000   0.75000   0.00000  Uiso   1.00
C593   C     0.50000   0.75000   0.94681   0.00000  Uiso   1.00
C594   C     0.50000   0.25000   0.55319   0.00000  Uiso   1.00
C595   C     0.00000   0.25000   0.44681   0.00000  Uiso   1.00
C596   C     0.00000   0.75000   0.05319   0.00000  Uiso   1.00
C597   C     0.75000   0.94681   0.50000   0.00000  Uiso   1.00
C598   C     0.25000   0.55319   0.50000   0.00000  Uiso   1.00
C599   C     0.25000   0.44681   0.00000   0.00000  Uiso   1.00
C600   C     0.75000   0.05319   0.00000   0.00000  Uiso   1.00
loop_
_geom_bond_atom_site_label_1
_geom_bond_atom_site_label_2
_geom_bond_distance
_geom_bond_site_symmetry_2
_ccdc_geom_bond_type
C1     C3      1.352   .     D
C1     N6      1.438   .     S
C1     H11     1.081   .     S
C2     N6      1.473   .     S
C2     C149    1.551   .     S
C2     C305    1.543   .     S
C2     C578    1.558   1_556 S
C3     C160    1.483   .     S
C3     C208    1.487   .     S
C4     C111    1.487   .     S
C4     O211    1.221   .     D
C4     C231    1.483   .     S
C5     H8      1.113   .     S
C5     H9      1.113   .     S
C5     C218    1.551   .     S
C5     C290    1.543   .     S
N6     H10     1.045   .     S
O7     C112    1.221   .     D
H12    C589    1.110   .     S
C13    C15     1.352   .     D
C13    N18     1.438   .     S
C13    H23     1.081   .     S
C14    N18     1.473   .     S
C14    C161    1.551   .     S
C14    C293    1.543   .     S
C14    C580    1.558   .     S
C15    C148    1.483   .     S
C15    C196    1.487   .     S
C16    C99     1.487   .     S
C16    O199    1.221   .     D
C16    C219    1.483   .     S
C17    H20     1.113   .     S
C17    H21     1.113   .     S
C17    C230    1.551   .     S
C17    C302    1.543   1_565 S
N18    H22     1.045   .     S
O19    C100    1.221   .     D
H24    C591    1.110   .     S
C25    C27     1.352   .     D
C25    N30     1.438   .     S
C25    H35     1.081   .     S
C26    N30     1.473   .     S
C26    C101    1.551   .     S
C26    C329    1.543   .     S
C26    C577    1.558   .     S
C27    C112    1.483   .     S
C27    C280    1.487   .     S
C28    C159    1.487   .     S
C28    C255    1.483   .     S
C28    O283    1.221   .     D
C29    H32     1.113   .     S
C29    H33     1.113   .     S
C29    C242    1.551   .     S
C29    C314    1.543   .     S
N30    H34     1.045   .     S
O31    C160    1.221   .     D
H36    C590    1.110   .     S
C37    C39     1.352   .     D
C37    N42     1.438   .     S
C37    H47     1.081   .     S
C38    N42     1.473   .     S
C38    C113    1.551   .     S
C38    C317    1.543   .     S
C38    C579    1.558   1_556 S
C39    C100    1.483   .     S
C39    C268    1.487   .     S
C40    C147    1.487   .     S
C40    C243    1.483   .     S
C40    O271    1.221   .     D
C41    H44     1.113   .     S
C41    H45     1.113   .     S
C41    C254    1.551   .     S
C41    C326    1.543   1_545 S
N42    H46     1.045   .     S
O43    C148    1.221   .     D
H48    C592    1.110   1_565 S
C49    C51     1.352   .     D
C49    N54     1.438   .     S
C49    H59     1.081   .     S
C50    N54     1.473   .     S
C50    C125    1.551   .     S
C50    C377    1.543   .     S
C50    C580    1.558   .     S
C51    C136    1.483   .     S
C51    C232    1.487   .     S
C52    C183    1.487   .     S
C52    C207    1.483   .     S
C52    O235    1.221   .     D
C53    H56     1.113   .     S
C53    H57     1.113   .     S
C53    C194    1.551   .     S
C53    C362    1.543   1_565 S
N54    H58     1.045   .     S
O55    C184    1.221   .     D
H60    C592    1.110   .     S
C61    C63     1.352   .     D
C61    N66     1.438   .     S
C61    H71     1.081   .     S
C62    N66     1.473   .     S
C62    C137    1.551   .     S
C62    C365    1.543   .     S
C62    C578    1.558   .     S
C63    C124    1.483   .     S
C63    C220    1.487   .     S
C64    C171    1.487   .     S
C64    C195    1.483   .     S
C64    O223    1.221   .     D
C65    H68     1.113   .     S
C65    H69     1.113   .     S
C65    C206    1.551   .     S
C65    C374    1.543   .     S
N66    H70     1.045   .     S
O67    C172    1.221   .     D
H72    C590    1.110   .     S
C73    C75     1.352   .     D
C73    N78     1.438   .     S
C73    H83     1.081   .     S
C74    N78     1.473   .     S
C74    C173    1.551   .     S
C74    C353    1.543   .     S
C74    C579    1.558   .     S
C75    C184    1.483   .     S
C75    C256    1.487   .     S
C76    C135    1.487   .     S
C76    O259    1.221   .     D
C76    C279    1.483   .     S
C77    H80     1.113   .     S
C77    H81     1.113   .     S
C77    C266    1.551   .     S
C77    C338    1.543   1_545 S
N78    H82     1.045   .     S
O79    C136    1.221   .     D
H84    C591    1.110   1_565 S
C85    C87     1.352   .     D
C85    N90     1.438   .     S
C85    H95     1.081   .     S
C86    N90     1.473   .     S
C86    C185    1.551   .     S
C86    C341    1.543   .     S
C86    C577    1.558   .     S
C87    C172    1.483   .     S
C87    C244    1.487   .     S
C88    C123    1.487   .     S
C88    O247    1.221   .     D
C88    C267    1.483   .     S
C89    H92     1.113   .     S
C89    H93     1.113   .     S
C89    C278    1.551   .     S
C89    C350    1.543   .     S
N90    H94     1.045   .     S
O91    C124    1.221   .     D
H96    C589    1.110   .     S
C97    C99     1.352   .     D
C97    N102    1.438   .     S
C97    H107    1.081   .     S
C98    N102    1.473   .     S
C98    C245    1.551   .     S
C98    C497    1.543   .     S
C98    C582    1.558   1_655 S
C99    C256    1.483   .     S
C100   C207    1.487   .     S
C101   H104    1.113   .     S
C101   H105    1.113   .     S
C101   C482    1.543   .     S
N102   H106    1.045   .     S
O103   C208    1.221   .     D
H108   C597    1.110   .     S
C109   C111    1.352   .     D
C109   N114    1.438   .     S
C109   H119    1.081   .     S
C110   N114    1.473   .     S
C110   C257    1.551   .     S
C110   C485    1.543   .     S
C110   C584    1.558   .     S
C111   C244    1.483   .     S
C112   C195    1.487   .     S
C113   H116    1.113   .     S
C113   H117    1.113   .     S
C113   C494    1.543   1_556 S
N114   H118    1.045   .     S
O115   C196    1.221   .     D
H120   C599    1.110   .     S
C121   C123    1.352   .     D
C121   N126    1.438   .     S
C121   H131    1.081   .     S
C122   N126    1.473   .     S
C122   C197    1.551   .     S
C122   C521    1.543   .     S
C122   C581    1.558   .     S
C123   C208    1.483   .     S
C124   C255    1.487   .     S
C125   H128    1.113   .     S
C125   H129    1.113   .     S
C125   C506    1.543   .     S
N126   H130    1.045   .     S
O127   C256    1.221   .     D
H132   C598    1.110   .     S
C133   C135    1.352   .     D
C133   N138    1.438   .     S
C133   H143    1.081   .     S
C134   N138    1.473   .     S
C134   C209    1.551   .     S
C134   C509    1.543   .     S
C134   C583    1.558   1_655 S
C135   C196    1.483   .     S
C136   C243    1.487   .     S
C137   H140    1.113   .     S
C137   H141    1.113   .     S
C137   C518    1.543   1_554 S
N138   H142    1.045   .     S
O139   C244    1.221   .     D
H144   C600    1.110   1_556 S
C145   C147    1.352   .     D
C145   N150    1.438   .     S
C145   H155    1.081   .     S
C146   N150    1.473   .     S
C146   C221    1.551   .     S
C146   C569    1.543   .     S
C146   C584    1.558   .     S
C147   C232    1.483   .     S
C148   C279    1.487   .     S
C149   H152    1.113   .     S
C149   H153    1.113   .     S
C149   C554    1.543   1_556 S
N150   H154    1.045   .     S
O151   C280    1.221   .     D
H156   C600    1.110   .     S
C157   C159    1.352   .     D
C157   N162    1.438   .     S
C157   H167    1.081   .     S
C158   N162    1.473   .     S
C158   C233    1.551   .     S
C158   C557    1.543   .     S
C158   C582    1.558   .     S
C159   C220    1.483   .     S
C160   C267    1.487   .     S
C161   H164    1.113   .     S
C161   H165    1.113   .     S
C161   C566    1.543   .     S
N162   H166    1.045   .     S
O163   C268    1.221   .     D
H168   C598    1.110   .     S
C169   C171    1.352   .     D
C169   N174    1.438   .     S
C169   H179    1.081   .     S
C170   N174    1.473   .     S
C170   C269    1.551   .     S
C170   C545    1.543   .     S
C170   C583    1.558   .     S
C171   C280    1.483   .     S
C172   C231    1.487   .     S
C173   H176    1.113   .     S
C173   H177    1.113   .     S
C173   C530    1.543   1_554 S
N174   H178    1.045   .     S
O175   C232    1.221   .     D
H180   C599    1.110   1_556 S
C181   C183    1.352   .     D
C181   N186    1.438   .     S
C181   H191    1.081   .     S
C182   N186    1.473   .     S
C182   C281    1.551   .     S
C182   C533    1.543   .     S
C182   C581    1.558   .     S
C183   C268    1.483   .     S
C184   C219    1.487   .     S
C185   H188    1.113   .     S
C185   H189    1.113   .     S
C185   C542    1.543   .     S
N186   H190    1.045   .     S
O187   C220    1.221   .     D
H192   C597    1.110   .     S
C193   C195    1.352   .     D
C193   N198    1.438   .     S
C193   H203    1.081   .     S
C194   N198    1.473   .     S
C194   C401    1.543   .     S
C194   C586    1.558   1_565 S
C197   H200    1.113   .     S
C197   H201    1.113   .     S
C197   C386    1.543   .     S
N198   H202    1.045   .     S
H204   C593    1.110   .     S
C205   C207    1.352   .     D
C205   N210    1.438   .     S
C205   H215    1.081   .     S
C206   N210    1.473   .     S
C206   C389    1.543   .     S
C206   C588    1.558   .     S
C209   H212    1.113   .     S
C209   H213    1.113   .     S
C209   C398    1.543   1_655 S
N210   H214    1.045   .     S
H216   C595    1.110   .     S
C217   C219    1.352   .     D
C217   N222    1.438   .     S
C217   H227    1.081   .     S
C218   N222    1.473   .     S
C218   C425    1.543   .     S
C218   C585    1.558   .     S
C221   H224    1.113   .     S
C221   H225    1.113   .     S
C221   C410    1.543   .     S
N222   H226    1.045   .     S
H228   C594    1.110   .     S
C229   C231    1.352   .     D
C229   N234    1.438   .     S
C229   H239    1.081   .     S
C230   N234    1.473   .     S
C230   C413    1.543   .     S
C230   C587    1.558   1_565 S
C233   H236    1.113   .     S
C233   H237    1.113   .     S
C233   C422    1.543   1_455 S
N234   H238    1.045   .     S
H240   C596    1.110   1_655 S
C241   C243    1.352   .     D
C241   N246    1.438   .     S
C241   H251    1.081   .     S
C242   N246    1.473   .     S
C242   C473    1.543   .     S
C242   C588    1.558   .     S
C245   H248    1.113   .     S
C245   H249    1.113   .     S
C245   C458    1.543   1_655 S
N246   H250    1.045   .     S
H252   C596    1.110   .     S
C253   C255    1.352   .     D
C253   N258    1.438   .     S
C253   H263    1.081   .     S
C254   N258    1.473   .     S
C254   C461    1.543   .     S
C254   C586    1.558   .     S
C257   H260    1.113   .     S
C257   H261    1.113   .     S
C257   C470    1.543   .     S
N258   H262    1.045   .     S
H264   C594    1.110   .     S
C265   C267    1.352   .     D
C265   N270    1.438   .     S
C265   H275    1.081   .     S
C266   N270    1.473   .     S
C266   C449    1.543   .     S
C266   C587    1.558   .     S
C269   H272    1.113   .     S
C269   H273    1.113   .     S
C269   C434    1.543   1_455 S
N270   H274    1.045   .     S
H276   C595    1.110   1_655 S
C277   C279    1.352   .     D
C277   N282    1.438   .     S
C277   H287    1.081   .     S
C278   N282    1.473   .     S
C278   C437    1.543   .     S
C278   C585    1.558   .     S
C281   H284    1.113   .     S
C281   H285    1.113   .     S
C281   C446    1.543   .     S
N282   H286    1.045   .     S
H288   C593    1.110   .     S
C289   C291    1.352   .     D
C289   N294    1.438   .     S
C289   H299    1.081   .     S
C290   N294    1.473   .     S
C290   C437    1.551   .     S
C290   C590    1.558   .     S
C291   C448    1.483   .     S
C291   C496    1.487   .     S
C292   C399    1.487   .     S
C292   O499    1.221   1_556 D
C292   C519    1.483   .     S
C293   H296    1.113   .     S
C293   H297    1.113   .     S
C293   C506    1.551   .     S
N294   H298    1.045   .     S
O295   C400    1.221   .     D
H300   C579    1.110   1_556 S
C301   C303    1.352   1_455 D
C301   N306    1.438   .     S
C301   H311    1.081   1_445 S
C302   C17     1.543   1_545 S
C302   N306    1.473   .     S
C302   C449    1.551   .     S
C302   C592    1.558   .     S
C303   C301    1.352   1_655 D
C303   C436    1.483   .     S
C303   C484    1.487   .     S
C304   C387    1.487   .     S
C304   O487    1.221   .     D
C304   C507    1.483   .     S
C305   H308    1.113   .     S
C305   H309    1.113   .     S
C305   C518    1.551   .     S
N306   H310    1.045   .     S
O307   C388    1.221   1_545 D
H311   C301    1.081   1_665 S
H312   C577    1.110   .     S
C313   C315    1.352   1_655 D
C313   N318    1.438   .     S
C313   H323    1.081   1_655 S
C314   N318    1.473   .     S
C314   C389    1.551   .     S
C314   C589    1.558   .     S
C315   C313    1.352   1_455 D
C315   C400    1.483   .     S
C315   C568    1.487   .     S
C316   C447    1.487   .     S
C316   C543    1.483   .     S
C316   O571    1.221   .     D
C317   H320    1.113   .     S
C317   H321    1.113   .     S
C317   C530    1.551   .     S
N318   H322    1.045   .     S
O319   C448    1.221   .     D
H323   C313    1.081   1_455 S
H324   C580    1.110   .     S
C325   C327    1.352   .     D
C325   N330    1.438   .     S
C325   H335    1.081   1_565 S
C326   C41     1.543   1_565 S
C326   N330    1.473   .     S
C326   C401    1.551   .     S
C326   C591    1.558   1_565 S
C327   C388    1.483   .     S
C327   C556    1.487   .     S
C328   C435    1.487   .     S
C328   C531    1.483   .     S
C328   O559    1.221   1_556 D
C329   H332    1.113   .     S
C329   H333    1.113   .     S
C329   C542    1.551   .     S
N330   H334    1.045   .     S
O331   C436    1.221   1_565 D
H335   C325    1.081   1_545 S
H336   C578    1.110   1_556 S
C337   C339    1.352   1_455 D
C337   N342    1.438   .     S
C337   H347    1.081   1_465 S
C338   C77     1.543   1_565 S
C338   N342    1.473   .     S
C338   C413    1.551   .     S
C338   C592    1.558   1_565 S
C339   C337    1.352   1_655 D
C339   C424    1.483   .     S
C339   C520    1.487   .     S
C340   C471    1.487   .     S
C340   C495    1.483   .     S
C340   O523    1.221   1_554 D
C341   H344    1.113   .     S
C341   H345    1.113   .     S
C341   C482    1.551   .     S
N342   H346    1.045   .     S
O343   C472    1.221   1_565 D
H347   C337    1.081   1_645 S
H348   C578    1.110   .     S
C349   C351    1.352   .     D
C349   N354    1.438   .     S
C349   H359    1.081   .     S
C350   N354    1.473   .     S
C350   C425    1.551   .     S
C350   C590    1.558   .     S
C351   C412    1.483   .     S
C351   C508    1.487   .     S
C352   C459    1.487   .     S
C352   C483    1.483   .     S
C352   O511    1.221   .     D
C353   H356    1.113   .     S
C353   H357    1.113   .     S
C353   C494    1.551   .     S
N354   H358    1.045   .     S
O355   C460    1.221   .     D
H360   C580    1.110   .     S
C361   C363    1.352   .     D
C361   N366    1.438   .     S
C361   H371    1.081   1_545 S
C362   C53     1.543   1_545 S
C362   N366    1.473   .     S
C362   C461    1.551   .     S
C362   C591    1.558   .     S
C363   C472    1.483   .     S
C363   C544    1.487   .     S
C364   C423    1.487   .     S
C364   O547    1.221   .     D
C364   C567    1.483   .     S
C365   H368    1.113   .     S
C365   H369    1.113   .     S
C365   C554    1.551   .     S
N366   H370    1.045   .     S
O367   C424    1.221   1_545 D
H371   C361    1.081   1_565 S
H372   C577    1.110   .     S
C373   C375    1.352   1_655 D
C373   N378    1.438   .     S
C373   H383    1.081   1_655 S
C374   N378    1.473   .     S
C374   C473    1.551   .     S
C374   C589    1.558   .     S
C375   C373    1.352   1_455 D
C375   C460    1.483   .     S
C375   C532    1.487   .     S
C376   C411    1.487   .     S
C376   O535    1.221   1_554 D
C376   C555    1.483   .     S
C377   H380    1.113   .     S
C377   H381    1.113   .     S
C377   C566    1.551   .     S
N378   H382    1.045   .     S
O379   C412    1.221   .     D
H383   C373    1.081   1_455 S
H384   C579    1.110   .     S
C385   C387    1.352   .     D
C385   N390    1.438   .     S
C385   H395    1.081   .     S
C386   N390    1.473   .     S
C386   C533    1.551   .     S
C386   C594    1.558   .     S
C387   C544    1.483   .     S
C388   O307    1.221   1_565 D
C388   C495    1.487   .     S
C389   H392    1.113   .     S
C389   H393    1.113   .     S
N390   H394    1.045   .     S
O391   C496    1.221   .     D
H396   C587    1.110   1_565 S
C397   C399    1.352   1_554 D
C397   N402    1.438   .     S
C397   H407    1.081   1_454 S
C398   C209    1.543   1_455 S
C398   N402    1.473   .     S
C398   C545    1.551   .     S
C398   C596    1.558   .     S
C399   C397    1.352   1_556 D
C399   C532    1.483   .     S
C400   C483    1.487   .     S
C401   H404    1.113   .     S
C401   H405    1.113   .     S
N402   H406    1.045   .     S
O403   C484    1.221   1_455 D
H407   C397    1.081   1_656 S
H408   C585    1.110   .     S
C409   C411    1.352   1_556 D
C409   N414    1.438   .     S
C409   H419    1.081   1_556 S
C410   N414    1.473   .     S
C410   C485    1.551   .     S
C410   C593    1.558   .     S
C411   C409    1.352   1_554 D
C411   C496    1.483   .     S
C412   C543    1.487   .     S
C413   H416    1.113   .     S
C413   H417    1.113   .     S
N414   H418    1.045   .     S
O415   C544    1.221   .     D
H419   C409    1.081   1_554 S
H420   C588    1.110   .     S
C421   C423    1.352   .     D
C421   N426    1.438   .     S
C421   H431    1.081   1_655 S
C422   C233    1.543   1_655 S
C422   N426    1.473   .     S
C422   C497    1.551   .     S
C422   C595    1.558   1_655 S
C423   C484    1.483   .     S
C424   O367    1.221   1_565 D
C424   C531    1.487   .     S
C425   H428    1.113   .     S
C425   H429    1.113   .     S
N426   H430    1.045   .     S
O427   C532    1.221   1_655 D
H431   C421    1.081   1_455 S
H432   C586    1.110   1_565 S
C433   C435    1.352   1_554 D
C433   N438    1.438   .     S
C433   H443    1.081   1_654 S
C434   C269    1.543   1_655 S
C434   N438    1.473   .     S
C434   C509    1.551   .     S
C434   C596    1.558   1_655 S
C435   C433    1.352   1_556 D
C435   C520    1.483   .     S
C436   O331    1.221   1_545 D
C436   C567    1.487   .     S
C437   H440    1.113   .     S
C437   H441    1.113   .     S
N438   H442    1.045   .     S
O439   C568    1.221   1_655 D
H443   C433    1.081   1_456 S
H444   C586    1.110   .     S
C445   C447    1.352   .     D
C445   N450    1.438   .     S
C445   H455    1.081   .     S
C446   N450    1.473   .     S
C446   C521    1.551   .     S
C446   C594    1.558   .     S
C447   C508    1.483   .     S
C448   C555    1.487   .     S
C449   H452    1.113   .     S
C449   H453    1.113   .     S
N450   H454    1.045   .     S
O451   C556    1.221   .     D
H456   C588    1.110   .     S
C457   C459    1.352   .     D
C457   N462    1.438   .     S
C457   H467    1.081   1_455 S
C458   C245    1.543   1_455 S
C458   N462    1.473   .     S
C458   C557    1.551   .     S
C458   C595    1.558   .     S
C459   C568    1.483   .     S
C460   C519    1.487   .     S
C461   H464    1.113   .     S
C461   H465    1.113   .     S
N462   H466    1.045   .     S
O463   C520    1.221   1_455 D
H467   C457    1.081   1_655 S
H468   C585    1.110   .     S
C469   C471    1.352   1_556 D
C469   N474    1.438   .     S
C469   H479    1.081   1_556 S
C470   N474    1.473   .     S
C470   C569    1.551   .     S
C470   C593    1.558   .     S
C471   C469    1.352   1_554 D
C471   C556    1.483   .     S
C472   O343    1.221   1_545 D
C472   C507    1.487   .     S
C473   H476    1.113   .     S
C473   H477    1.113   .     S
N474   H478    1.045   .     S
O475   C508    1.221   .     D
H479   C469    1.081   1_554 S
H480   C587    1.110   .     S
C481   C483    1.352   .     D
C481   N486    1.438   .     S
C481   H491    1.081   .     S
C482   N486    1.473   .     S
C482   C598    1.558   .     S
C484   O403    1.221   1_655 D
C485   H488    1.113   .     S
C485   H489    1.113   .     S
N486   H490    1.045   .     S
H492   C583    1.110   1_655 S
C493   C495    1.352   1_545 D
C493   N498    1.438   .     S
C493   H503    1.081   1_544 S
C494   C113    1.543   1_554 S
C494   N498    1.473   .     S
C494   C600    1.558   .     S
C495   C493    1.352   1_565 D
C497   H500    1.113   .     S
C497   H501    1.113   .     S
N498   H502    1.045   .     S
O499   C292    1.221   1_554 D
H503   C493    1.081   1_566 S
H504   C581    1.110   .     S
C505   C507    1.352   1_565 D
C505   N510    1.438   .     S
C505   H515    1.081   1_565 S
C506   N510    1.473   .     S
C506   C597    1.558   .     S
C507   C505    1.352   1_545 D
C509   H512    1.113   .     S
C509   H513    1.113   .     S
N510   H514    1.045   .     S
H515   C505    1.081   1_545 S
H516   C584    1.110   .     S
C517   C519    1.352   .     D
C517   N522    1.438   .     S
C517   H527    1.081   1_556 S
C518   C137    1.543   1_556 S
C518   N522    1.473   .     S
C518   C599    1.558   1_556 S
C520   O463    1.221   1_655 D
C521   H524    1.113   .     S
C521   H525    1.113   .     S
N522   H526    1.045   .     S
O523   C340    1.221   1_556 D
H527   C517    1.081   1_554 S
H528   C582    1.110   1_655 S
C529   C531    1.352   1_545 D
C529   N534    1.438   .     S
C529   H539    1.081   1_546 S
C530   C173    1.543   1_556 S
C530   N534    1.473   .     S
C530   C600    1.558   1_556 S
C531   C529    1.352   1_565 D
C532   O427    1.221   1_455 D
C533   H536    1.113   .     S
C533   H537    1.113   .     S
N534   H538    1.045   .     S
O535   C376    1.221   1_556 D
H539   C529    1.081   1_564 S
H540   C582    1.110   .     S
C541   C543    1.352   .     D
C541   N546    1.438   .     S
C541   H551    1.081   .     S
C542   N546    1.473   .     S
C542   C598    1.558   .     S
C545   H548    1.113   .     S
C545   H549    1.113   .     S
N546   H550    1.045   .     S
H552   C584    1.110   .     S
C553   C555    1.352   .     D
C553   N558    1.438   .     S
C553   H563    1.081   1_554 S
C554   C149    1.543   1_554 S
C554   N558    1.473   .     S
C554   C599    1.558   .     S
C557   H560    1.113   .     S
C557   H561    1.113   .     S
N558   H562    1.045   .     S
O559   C328    1.221   1_554 D
H563   C553    1.081   1_556 S
H564   C581    1.110   .     S
C565   C567    1.352   1_565 D
C565   N570    1.438   .     S
C565   H575    1.081   1_565 S
C566   N570    1.473   .     S
C566   C597    1.558   .     S
C567   C565    1.352   1_545 D
C568   O439    1.221   1_455 D
C569   H572    1.113   .     S
C569   H573    1.113   .     S
N570   H574    1.045   .     S
H575   C565    1.081   1_545 S
H576   C583    1.110   .     S
C578   C2      1.558   1_554 S
C578   H336    1.110   1_554 S
C579   H300    1.110   1_554 S
C579   C38     1.558   1_554 S
C582   C98     1.558   1_455 S
C582   H528    1.110   1_455 S
C583   C134    1.558   1_455 S
C583   H492    1.110   1_455 S
C586   C194    1.558   1_545 S
C586   H432    1.110   1_545 S
C587   C230    1.558   1_545 S
C587   H396    1.110   1_545 S
C591   H84     1.110   1_545 S
C591   C326    1.558   1_545 S
C592   H48     1.110   1_545 S
C592   C338    1.558   1_545 S
C595   H276    1.110   1_455 S
C595   C422    1.558   1_455 S
C596   H240    1.110   1_455 S
C596   C434    1.558   1_455 S
C599   H180    1.110   1_554 S
C599   C518    1.558   1_554 S
C600   C530    1.558   1_554 S
C600   H144    1.110   1_554 S
