data_51
_audit_creation_date              2023-09-08
_audit_creation_method            'Materials Studio'
_symmetry_space_group_name_H-M    'P1'
_symmetry_Int_Tables_number       1
_symmetry_cell_setting            triclinic
loop_
_symmetry_equiv_pos_as_xyz
  x,y,z
_cell_length_a                    70.2600
_cell_length_b                    70.2600
_cell_length_c                    3.4400
_cell_angle_alpha                 90.0000
_cell_angle_beta                  90.0000
_cell_angle_gamma                 120.0000
loop_
_atom_site_label
_atom_site_type_symbol
_atom_site_fract_x
_atom_site_fract_y
_atom_site_fract_z
_atom_site_U_iso_or_equiv
_atom_site_adp_type
_atom_site_occupancy
C1     C     0.20849   0.45737   0.00000   0.00000  Uiso   1.00
C2     C     0.21046   0.43894   0.00000   0.00000  Uiso   1.00
C3     C     0.24932   0.48018   0.00000   0.00000  Uiso   1.00
N4     N     0.22697   0.41844   0.00000   0.00000  Uiso   1.00
C5     C     0.20909   0.37144   0.00000   0.00000  Uiso   1.00
C6     C     0.20026   0.34847   0.00000   0.00000  Uiso   1.00
C7     C     0.21843   0.49740   0.00000   0.00000  Uiso   1.00
C8     C     0.13796   0.32942   0.00000   0.00000  Uiso   1.00
C9     C     0.23051   0.52120   0.00000   0.00000  Uiso   1.00
C10    C     0.22111   0.53459   0.00000   0.00000  Uiso   1.00
C11    C     0.19861   0.52607   0.00000   0.00000  Uiso   1.00
C12    C     0.18553   0.50347   0.00000   0.00000  Uiso   1.00
C13    C     0.19492   0.48982   0.00000   0.00000  Uiso   1.00
C14    C     0.23833   0.35167   0.00000   0.00000  Uiso   1.00
C15    C     0.25191   0.34242   0.00000   0.00000  Uiso   1.00
C16    C     0.24295   0.31966   0.00000   0.00000  Uiso   1.00
C17    C     0.22008   0.30619   0.00000   0.00000  Uiso   1.00
C18    C     0.20641   0.31532   0.00000   0.00000  Uiso   1.00
C19    C     0.37826   0.58024   0.00000   0.00000  Uiso   1.00
C20    C     0.37896   0.60069   0.00000   0.00000  Uiso   1.00
C21    C     0.41858   0.60032   0.00000   0.00000  Uiso   1.00
C22    C     0.26169   0.27757   0.00000   0.00000  Uiso   1.00
C23    C     0.24967   0.25459   0.00000   0.00000  Uiso   1.00
C24    C     0.29547   0.27591   0.00000   0.00000  Uiso   1.00
C25    C     0.20576   0.40525   0.00000   0.00000  Uiso   1.00
C26    C     0.19565   0.38091   0.00000   0.00000  Uiso   1.00
C27    C     0.17707   0.33524   0.00000   0.00000  Uiso   1.00
C28    C     0.22970   0.43991   0.00000   0.00000  Uiso   1.00
C29    C     0.24884   0.45949   0.00000   0.00000  Uiso   1.00
C30    C     0.22700   0.47962   0.00000   0.00000  Uiso   1.00
N31    N     0.19355   0.41665   0.00000   0.00000  Uiso   1.00
C32    C     0.16287   0.34412   0.00000   0.00000  Uiso   1.00
C33    C     0.17280   0.36724   0.00000   0.00000  Uiso   1.00
C34    C     0.27371   0.49927   0.00000   0.00000  Uiso   1.00
C35    C     0.21508   0.33841   0.00000   0.00000  Uiso   1.00
C36    C     0.29331   0.49742   0.00000   0.00000  Uiso   1.00
C37    C     0.31466   0.51613   0.00000   0.00000  Uiso   1.00
C38    C     0.31723   0.53721   0.00000   0.00000  Uiso   1.00
C39    C     0.29841   0.53895   0.00000   0.00000  Uiso   1.00
C40    C     0.27793   0.52026   0.00000   0.00000  Uiso   1.00
C41    C     0.12777   0.30615   0.00000   0.00000  Uiso   1.00
C42    C     0.10493   0.29276   0.00000   0.00000  Uiso   1.00
C43    C     0.09129   0.30192   0.00000   0.00000  Uiso   1.00
C44    C     0.10089   0.32481   0.00000   0.00000  Uiso   1.00
C45    C     0.12373   0.33831   0.00000   0.00000  Uiso   1.00
C46    C     0.39880   0.62022   0.00000   0.00000  Uiso   1.00
C47    C     0.41864   0.62035   0.00000   0.00000  Uiso   1.00
C48    C     0.39838   0.58035   0.00000   0.00000  Uiso   1.00
C49    C     0.26031   0.24228   0.00000   0.00000  Uiso   1.00
C50    C     0.28344   0.25292   0.00000   0.00000  Uiso   1.00
C51    C     0.28482   0.28822   0.00000   0.00000  Uiso   1.00
C52    C     0.78044   0.33843   0.00000   0.00000  Uiso   1.00
N53    N     0.79821   0.35769   0.00000   0.00000  Uiso   1.00
N54    N     0.79627   0.43788   0.00000   0.00000  Uiso   1.00
C55    C     0.81040   0.45876   0.00000   0.00000  Uiso   1.00
N56    N     0.29545   0.24129   0.00000   0.00000  Uiso   1.00
C57    C     0.28733   0.22012   0.00000   0.00000  Uiso   1.00
C58    C     0.25768   0.31032   0.00000   0.00000  Uiso   1.00
N59    N     0.24966   0.28917   0.00000   0.00000  Uiso   1.00
H60    H     0.19157   0.45228   0.00000   0.00000  Uiso   1.00
H61    H     0.22651   0.38253   0.00000   0.00000  Uiso   1.00
H62    H     0.24713   0.53332   0.00000   0.00000  Uiso   1.00
H63    H     0.23196   0.55233   0.00000   0.00000  Uiso   1.00
H64    H     0.16780   0.49616   0.00000   0.00000  Uiso   1.00
H65    H     0.18184   0.47326   0.00000   0.00000  Uiso   1.00
H66    H     0.24674   0.36932   0.00000   0.00000  Uiso   1.00
H67    H     0.26957   0.35320   0.00000   0.00000  Uiso   1.00
H68    H     0.21263   0.28846   0.00000   0.00000  Uiso   1.00
H69    H     0.18910   0.30363   0.00000   0.00000  Uiso   1.00
H70    H     0.36460   0.60243   0.00000   0.00000  Uiso   1.00
H71    H     0.43384   0.60006   0.00000   0.00000  Uiso   1.00
H72    H     0.23188   0.24615   0.00000   0.00000  Uiso   1.00
H73    H     0.31326   0.28435   0.00000   0.00000  Uiso   1.00
H74    H     0.17001   0.31792   0.00000   0.00000  Uiso   1.00
H75    H     0.26282   0.45734   0.00000   0.00000  Uiso   1.00
H76    H     0.17664   0.41060   0.00000   0.00000  Uiso   1.00
H77    H     0.16306   0.37502   0.00000   0.00000  Uiso   1.00
H78    H     0.29345   0.48223   0.00000   0.00000  Uiso   1.00
H79    H     0.32894   0.51408   0.00000   0.00000  Uiso   1.00
H80    H     0.29936   0.55483   0.00000   0.00000  Uiso   1.00
H81    H     0.26475   0.52132   0.00000   0.00000  Uiso   1.00
H82    H     0.13681   0.29753   0.00000   0.00000  Uiso   1.00
H83    H     0.09788   0.27508   0.00000   0.00000  Uiso   1.00
H84    H     0.09075   0.33241   0.00000   0.00000  Uiso   1.00
H85    H     0.12955   0.35566   0.00000   0.00000  Uiso   1.00
H86    H     0.39876   0.63562   0.00000   0.00000  Uiso   1.00
H87    H     0.39839   0.56495   0.00000   0.00000  Uiso   1.00
H88    H     0.25022   0.22461   0.00000   0.00000  Uiso   1.00
H89    H     0.29489   0.30589   0.00000   0.00000  Uiso   1.00
H90    H     0.76446   0.33693   0.00000   0.00000  Uiso   1.00
H91    H     0.82791   0.46482   0.00000   0.00000  Uiso   1.00
H92    H     0.26980   0.20897   0.00000   0.00000  Uiso   1.00
H93    H     0.27520   0.32154   0.00000   0.00000  Uiso   1.00
C94    C     0.54263   0.75112   0.00000   0.00000  Uiso   1.00
C95    C     0.56106   0.77152   0.00000   0.00000  Uiso   1.00
C96    C     0.51982   0.76914   0.00000   0.00000  Uiso   1.00
N97    N     0.58156   0.80853   0.00000   0.00000  Uiso   1.00
C98    C     0.62856   0.83765   0.00000   0.00000  Uiso   1.00
C99    C     0.65153   0.85179   0.00000   0.00000  Uiso   1.00
C100   C     0.50260   0.72103   0.00000   0.00000  Uiso   1.00
C101   C     0.67058   0.80854   0.00000   0.00000  Uiso   1.00
C102   C     0.47880   0.70931   0.00000   0.00000  Uiso   1.00
C103   C     0.46541   0.68652   0.00000   0.00000  Uiso   1.00
C104   C     0.47393   0.67254   0.00000   0.00000  Uiso   1.00
C105   C     0.49653   0.68206   0.00000   0.00000  Uiso   1.00
C106   C     0.51018   0.70510   0.00000   0.00000  Uiso   1.00
C107   C     0.64833   0.88666   0.00000   0.00000  Uiso   1.00
C108   C     0.65758   0.90949   0.00000   0.00000  Uiso   1.00
C109   C     0.68034   0.92329   0.00000   0.00000  Uiso   1.00
C110   C     0.69381   0.91389   0.00000   0.00000  Uiso   1.00
C111   C     0.68468   0.89109   0.00000   0.00000  Uiso   1.00
C112   C     0.41976   0.79802   0.00000   0.00000  Uiso   1.00
C113   C     0.39931   0.77827   0.00000   0.00000  Uiso   1.00
C114   C     0.39968   0.81826   0.00000   0.00000  Uiso   1.00
C115   C     0.72243   0.98412   0.00000   0.00000  Uiso   1.00
C116   C     0.74541   0.99508   0.00000   0.00000  Uiso   1.00
C117   C     0.72409   0.01956   0.00000   0.00000  Uiso   1.00
C118   C     0.59475   0.80051   0.00000   0.00000  Uiso   1.00
C119   C     0.61909   0.81474   0.00000   0.00000  Uiso   1.00
C120   C     0.66476   0.84183   0.00000   0.00000  Uiso   1.00
C121   C     0.56009   0.78979   0.00000   0.00000  Uiso   1.00
C122   C     0.54051   0.78935   0.00000   0.00000  Uiso   1.00
C123   C     0.52038   0.74738   0.00000   0.00000  Uiso   1.00
N124   N     0.58335   0.77690   0.00000   0.00000  Uiso   1.00
C125   C     0.65588   0.81875   0.00000   0.00000  Uiso   1.00
C126   C     0.63276   0.80556   0.00000   0.00000  Uiso   1.00
C127   C     0.50073   0.77444   0.00000   0.00000  Uiso   1.00
C128   C     0.66159   0.87667   0.00000   0.00000  Uiso   1.00
C129   C     0.50258   0.79589   0.00000   0.00000  Uiso   1.00
C130   C     0.48387   0.79853   0.00000   0.00000  Uiso   1.00
C131   C     0.46279   0.78002   0.00000   0.00000  Uiso   1.00
C132   C     0.46105   0.75946   0.00000   0.00000  Uiso   1.00
C133   C     0.47974   0.75767   0.00000   0.00000  Uiso   1.00
C134   C     0.69385   0.82162   0.00000   0.00000  Uiso   1.00
C135   C     0.70724   0.81217   0.00000   0.00000  Uiso   1.00
C136   C     0.69808   0.78937   0.00000   0.00000  Uiso   1.00
C137   C     0.67519   0.77608   0.00000   0.00000  Uiso   1.00
C138   C     0.66169   0.78542   0.00000   0.00000  Uiso   1.00
C139   C     0.37978   0.77858   0.00000   0.00000  Uiso   1.00
C140   C     0.37965   0.79829   0.00000   0.00000  Uiso   1.00
C141   C     0.41965   0.81803   0.00000   0.00000  Uiso   1.00
C142   C     0.75772   0.01803   0.00000   0.00000  Uiso   1.00
C143   C     0.74708   0.03052   0.00000   0.00000  Uiso   1.00
C144   C     0.71178   0.99660   0.00000   0.00000  Uiso   1.00
C145   C     0.66157   0.44201   0.00000   0.00000  Uiso   1.00
N146   N     0.64231   0.44052   0.00000   0.00000  Uiso   1.00
N147   N     0.56212   0.35839   0.00000   0.00000  Uiso   1.00
C148   C     0.54124   0.35164   0.00000   0.00000  Uiso   1.00
N149   N     0.75871   0.05416   0.00000   0.00000  Uiso   1.00
C150   C     0.77988   0.06721   0.00000   0.00000  Uiso   1.00
C151   C     0.68968   0.94736   0.00000   0.00000  Uiso   1.00
N152   N     0.71083   0.96049   0.00000   0.00000  Uiso   1.00
H153   H     0.54772   0.73929   0.00000   0.00000  Uiso   1.00
H154   H     0.61747   0.84398   0.00000   0.00000  Uiso   1.00
H155   H     0.46668   0.71381   0.00000   0.00000  Uiso   1.00
H156   H     0.44767   0.67963   0.00000   0.00000  Uiso   1.00
H157   H     0.50384   0.67164   0.00000   0.00000  Uiso   1.00
H158   H     0.52674   0.70858   0.00000   0.00000  Uiso   1.00
H159   H     0.63068   0.87742   0.00000   0.00000  Uiso   1.00
H160   H     0.64680   0.91637   0.00000   0.00000  Uiso   1.00
H161   H     0.71154   0.92417   0.00000   0.00000  Uiso   1.00
H162   H     0.69637   0.88547   0.00000   0.00000  Uiso   1.00
H163   H     0.39757   0.76217   0.00000   0.00000  Uiso   1.00
H164   H     0.39994   0.83378   0.00000   0.00000  Uiso   1.00
H165   H     0.75385   0.98573   0.00000   0.00000  Uiso   1.00
H166   H     0.71565   0.02891   0.00000   0.00000  Uiso   1.00
H167   H     0.68208   0.85209   0.00000   0.00000  Uiso   1.00
H168   H     0.54266   0.80548   0.00000   0.00000  Uiso   1.00
H169   H     0.58940   0.76604   0.00000   0.00000  Uiso   1.00
H170   H     0.62498   0.78804   0.00000   0.00000  Uiso   1.00
H171   H     0.51777   0.81122   0.00000   0.00000  Uiso   1.00
H172   H     0.48592   0.81486   0.00000   0.00000  Uiso   1.00
H173   H     0.44517   0.74453   0.00000   0.00000  Uiso   1.00
H174   H     0.47868   0.74343   0.00000   0.00000  Uiso   1.00
H175   H     0.70247   0.83928   0.00000   0.00000  Uiso   1.00
H176   H     0.72492   0.82280   0.00000   0.00000  Uiso   1.00
H177   H     0.66759   0.75834   0.00000   0.00000  Uiso   1.00
H178   H     0.64434   0.77389   0.00000   0.00000  Uiso   1.00
H179   H     0.36438   0.76314   0.00000   0.00000  Uiso   1.00
H180   H     0.43505   0.83344   0.00000   0.00000  Uiso   1.00
H181   H     0.77539   0.02561   0.00000   0.00000  Uiso   1.00
H182   H     0.69411   0.98900   0.00000   0.00000  Uiso   1.00
H183   H     0.66307   0.42753   0.00000   0.00000  Uiso   1.00
H184   H     0.53518   0.36309   0.00000   0.00000  Uiso   1.00
H185   H     0.79103   0.06083   0.00000   0.00000  Uiso   1.00
H186   H     0.67846   0.95366   0.00000   0.00000  Uiso   1.00
C187   C     0.24888   0.79151   0.00000   0.00000  Uiso   1.00
C188   C     0.22848   0.78954   0.00000   0.00000  Uiso   1.00
C189   C     0.23086   0.75068   0.00000   0.00000  Uiso   1.00
N190   N     0.19147   0.77303   0.00000   0.00000  Uiso   1.00
C191   C     0.16235   0.79091   0.00000   0.00000  Uiso   1.00
C192   C     0.14821   0.79974   0.00000   0.00000  Uiso   1.00
C193   C     0.27897   0.78157   0.00000   0.00000  Uiso   1.00
C194   C     0.19146   0.86204   0.00000   0.00000  Uiso   1.00
C195   C     0.29069   0.76949   0.00000   0.00000  Uiso   1.00
C196   C     0.31348   0.77889   0.00000   0.00000  Uiso   1.00
C197   C     0.32746   0.80139   0.00000   0.00000  Uiso   1.00
C198   C     0.31794   0.81447   0.00000   0.00000  Uiso   1.00
C199   C     0.29490   0.80508   0.00000   0.00000  Uiso   1.00
C200   C     0.11334   0.76167   0.00000   0.00000  Uiso   1.00
C201   C     0.09051   0.74809   0.00000   0.00000  Uiso   1.00
C202   C     0.07671   0.75705   0.00000   0.00000  Uiso   1.00
C203   C     0.08611   0.77992   0.00000   0.00000  Uiso   1.00
C204   C     0.10891   0.79359   0.00000   0.00000  Uiso   1.00
C205   C     0.20198   0.62174   0.00000   0.00000  Uiso   1.00
C206   C     0.22173   0.62104   0.00000   0.00000  Uiso   1.00
C207   C     0.18174   0.58142   0.00000   0.00000  Uiso   1.00
C208   C     0.01588   0.73831   0.00000   0.00000  Uiso   1.00
C209   C     0.00492   0.75033   0.00000   0.00000  Uiso   1.00
C210   C     0.98044   0.70453   0.00000   0.00000  Uiso   1.00
C211   C     0.19949   0.79424   0.00000   0.00000  Uiso   1.00
C212   C     0.18526   0.80435   0.00000   0.00000  Uiso   1.00
C213   C     0.15817   0.82293   0.00000   0.00000  Uiso   1.00
C214   C     0.21021   0.77030   0.00000   0.00000  Uiso   1.00
C215   C     0.21065   0.75116   0.00000   0.00000  Uiso   1.00
C216   C     0.25262   0.77300   0.00000   0.00000  Uiso   1.00
N217   N     0.22310   0.80645   0.00000   0.00000  Uiso   1.00
C218   C     0.18125   0.83713   0.00000   0.00000  Uiso   1.00
C219   C     0.19444   0.82720   0.00000   0.00000  Uiso   1.00
C220   C     0.22556   0.72629   0.00000   0.00000  Uiso   1.00
C221   C     0.12333   0.78492   0.00000   0.00000  Uiso   1.00
C222   C     0.20411   0.70669   0.00000   0.00000  Uiso   1.00
C223   C     0.20147   0.68534   0.00000   0.00000  Uiso   1.00
C224   C     0.21998   0.68277   0.00000   0.00000  Uiso   1.00
C225   C     0.24054   0.70159   0.00000   0.00000  Uiso   1.00
C226   C     0.24233   0.72207   0.00000   0.00000  Uiso   1.00
C227   C     0.17838   0.87223   0.00000   0.00000  Uiso   1.00
C228   C     0.18783   0.89507   0.00000   0.00000  Uiso   1.00
C229   C     0.21063   0.90871   0.00000   0.00000  Uiso   1.00
C230   C     0.22392   0.89911   0.00000   0.00000  Uiso   1.00
C231   C     0.21458   0.87627   0.00000   0.00000  Uiso   1.00
C232   C     0.22142   0.60120   0.00000   0.00000  Uiso   1.00
C233   C     0.20171   0.58136   0.00000   0.00000  Uiso   1.00
C234   C     0.18197   0.60162   0.00000   0.00000  Uiso   1.00
C235   C     0.98197   0.73969   0.00000   0.00000  Uiso   1.00
C236   C     0.96948   0.71656   0.00000   0.00000  Uiso   1.00
C237   C     0.00340   0.71518   0.00000   0.00000  Uiso   1.00
C238   C     0.55799   0.21956   0.00000   0.00000  Uiso   1.00
N239   N     0.55948   0.20179   0.00000   0.00000  Uiso   1.00
N240   N     0.64161   0.20373   0.00000   0.00000  Uiso   1.00
C241   C     0.64836   0.18960   0.00000   0.00000  Uiso   1.00
N242   N     0.94584   0.70455   0.00000   0.00000  Uiso   1.00
C243   C     0.93279   0.71267   0.00000   0.00000  Uiso   1.00
C244   C     0.05264   0.74232   0.00000   0.00000  Uiso   1.00
N245   N     0.03951   0.75034   0.00000   0.00000  Uiso   1.00
H246   H     0.26071   0.80843   0.00000   0.00000  Uiso   1.00
H247   H     0.15602   0.77349   0.00000   0.00000  Uiso   1.00
H248   H     0.28619   0.75287   0.00000   0.00000  Uiso   1.00
H249   H     0.32037   0.76804   0.00000   0.00000  Uiso   1.00
H250   H     0.32836   0.83220   0.00000   0.00000  Uiso   1.00
H251   H     0.29142   0.81816   0.00000   0.00000  Uiso   1.00
H252   H     0.12258   0.75326   0.00000   0.00000  Uiso   1.00
H253   H     0.08363   0.73043   0.00000   0.00000  Uiso   1.00
H254   H     0.07583   0.78737   0.00000   0.00000  Uiso   1.00
H255   H     0.11453   0.81090   0.00000   0.00000  Uiso   1.00
H256   H     0.23783   0.63540   0.00000   0.00000  Uiso   1.00
H257   H     0.16622   0.56616   0.00000   0.00000  Uiso   1.00
H258   H     0.01427   0.76812   0.00000   0.00000  Uiso   1.00
H259   H     0.97109   0.68674   0.00000   0.00000  Uiso   1.00
H260   H     0.14791   0.82999   0.00000   0.00000  Uiso   1.00
H261   H     0.19452   0.73718   0.00000   0.00000  Uiso   1.00
H262   H     0.23396   0.82336   0.00000   0.00000  Uiso   1.00
H263   H     0.21196   0.83694   0.00000   0.00000  Uiso   1.00
H264   H     0.18878   0.70655   0.00000   0.00000  Uiso   1.00
H265   H     0.18514   0.67106   0.00000   0.00000  Uiso   1.00
H266   H     0.25547   0.70064   0.00000   0.00000  Uiso   1.00
H267   H     0.25657   0.73525   0.00000   0.00000  Uiso   1.00
H268   H     0.16072   0.86319   0.00000   0.00000  Uiso   1.00
H269   H     0.17720   0.90212   0.00000   0.00000  Uiso   1.00
H270   H     0.24166   0.90925   0.00000   0.00000  Uiso   1.00
H271   H     0.22611   0.87045   0.00000   0.00000  Uiso   1.00
H272   H     0.23686   0.60124   0.00000   0.00000  Uiso   1.00
H273   H     0.16656   0.60161   0.00000   0.00000  Uiso   1.00
H274   H     0.97439   0.74978   0.00000   0.00000  Uiso   1.00
H275   H     0.01100   0.70511   0.00000   0.00000  Uiso   1.00
H276   H     0.57247   0.23554   0.00000   0.00000  Uiso   1.00
H277   H     0.63691   0.17209   0.00000   0.00000  Uiso   1.00
H278   H     0.93917   0.73020   0.00000   0.00000  Uiso   1.00
H279   H     0.04634   0.72480   0.00000   0.00000  Uiso   1.00
C280   C     0.79151   0.54263   0.00000   0.00000  Uiso   1.00
C281   C     0.78954   0.56106   0.00000   0.00000  Uiso   1.00
C282   C     0.75068   0.51982   0.00000   0.00000  Uiso   1.00
N283   N     0.77303   0.58156   0.00000   0.00000  Uiso   1.00
C284   C     0.79091   0.62856   0.00000   0.00000  Uiso   1.00
C285   C     0.79974   0.65153   0.00000   0.00000  Uiso   1.00
C286   C     0.78157   0.50260   0.00000   0.00000  Uiso   1.00
C287   C     0.86204   0.67058   0.00000   0.00000  Uiso   1.00
C288   C     0.76949   0.47880   0.00000   0.00000  Uiso   1.00
C289   C     0.77889   0.46541   0.00000   0.00000  Uiso   1.00
C290   C     0.80139   0.47393   0.00000   0.00000  Uiso   1.00
C291   C     0.81447   0.49653   0.00000   0.00000  Uiso   1.00
C292   C     0.80508   0.51018   0.00000   0.00000  Uiso   1.00
C293   C     0.76167   0.64833   0.00000   0.00000  Uiso   1.00
C294   C     0.74809   0.65758   0.00000   0.00000  Uiso   1.00
C295   C     0.75705   0.68034   0.00000   0.00000  Uiso   1.00
C296   C     0.77992   0.69381   0.00000   0.00000  Uiso   1.00
C297   C     0.79359   0.68468   0.00000   0.00000  Uiso   1.00
C298   C     0.62174   0.41976   0.00000   0.00000  Uiso   1.00
C299   C     0.62104   0.39931   0.00000   0.00000  Uiso   1.00
C300   C     0.58142   0.39968   0.00000   0.00000  Uiso   1.00
C301   C     0.73831   0.72243   0.00000   0.00000  Uiso   1.00
C302   C     0.75033   0.74541   0.00000   0.00000  Uiso   1.00
C303   C     0.70453   0.72409   0.00000   0.00000  Uiso   1.00
C304   C     0.79424   0.59475   0.00000   0.00000  Uiso   1.00
C305   C     0.80435   0.61909   0.00000   0.00000  Uiso   1.00
C306   C     0.82293   0.66476   0.00000   0.00000  Uiso   1.00
C307   C     0.77030   0.56009   0.00000   0.00000  Uiso   1.00
C308   C     0.75116   0.54051   0.00000   0.00000  Uiso   1.00
C309   C     0.77300   0.52038   0.00000   0.00000  Uiso   1.00
N310   N     0.80645   0.58335   0.00000   0.00000  Uiso   1.00
C311   C     0.83713   0.65588   0.00000   0.00000  Uiso   1.00
C312   C     0.82720   0.63276   0.00000   0.00000  Uiso   1.00
C313   C     0.72629   0.50073   0.00000   0.00000  Uiso   1.00
C314   C     0.78492   0.66159   0.00000   0.00000  Uiso   1.00
C315   C     0.70669   0.50258   0.00000   0.00000  Uiso   1.00
C316   C     0.68534   0.48387   0.00000   0.00000  Uiso   1.00
C317   C     0.68277   0.46279   0.00000   0.00000  Uiso   1.00
C318   C     0.70159   0.46105   0.00000   0.00000  Uiso   1.00
C319   C     0.72207   0.47974   0.00000   0.00000  Uiso   1.00
C320   C     0.87223   0.69385   0.00000   0.00000  Uiso   1.00
C321   C     0.89507   0.70724   0.00000   0.00000  Uiso   1.00
C322   C     0.90871   0.69808   0.00000   0.00000  Uiso   1.00
C323   C     0.89911   0.67519   0.00000   0.00000  Uiso   1.00
C324   C     0.87627   0.66169   0.00000   0.00000  Uiso   1.00
C325   C     0.60120   0.37978   0.00000   0.00000  Uiso   1.00
C326   C     0.58136   0.37965   0.00000   0.00000  Uiso   1.00
C327   C     0.60162   0.41965   0.00000   0.00000  Uiso   1.00
C328   C     0.73969   0.75772   0.00000   0.00000  Uiso   1.00
C329   C     0.71656   0.74708   0.00000   0.00000  Uiso   1.00
C330   C     0.71518   0.71178   0.00000   0.00000  Uiso   1.00
C331   C     0.21956   0.66157   0.00000   0.00000  Uiso   1.00
N332   N     0.20179   0.64231   0.00000   0.00000  Uiso   1.00
N333   N     0.20373   0.56212   0.00000   0.00000  Uiso   1.00
C334   C     0.18960   0.54124   0.00000   0.00000  Uiso   1.00
N335   N     0.70455   0.75871   0.00000   0.00000  Uiso   1.00
C336   C     0.71267   0.77988   0.00000   0.00000  Uiso   1.00
C337   C     0.74232   0.68968   0.00000   0.00000  Uiso   1.00
N338   N     0.75034   0.71083   0.00000   0.00000  Uiso   1.00
H339   H     0.80843   0.54772   0.00000   0.00000  Uiso   1.00
H340   H     0.77349   0.61747   0.00000   0.00000  Uiso   1.00
H341   H     0.75287   0.46668   0.00000   0.00000  Uiso   1.00
H342   H     0.76804   0.44767   0.00000   0.00000  Uiso   1.00
H343   H     0.83220   0.50384   0.00000   0.00000  Uiso   1.00
H344   H     0.81816   0.52674   0.00000   0.00000  Uiso   1.00
H345   H     0.75326   0.63068   0.00000   0.00000  Uiso   1.00
H346   H     0.73043   0.64680   0.00000   0.00000  Uiso   1.00
H347   H     0.78737   0.71154   0.00000   0.00000  Uiso   1.00
H348   H     0.81090   0.69637   0.00000   0.00000  Uiso   1.00
H349   H     0.63540   0.39757   0.00000   0.00000  Uiso   1.00
H350   H     0.56616   0.39994   0.00000   0.00000  Uiso   1.00
H351   H     0.76812   0.75385   0.00000   0.00000  Uiso   1.00
H352   H     0.68674   0.71565   0.00000   0.00000  Uiso   1.00
H353   H     0.82999   0.68208   0.00000   0.00000  Uiso   1.00
H354   H     0.73718   0.54266   0.00000   0.00000  Uiso   1.00
H355   H     0.82336   0.58940   0.00000   0.00000  Uiso   1.00
H356   H     0.83694   0.62498   0.00000   0.00000  Uiso   1.00
H357   H     0.70655   0.51777   0.00000   0.00000  Uiso   1.00
H358   H     0.67106   0.48592   0.00000   0.00000  Uiso   1.00
H359   H     0.70064   0.44517   0.00000   0.00000  Uiso   1.00
H360   H     0.73525   0.47868   0.00000   0.00000  Uiso   1.00
H361   H     0.86319   0.70247   0.00000   0.00000  Uiso   1.00
H362   H     0.90212   0.72492   0.00000   0.00000  Uiso   1.00
H363   H     0.90925   0.66759   0.00000   0.00000  Uiso   1.00
H364   H     0.87045   0.64434   0.00000   0.00000  Uiso   1.00
H365   H     0.60124   0.36438   0.00000   0.00000  Uiso   1.00
H366   H     0.60161   0.43505   0.00000   0.00000  Uiso   1.00
H367   H     0.74978   0.77539   0.00000   0.00000  Uiso   1.00
H368   H     0.70511   0.69411   0.00000   0.00000  Uiso   1.00
H369   H     0.23554   0.66307   0.00000   0.00000  Uiso   1.00
H370   H     0.17209   0.53518   0.00000   0.00000  Uiso   1.00
H371   H     0.73020   0.79103   0.00000   0.00000  Uiso   1.00
H372   H     0.72480   0.67846   0.00000   0.00000  Uiso   1.00
C373   C     0.45737   0.24888   0.00000   0.00000  Uiso   1.00
C374   C     0.43894   0.22848   0.00000   0.00000  Uiso   1.00
C375   C     0.48018   0.23086   0.00000   0.00000  Uiso   1.00
N376   N     0.41844   0.19147   0.00000   0.00000  Uiso   1.00
C377   C     0.37144   0.16235   0.00000   0.00000  Uiso   1.00
C378   C     0.34847   0.14821   0.00000   0.00000  Uiso   1.00
C379   C     0.49740   0.27897   0.00000   0.00000  Uiso   1.00
C380   C     0.32942   0.19146   0.00000   0.00000  Uiso   1.00
C381   C     0.52120   0.29069   0.00000   0.00000  Uiso   1.00
C382   C     0.53459   0.31348   0.00000   0.00000  Uiso   1.00
C383   C     0.52607   0.32746   0.00000   0.00000  Uiso   1.00
C384   C     0.50347   0.31794   0.00000   0.00000  Uiso   1.00
C385   C     0.48982   0.29490   0.00000   0.00000  Uiso   1.00
C386   C     0.35167   0.11334   0.00000   0.00000  Uiso   1.00
C387   C     0.34242   0.09051   0.00000   0.00000  Uiso   1.00
C388   C     0.31966   0.07671   0.00000   0.00000  Uiso   1.00
C389   C     0.30619   0.08611   0.00000   0.00000  Uiso   1.00
C390   C     0.31532   0.10891   0.00000   0.00000  Uiso   1.00
C391   C     0.58024   0.20198   0.00000   0.00000  Uiso   1.00
C392   C     0.60069   0.22173   0.00000   0.00000  Uiso   1.00
C393   C     0.60032   0.18174   0.00000   0.00000  Uiso   1.00
C394   C     0.27757   0.01588   0.00000   0.00000  Uiso   1.00
C395   C     0.25459   0.00492   0.00000   0.00000  Uiso   1.00
C396   C     0.27591   0.98044   0.00000   0.00000  Uiso   1.00
C397   C     0.40525   0.19949   0.00000   0.00000  Uiso   1.00
C398   C     0.38091   0.18526   0.00000   0.00000  Uiso   1.00
C399   C     0.33524   0.15817   0.00000   0.00000  Uiso   1.00
C400   C     0.43991   0.21021   0.00000   0.00000  Uiso   1.00
C401   C     0.45949   0.21065   0.00000   0.00000  Uiso   1.00
C402   C     0.47962   0.25262   0.00000   0.00000  Uiso   1.00
N403   N     0.41665   0.22310   0.00000   0.00000  Uiso   1.00
C404   C     0.34412   0.18125   0.00000   0.00000  Uiso   1.00
C405   C     0.36724   0.19444   0.00000   0.00000  Uiso   1.00
C406   C     0.49927   0.22556   0.00000   0.00000  Uiso   1.00
C407   C     0.33841   0.12333   0.00000   0.00000  Uiso   1.00
C408   C     0.49742   0.20411   0.00000   0.00000  Uiso   1.00
C409   C     0.51613   0.20147   0.00000   0.00000  Uiso   1.00
C410   C     0.53721   0.21998   0.00000   0.00000  Uiso   1.00
C411   C     0.53895   0.24054   0.00000   0.00000  Uiso   1.00
C412   C     0.52026   0.24233   0.00000   0.00000  Uiso   1.00
C413   C     0.30615   0.17838   0.00000   0.00000  Uiso   1.00
C414   C     0.29276   0.18783   0.00000   0.00000  Uiso   1.00
C415   C     0.30192   0.21063   0.00000   0.00000  Uiso   1.00
C416   C     0.32481   0.22392   0.00000   0.00000  Uiso   1.00
C417   C     0.33831   0.21458   0.00000   0.00000  Uiso   1.00
C418   C     0.62022   0.22142   0.00000   0.00000  Uiso   1.00
C419   C     0.62035   0.20171   0.00000   0.00000  Uiso   1.00
C420   C     0.58035   0.18197   0.00000   0.00000  Uiso   1.00
C421   C     0.24228   0.98197   0.00000   0.00000  Uiso   1.00
C422   C     0.25292   0.96948   0.00000   0.00000  Uiso   1.00
C423   C     0.28822   0.00340   0.00000   0.00000  Uiso   1.00
C424   C     0.33843   0.55799   0.00000   0.00000  Uiso   1.00
N425   N     0.35769   0.55948   0.00000   0.00000  Uiso   1.00
N426   N     0.43788   0.64161   0.00000   0.00000  Uiso   1.00
C427   C     0.45876   0.64836   0.00000   0.00000  Uiso   1.00
N428   N     0.24129   0.94584   0.00000   0.00000  Uiso   1.00
C429   C     0.22012   0.93279   0.00000   0.00000  Uiso   1.00
C430   C     0.31032   0.05264   0.00000   0.00000  Uiso   1.00
N431   N     0.28917   0.03951   0.00000   0.00000  Uiso   1.00
H432   H     0.45228   0.26071   0.00000   0.00000  Uiso   1.00
H433   H     0.38253   0.15602   0.00000   0.00000  Uiso   1.00
H434   H     0.53332   0.28619   0.00000   0.00000  Uiso   1.00
H435   H     0.55233   0.32037   0.00000   0.00000  Uiso   1.00
H436   H     0.49616   0.32836   0.00000   0.00000  Uiso   1.00
H437   H     0.47326   0.29142   0.00000   0.00000  Uiso   1.00
H438   H     0.36932   0.12258   0.00000   0.00000  Uiso   1.00
H439   H     0.35320   0.08363   0.00000   0.00000  Uiso   1.00
H440   H     0.28846   0.07583   0.00000   0.00000  Uiso   1.00
H441   H     0.30363   0.11453   0.00000   0.00000  Uiso   1.00
H442   H     0.60243   0.23783   0.00000   0.00000  Uiso   1.00
H443   H     0.60006   0.16622   0.00000   0.00000  Uiso   1.00
H444   H     0.24615   0.01427   0.00000   0.00000  Uiso   1.00
H445   H     0.28435   0.97109   0.00000   0.00000  Uiso   1.00
H446   H     0.31792   0.14791   0.00000   0.00000  Uiso   1.00
H447   H     0.45734   0.19452   0.00000   0.00000  Uiso   1.00
H448   H     0.41060   0.23396   0.00000   0.00000  Uiso   1.00
H449   H     0.37502   0.21196   0.00000   0.00000  Uiso   1.00
H450   H     0.48223   0.18878   0.00000   0.00000  Uiso   1.00
H451   H     0.51408   0.18514   0.00000   0.00000  Uiso   1.00
H452   H     0.55483   0.25547   0.00000   0.00000  Uiso   1.00
H453   H     0.52132   0.25657   0.00000   0.00000  Uiso   1.00
H454   H     0.29753   0.16072   0.00000   0.00000  Uiso   1.00
H455   H     0.27508   0.17720   0.00000   0.00000  Uiso   1.00
H456   H     0.33241   0.24166   0.00000   0.00000  Uiso   1.00
H457   H     0.35566   0.22611   0.00000   0.00000  Uiso   1.00
H458   H     0.63562   0.23686   0.00000   0.00000  Uiso   1.00
H459   H     0.56495   0.16656   0.00000   0.00000  Uiso   1.00
H460   H     0.22461   0.97439   0.00000   0.00000  Uiso   1.00
H461   H     0.30589   0.01100   0.00000   0.00000  Uiso   1.00
H462   H     0.33693   0.57247   0.00000   0.00000  Uiso   1.00
H463   H     0.46482   0.63691   0.00000   0.00000  Uiso   1.00
H464   H     0.20897   0.93917   0.00000   0.00000  Uiso   1.00
H465   H     0.32154   0.04634   0.00000   0.00000  Uiso   1.00
C466   C     0.75112   0.20849   0.00000   0.00000  Uiso   1.00
C467   C     0.77152   0.21046   0.00000   0.00000  Uiso   1.00
C468   C     0.76914   0.24932   0.00000   0.00000  Uiso   1.00
N469   N     0.80853   0.22697   0.00000   0.00000  Uiso   1.00
C470   C     0.83765   0.20909   0.00000   0.00000  Uiso   1.00
C471   C     0.85179   0.20026   0.00000   0.00000  Uiso   1.00
C472   C     0.72103   0.21843   0.00000   0.00000  Uiso   1.00
C473   C     0.80854   0.13796   0.00000   0.00000  Uiso   1.00
C474   C     0.70931   0.23051   0.00000   0.00000  Uiso   1.00
C475   C     0.68652   0.22111   0.00000   0.00000  Uiso   1.00
C476   C     0.67254   0.19861   0.00000   0.00000  Uiso   1.00
C477   C     0.68206   0.18553   0.00000   0.00000  Uiso   1.00
C478   C     0.70510   0.19492   0.00000   0.00000  Uiso   1.00
C479   C     0.88666   0.23833   0.00000   0.00000  Uiso   1.00
C480   C     0.90949   0.25191   0.00000   0.00000  Uiso   1.00
C481   C     0.92329   0.24295   0.00000   0.00000  Uiso   1.00
C482   C     0.91389   0.22008   0.00000   0.00000  Uiso   1.00
C483   C     0.89109   0.20641   0.00000   0.00000  Uiso   1.00
C484   C     0.79802   0.37826   0.00000   0.00000  Uiso   1.00
C485   C     0.77827   0.37896   0.00000   0.00000  Uiso   1.00
C486   C     0.81826   0.41858   0.00000   0.00000  Uiso   1.00
C487   C     0.98412   0.26169   0.00000   0.00000  Uiso   1.00
C488   C     0.99508   0.24967   0.00000   0.00000  Uiso   1.00
C489   C     0.01956   0.29547   0.00000   0.00000  Uiso   1.00
C490   C     0.80051   0.20576   0.00000   0.00000  Uiso   1.00
C491   C     0.81474   0.19565   0.00000   0.00000  Uiso   1.00
C492   C     0.84183   0.17707   0.00000   0.00000  Uiso   1.00
C493   C     0.78979   0.22970   0.00000   0.00000  Uiso   1.00
C494   C     0.78935   0.24884   0.00000   0.00000  Uiso   1.00
C495   C     0.74738   0.22700   0.00000   0.00000  Uiso   1.00
N496   N     0.77690   0.19355   0.00000   0.00000  Uiso   1.00
C497   C     0.81875   0.16287   0.00000   0.00000  Uiso   1.00
C498   C     0.80556   0.17280   0.00000   0.00000  Uiso   1.00
C499   C     0.77444   0.27371   0.00000   0.00000  Uiso   1.00
C500   C     0.87667   0.21508   0.00000   0.00000  Uiso   1.00
C501   C     0.79589   0.29331   0.00000   0.00000  Uiso   1.00
C502   C     0.79853   0.31466   0.00000   0.00000  Uiso   1.00
C503   C     0.78002   0.31723   0.00000   0.00000  Uiso   1.00
C504   C     0.75946   0.29841   0.00000   0.00000  Uiso   1.00
C505   C     0.75767   0.27793   0.00000   0.00000  Uiso   1.00
C506   C     0.82162   0.12777   0.00000   0.00000  Uiso   1.00
C507   C     0.81217   0.10493   0.00000   0.00000  Uiso   1.00
C508   C     0.78937   0.09129   0.00000   0.00000  Uiso   1.00
C509   C     0.77608   0.10089   0.00000   0.00000  Uiso   1.00
C510   C     0.78542   0.12373   0.00000   0.00000  Uiso   1.00
C511   C     0.77858   0.39880   0.00000   0.00000  Uiso   1.00
C512   C     0.79829   0.41864   0.00000   0.00000  Uiso   1.00
C513   C     0.81803   0.39838   0.00000   0.00000  Uiso   1.00
C514   C     0.01803   0.26031   0.00000   0.00000  Uiso   1.00
C515   C     0.03052   0.28344   0.00000   0.00000  Uiso   1.00
C516   C     0.99660   0.28482   0.00000   0.00000  Uiso   1.00
C517   C     0.44201   0.78044   0.00000   0.00000  Uiso   1.00
N518   N     0.44052   0.79821   0.00000   0.00000  Uiso   1.00
N519   N     0.35839   0.79627   0.00000   0.00000  Uiso   1.00
C520   C     0.35164   0.81040   0.00000   0.00000  Uiso   1.00
N521   N     0.05416   0.29545   0.00000   0.00000  Uiso   1.00
C522   C     0.06721   0.28733   0.00000   0.00000  Uiso   1.00
C523   C     0.94736   0.25768   0.00000   0.00000  Uiso   1.00
N524   N     0.96049   0.24966   0.00000   0.00000  Uiso   1.00
H525   H     0.73929   0.19157   0.00000   0.00000  Uiso   1.00
H526   H     0.84398   0.22651   0.00000   0.00000  Uiso   1.00
H527   H     0.71381   0.24713   0.00000   0.00000  Uiso   1.00
H528   H     0.67963   0.23196   0.00000   0.00000  Uiso   1.00
H529   H     0.67164   0.16780   0.00000   0.00000  Uiso   1.00
H530   H     0.70858   0.18184   0.00000   0.00000  Uiso   1.00
H531   H     0.87742   0.24674   0.00000   0.00000  Uiso   1.00
H532   H     0.91637   0.26957   0.00000   0.00000  Uiso   1.00
H533   H     0.92417   0.21263   0.00000   0.00000  Uiso   1.00
H534   H     0.88547   0.18910   0.00000   0.00000  Uiso   1.00
H535   H     0.76217   0.36460   0.00000   0.00000  Uiso   1.00
H536   H     0.83378   0.43384   0.00000   0.00000  Uiso   1.00
H537   H     0.98573   0.23188   0.00000   0.00000  Uiso   1.00
H538   H     0.02891   0.31326   0.00000   0.00000  Uiso   1.00
H539   H     0.85209   0.17001   0.00000   0.00000  Uiso   1.00
H540   H     0.80548   0.26282   0.00000   0.00000  Uiso   1.00
H541   H     0.76604   0.17664   0.00000   0.00000  Uiso   1.00
H542   H     0.78804   0.16306   0.00000   0.00000  Uiso   1.00
H543   H     0.81122   0.29345   0.00000   0.00000  Uiso   1.00
H544   H     0.81486   0.32894   0.00000   0.00000  Uiso   1.00
H545   H     0.74453   0.29936   0.00000   0.00000  Uiso   1.00
H546   H     0.74343   0.26475   0.00000   0.00000  Uiso   1.00
H547   H     0.83928   0.13681   0.00000   0.00000  Uiso   1.00
H548   H     0.82280   0.09788   0.00000   0.00000  Uiso   1.00
H549   H     0.75834   0.09075   0.00000   0.00000  Uiso   1.00
H550   H     0.77389   0.12955   0.00000   0.00000  Uiso   1.00
H551   H     0.76314   0.39876   0.00000   0.00000  Uiso   1.00
H552   H     0.83344   0.39839   0.00000   0.00000  Uiso   1.00
H553   H     0.02561   0.25022   0.00000   0.00000  Uiso   1.00
H554   H     0.98900   0.29489   0.00000   0.00000  Uiso   1.00
H555   H     0.42753   0.76446   0.00000   0.00000  Uiso   1.00
H556   H     0.36309   0.82791   0.00000   0.00000  Uiso   1.00
H557   H     0.06083   0.26980   0.00000   0.00000  Uiso   1.00
H558   H     0.95366   0.27520   0.00000   0.00000  Uiso   1.00
loop_
_geom_bond_atom_site_label_1
_geom_bond_atom_site_label_2
_geom_bond_distance
_geom_bond_site_symmetry_2
_ccdc_geom_bond_type
C1     C2      1.369   .     D
C1     C30     1.450   .     S
C1     H60     1.056   .     S
C2     C28     1.319   .     S
C2     N31     1.415   .     S
C3     C29     1.437   .     S
C3     C30     1.549   .     S
C3     C34     1.561   .     D
N4     C25     1.303   .     D
N4     C28     1.422   .     S
C5     C6      1.410   .     S
C5     C26     1.401   .     D
C5     H61     1.073   .     S
C6     C27     1.416   .     D
C6     C35     1.523   .     S
C7     C9      1.448   .     S
C7     C13     1.460   .     S
C7     C30     1.636   .     D
C8     C32     1.524   .     S
C8     C41     1.420   .     S
C8     C45     1.419   .     D
C9     C10     1.394   .     D
C9     H62     1.046   .     S
C10    C11     1.382   .     S
C10    H63     1.088   .     S
C11    C12     1.381   .     S
C11    C334    1.487   .     D
C12    C13     1.410   .     D
C12    H64     1.084   .     S
C13    H65     1.063   .     S
C14    C15     1.397   .     S
C14    C35     1.419   .     D
C14    H66     1.074   .     S
C15    C16     1.395   .     D
C15    H67     1.083   .     S
C16    C17     1.399   .     S
C16    C58     1.477   .     S
C17    C18     1.396   .     D
C17    H68     1.083   .     S
C18    C35     1.419   .     S
C18    H69     1.075   .     S
C19    C20     1.413   .     S
C19    C48     1.410   .     S
C19    N425    1.452   .     D
C20    C46     1.383   .     D
C20    H70     1.075   .     S
C21    C47     1.405   .     S
C21    C48     1.411   .     D
C21    H71     1.081   .     S
C22    C23     1.399   .     D
C22    C51     1.409   .     S
C22    N59     1.438   .     S
C23    C49     1.398   .     S
C23    H72     1.083   .     S
C24    C50     1.399   .     S
C24    C51     1.398   .     D
C24    H73     1.083   .     S
C25    C26     1.488   .     S
C25    N31     1.437   .     S
C26    C33     1.399   .     S
C27    C32     1.417   .     S
C27    H74     1.060   .     S
C28    C29     1.360   .     D
C29    H75     1.066   .     S
N31    H76     1.043   .     S
C32    C33     1.411   .     D
C33    H77     1.068   .     S
C34    C36     1.446   .     S
C34    C40     1.351   .     S
C36    C37     1.416   .     D
C36    H78     1.072   .     S
C37    C38     1.400   .     S
C37    H79     1.083   .     S
C38    C39     1.387   .     S
C38    C424    1.475   .     D
C39    C40     1.380   .     D
C39    H80     1.084   .     S
C40    H81     0.965   .     S
C41    C42     1.397   .     D
C41    H82     1.075   .     S
C42    C43     1.396   .     S
C42    H83     1.083   .     S
C43    C44     1.399   .     D
C43    C522    1.476   .     S
C44    C45     1.397   .     S
C44    H84     1.083   .     S
C45    H85     1.075   .     S
C46    C47     1.389   .     S
C46    H86     1.083   .     S
C47    N426    1.428   .     D
C48    H87     1.082   .     S
C49    C50     1.409   .     D
C49    H88     1.079   .     S
C50    N56     1.438   .     S
C51    H89     1.079   .     S
C52    N53     1.304   .     D
C52    H90     1.074   .     S
C52    C503    1.475   .     S
N53    C484    1.452   .     S
N54    C55     1.297   .     D
N54    C512    1.428   .     S
C55    H91     1.082   .     S
C55    C290    1.487   .     S
N56    C57     1.300   .     D
C57    H92     1.080   .     S
C57    C415    1.476   .     S
C58    N59     1.299   .     D
C58    H93     1.080   .     S
C94    C95     1.369   .     D
C94    C123    1.450   .     S
C94    H153    1.056   .     S
C95    C121    1.319   .     S
C95    N124    1.415   .     S
C96    C122    1.437   .     S
C96    C123    1.549   .     S
C96    C127    1.561   .     D
N97    C118    1.303   .     D
N97    C121    1.422   .     S
C98    C99     1.410   .     D
C98    C119    1.401   .     S
C98    H154    1.073   .     S
C99    C120    1.416   .     S
C99    C128    1.523   .     S
C100   C102    1.448   .     S
C100   C106    1.460   .     S
C100   C123    1.636   .     D
C101   C125    1.524   .     S
C101   C134    1.420   .     D
C101   C138    1.419   .     S
C102   C103    1.394   .     D
C102   H155    1.046   .     S
C103   C104    1.382   .     S
C103   H156    1.088   .     S
C104   C105    1.381   .     S
C104   C427    1.487   .     D
C105   C106    1.410   .     D
C105   H157    1.084   .     S
C106   H158    1.063   .     S
C107   C108    1.397   .     S
C107   C128    1.419   .     D
C107   H159    1.074   .     S
C108   C109    1.395   .     D
C108   H160    1.083   .     S
C109   C110    1.399   .     S
C109   C151    1.477   .     S
C110   C111    1.396   .     D
C110   H161    1.083   .     S
C111   C128    1.419   .     S
C111   H162    1.075   .     S
C112   C113    1.413   .     S
C112   C141    1.410   .     S
C112   N518    1.452   .     D
C113   C139    1.383   .     D
C113   H163    1.075   .     S
C114   C140    1.405   .     S
C114   C141    1.411   .     D
C114   H164    1.081   .     S
C115   C116    1.399   .     S
C115   C144    1.409   .     D
C115   N152    1.438   .     S
C116   C142    1.398   1_565 D
C116   H165    1.083   .     S
C117   C143    1.399   .     D
C117   C144    1.398   1_545 S
C117   H166    1.083   .     S
C118   C119    1.488   .     S
C118   N124    1.437   .     S
C119   C126    1.399   .     D
C120   C125    1.417   .     D
C120   H167    1.060   .     S
C121   C122    1.360   .     D
C122   H168    1.066   .     S
N124   H169    1.043   .     S
C125   C126    1.411   .     S
C126   H170    1.068   .     S
C127   C129    1.446   .     S
C127   C133    1.351   .     S
C129   C130    1.416   .     D
C129   H171    1.072   .     S
C130   C131    1.400   .     S
C130   H172    1.083   .     S
C131   C132    1.387   .     S
C131   C517    1.475   .     D
C132   C133    1.380   .     D
C132   H173    1.084   .     S
C133   H174    0.965   .     S
C134   C135    1.397   .     S
C134   H175    1.075   .     S
C135   C136    1.396   .     D
C135   H176    1.083   .     S
C136   C137    1.399   .     S
C136   C336    1.476   .     S
C137   C138    1.397   .     D
C137   H177    1.083   .     S
C138   H178    1.075   .     S
C139   C140    1.389   .     S
C139   H179    1.083   .     S
C140   N519    1.428   .     D
C141   H180    1.082   .     S
C142   C116    1.398   1_545 D
C142   C143    1.409   .     S
C142   H181    1.079   .     S
C143   N149    1.438   .     S
C144   C117    1.398   1_565 S
C144   H182    1.079   .     S
C145   N146    1.304   .     D
C145   H183    1.074   .     S
C145   C317    1.475   .     S
N146   C298    1.452   .     S
N147   C148    1.297   .     D
N147   C326    1.428   .     S
C148   H184    1.082   .     S
C148   C383    1.487   .     S
N149   C150    1.300   .     D
C150   H185    1.080   .     S
C150   C508    1.476   .     S
C151   N152    1.299   .     D
C151   H186    1.080   .     S
C187   C188    1.369   .     D
C187   C216    1.450   .     S
C187   H246    1.056   .     S
C188   C214    1.319   .     S
C188   N217    1.415   .     S
C189   C215    1.437   .     S
C189   C216    1.549   .     S
C189   C220    1.561   .     D
N190   C211    1.303   .     D
N190   C214    1.422   .     S
C191   C192    1.410   .     S
C191   C212    1.401   .     D
C191   H247    1.073   .     S
C192   C213    1.416   .     D
C192   C221    1.523   .     S
C193   C195    1.448   .     S
C193   C199    1.460   .     S
C193   C216    1.636   .     D
C194   C218    1.524   .     S
C194   C227    1.420   .     D
C194   C231    1.419   .     S
C195   C196    1.394   .     D
C195   H248    1.046   .     S
C196   C197    1.382   .     S
C196   H249    1.088   .     S
C197   C198    1.381   .     S
C197   C520    1.487   .     D
C198   C199    1.410   .     D
C198   H250    1.084   .     S
C199   H251    1.063   .     S
C200   C201    1.397   .     D
C200   C221    1.419   .     S
C200   H252    1.074   .     S
C201   C202    1.395   .     S
C201   H253    1.083   .     S
C202   C203    1.399   .     D
C202   C244    1.477   .     S
C203   C204    1.396   .     S
C203   H254    1.083   .     S
C204   C221    1.419   .     D
C204   H255    1.075   .     S
C205   C206    1.413   .     S
C205   C234    1.410   .     S
C205   N332    1.452   .     D
C206   C232    1.383   .     D
C206   H256    1.075   .     S
C207   C233    1.405   .     S
C207   C234    1.411   .     D
C207   H257    1.081   .     S
C208   C209    1.399   .     D
C208   C237    1.409   .     S
C208   N245    1.438   .     S
C209   C235    1.398   1_455 S
C209   H258    1.083   .     S
C210   C236    1.399   .     S
C210   C237    1.398   1_655 D
C210   H259    1.083   .     S
C211   C212    1.488   .     S
C211   N217    1.437   .     S
C212   C219    1.399   .     S
C213   C218    1.417   .     S
C213   H260    1.060   .     S
C214   C215    1.360   .     D
C215   H261    1.066   .     S
N217   H262    1.043   .     S
C218   C219    1.411   .     D
C219   H263    1.068   .     S
C220   C222    1.446   .     S
C220   C226    1.351   .     S
C222   C223    1.416   .     D
C222   H264    1.072   .     S
C223   C224    1.400   .     S
C223   H265    1.083   .     S
C224   C225    1.387   .     S
C224   C331    1.475   .     D
C225   C226    1.380   .     D
C225   H266    1.084   .     S
C226   H267    0.965   .     S
C227   C228    1.397   .     S
C227   H268    1.075   .     S
C228   C229    1.396   .     D
C228   H269    1.083   .     S
C229   C230    1.399   .     S
C229   C429    1.476   .     S
C230   C231    1.397   .     D
C230   H270    1.083   .     S
C231   H271    1.075   .     S
C232   C233    1.389   .     S
C232   H272    1.083   .     S
C233   N333    1.428   .     D
C234   H273    1.082   .     S
C235   C209    1.398   1_655 S
C235   C236    1.409   .     D
C235   H274    1.079   .     S
C236   N242    1.438   .     S
C237   C210    1.398   1_455 D
C237   H275    1.079   .     S
C238   N239    1.304   .     D
C238   H276    1.074   .     S
C238   C410    1.475   .     S
N239   C391    1.452   .     S
N240   C241    1.297   .     D
N240   C419    1.428   .     S
C241   H277    1.082   .     S
C241   C476    1.487   .     S
N242   C243    1.300   .     D
C243   H278    1.080   .     S
C243   C322    1.476   .     S
C244   N245    1.299   .     D
C244   H279    1.080   .     S
C280   C281    1.369   .     D
C280   C309    1.450   .     S
C280   H339    1.056   .     S
C281   C307    1.319   .     S
C281   N310    1.415   .     S
C282   C308    1.437   .     S
C282   C309    1.549   .     D
C282   C313    1.561   .     S
N283   C304    1.303   .     D
N283   C307    1.422   .     S
C284   C285    1.410   .     S
C284   C305    1.401   .     D
C284   H340    1.073   .     S
C285   C306    1.416   .     D
C285   C314    1.523   .     S
C286   C288    1.448   .     D
C286   C292    1.460   .     S
C286   C309    1.636   .     S
C287   C311    1.524   .     S
C287   C320    1.420   .     D
C287   C324    1.419   .     S
C288   C289    1.394   .     S
C288   H341    1.046   .     S
C289   C290    1.382   .     D
C289   H342    1.088   .     S
C290   C291    1.381   .     S
C291   C292    1.410   .     D
C291   H343    1.084   .     S
C292   H344    1.063   .     S
C293   C294    1.397   .     S
C293   C314    1.419   .     D
C293   H345    1.074   .     S
C294   C295    1.395   .     D
C294   H346    1.083   .     S
C295   C296    1.399   .     S
C295   C337    1.477   .     S
C296   C297    1.396   .     D
C296   H347    1.083   .     S
C297   C314    1.419   .     S
C297   H348    1.075   .     S
C298   C299    1.413   .     D
C298   C327    1.410   .     S
C299   C325    1.383   .     S
C299   H349    1.075   .     S
C300   C326    1.405   .     S
C300   C327    1.411   .     D
C300   H350    1.081   .     S
C301   C302    1.399   .     D
C301   C330    1.409   .     S
C301   N338    1.438   .     S
C302   C328    1.398   .     S
C302   H351    1.083   .     S
C303   C329    1.399   .     S
C303   C330    1.398   .     D
C303   H352    1.083   .     S
C304   C305    1.488   .     S
C304   N310    1.437   .     S
C305   C312    1.399   .     S
C306   C311    1.417   .     S
C306   H353    1.060   .     S
C307   C308    1.360   .     D
C308   H354    1.066   .     S
N310   H355    1.043   .     S
C311   C312    1.411   .     D
C312   H356    1.068   .     S
C313   C315    1.446   .     D
C313   C319    1.351   .     S
C315   C316    1.416   .     S
C315   H357    1.072   .     S
C316   C317    1.400   .     D
C316   H358    1.083   .     S
C317   C318    1.387   .     S
C318   C319    1.380   .     D
C318   H359    1.084   .     S
C319   H360    0.965   .     S
C320   C321    1.397   .     S
C320   H361    1.075   .     S
C321   C322    1.396   .     D
C321   H362    1.083   .     S
C322   C323    1.399   .     S
C323   C324    1.397   .     D
C323   H363    1.083   .     S
C324   H364    1.075   .     S
C325   C326    1.389   .     D
C325   H365    1.083   .     S
C327   H366    1.082   .     S
C328   C329    1.409   .     D
C328   H367    1.079   .     S
C329   N335    1.438   .     S
C330   H368    1.079   .     S
C331   N332    1.304   .     S
C331   H369    1.074   .     S
N333   C334    1.297   .     S
C334   H370    1.082   .     S
N335   C336    1.300   .     D
C336   H371    1.080   .     S
C337   N338    1.299   .     D
C337   H372    1.080   .     S
C373   C374    1.369   .     S
C373   C402    1.450   .     D
C373   H432    1.056   .     S
C374   C400    1.319   .     D
C374   N403    1.415   .     S
C375   C401    1.437   .     D
C375   C402    1.549   .     S
C375   C406    1.561   .     S
N376   C397    1.303   .     D
N376   C400    1.422   .     S
C377   C378    1.410   .     D
C377   C398    1.401   .     S
C377   H433    1.073   .     S
C378   C399    1.416   .     S
C378   C407    1.523   .     S
C379   C381    1.448   .     D
C379   C385    1.460   .     S
C379   C402    1.636   .     S
C380   C404    1.524   .     S
C380   C413    1.420   .     D
C380   C417    1.419   .     S
C381   C382    1.394   .     S
C381   H434    1.046   .     S
C382   C383    1.382   .     D
C382   H435    1.088   .     S
C383   C384    1.381   .     S
C384   C385    1.410   .     D
C384   H436    1.084   .     S
C385   H437    1.063   .     S
C386   C387    1.397   .     D
C386   C407    1.419   .     S
C386   H438    1.074   .     S
C387   C388    1.395   .     S
C387   H439    1.083   .     S
C388   C389    1.399   .     D
C388   C430    1.477   .     S
C389   C390    1.396   .     S
C389   H440    1.083   .     S
C390   C407    1.419   .     D
C390   H441    1.075   .     S
C391   C392    1.413   .     S
C391   C420    1.410   .     D
C392   C418    1.383   .     D
C392   H442    1.075   .     S
C393   C419    1.405   .     D
C393   C420    1.411   .     S
C393   H443    1.081   .     S
C394   C395    1.399   .     D
C394   C423    1.409   .     S
C394   N431    1.438   .     S
C395   C421    1.398   1_545 S
C395   H444    1.083   .     S
C396   C422    1.399   .     S
C396   C423    1.398   1_565 D
C396   H445    1.083   .     S
C397   C398    1.488   .     S
C397   N403    1.437   .     S
C398   C405    1.399   .     D
C399   C404    1.417   .     D
C399   H446    1.060   .     S
C400   C401    1.360   .     S
C401   H447    1.066   .     S
N403   H448    1.043   .     S
C404   C405    1.411   .     S
C405   H449    1.068   .     S
C406   C408    1.446   .     D
C406   C412    1.351   .     S
C408   C409    1.416   .     S
C408   H450    1.072   .     S
C409   C410    1.400   .     D
C409   H451    1.083   .     S
C410   C411    1.387   .     S
C411   C412    1.380   .     D
C411   H452    1.084   .     S
C412   H453    0.965   .     S
C413   C414    1.397   .     S
C413   H454    1.075   .     S
C414   C415    1.396   .     D
C414   H455    1.083   .     S
C415   C416    1.399   .     S
C416   C417    1.397   .     D
C416   H456    1.083   .     S
C417   H457    1.075   .     S
C418   C419    1.389   .     S
C418   H458    1.083   .     S
C420   H459    1.082   .     S
C421   C395    1.398   1_565 S
C421   C422    1.409   .     D
C421   H460    1.079   .     S
C422   N428    1.438   .     S
C423   C396    1.398   1_545 D
C423   H461    1.079   .     S
C424   N425    1.304   .     S
C424   H462    1.074   .     S
N426   C427    1.297   .     S
C427   H463    1.082   .     S
N428   C429    1.300   .     D
C429   H464    1.080   .     S
C430   N431    1.299   .     D
C430   H465    1.080   .     S
C466   C467    1.369   .     S
C466   C495    1.450   .     D
C466   H525    1.056   .     S
C467   C493    1.319   .     D
C467   N496    1.415   .     S
C468   C494    1.437   .     D
C468   C495    1.549   .     S
C468   C499    1.561   .     S
N469   C490    1.303   .     D
N469   C493    1.422   .     S
C470   C471    1.410   .     D
C470   C491    1.401   .     S
C470   H526    1.073   .     S
C471   C492    1.416   .     S
C471   C500    1.523   .     S
C472   C474    1.448   .     D
C472   C478    1.460   .     S
C472   C495    1.636   .     S
C473   C497    1.524   .     S
C473   C506    1.420   .     D
C473   C510    1.419   .     S
C474   C475    1.394   .     S
C474   H527    1.046   .     S
C475   C476    1.382   .     D
C475   H528    1.088   .     S
C476   C477    1.381   .     S
C477   C478    1.410   .     D
C477   H529    1.084   .     S
C478   H530    1.063   .     S
C479   C480    1.397   .     D
C479   C500    1.419   .     S
C479   H531    1.074   .     S
C480   C481    1.395   .     S
C480   H532    1.083   .     S
C481   C482    1.399   .     D
C481   C523    1.477   .     S
C482   C483    1.396   .     S
C482   H533    1.083   .     S
C483   C500    1.419   .     D
C483   H534    1.075   .     S
C484   C485    1.413   .     D
C484   C513    1.410   .     S
C485   C511    1.383   .     S
C485   H535    1.075   .     S
C486   C512    1.405   .     S
C486   C513    1.411   .     D
C486   H536    1.081   .     S
C487   C488    1.399   .     S
C487   C516    1.409   .     D
C487   N524    1.438   .     S
C488   C514    1.398   1_655 D
C488   H537    1.083   .     S
C489   C515    1.399   .     D
C489   C516    1.398   1_455 S
C489   H538    1.083   .     S
C490   C491    1.488   .     S
C490   N496    1.437   .     S
C491   C498    1.399   .     D
C492   C497    1.417   .     D
C492   H539    1.060   .     S
C493   C494    1.360   .     S
C494   H540    1.066   .     S
N496   H541    1.043   .     S
C497   C498    1.411   .     S
C498   H542    1.068   .     S
C499   C501    1.446   .     D
C499   C505    1.351   .     S
C501   C502    1.416   .     S
C501   H543    1.072   .     S
C502   C503    1.400   .     D
C502   H544    1.083   .     S
C503   C504    1.387   .     S
C504   C505    1.380   .     D
C504   H545    1.084   .     S
C505   H546    0.965   .     S
C506   C507    1.397   .     S
C506   H547    1.075   .     S
C507   C508    1.396   .     D
C507   H548    1.083   .     S
C508   C509    1.399   .     S
C509   C510    1.397   .     D
C509   H549    1.083   .     S
C510   H550    1.075   .     S
C511   C512    1.389   .     D
C511   H551    1.083   .     S
C513   H552    1.082   .     S
C514   C488    1.398   1_455 D
C514   C515    1.409   .     S
C514   H553    1.079   .     S
C515   N521    1.438   .     S
C516   C489    1.398   1_655 S
C516   H554    1.079   .     S
C517   N518    1.304   .     S
C517   H555    1.074   .     S
N519   C520    1.297   .     S
C520   H556    1.082   .     S
N521   C522    1.300   .     D
C522   H557    1.080   .     S
C523   N524    1.299   .     D
C523   H558    1.080   .     S
