data_52
_audit_creation_date              2023-09-08
_audit_creation_method            'Materials Studio'
_symmetry_space_group_name_H-M    'P1'
_symmetry_Int_Tables_number       1
_symmetry_cell_setting            triclinic
loop_
_symmetry_equiv_pos_as_xyz
  x,y,z
_cell_length_a                    70.2100
_cell_length_b                    70.2100
_cell_length_c                    6.4900
_cell_angle_alpha                 90.0000
_cell_angle_beta                  90.0000
_cell_angle_gamma                 120.0000
loop_
_atom_site_label
_atom_site_type_symbol
_atom_site_fract_x
_atom_site_fract_y
_atom_site_fract_z
_atom_site_U_iso_or_equiv
_atom_site_adp_type
_atom_site_occupancy
C1     C     0.54537   0.12346   0.25000   0.00000  Uiso   1.00
C2     C     0.54774   0.10525   0.25000   0.00000  Uiso   1.00
C3     C     0.58616   0.14685   0.25000   0.00000  Uiso   1.00
N4     N     0.56471   0.08515   0.25000   0.00000  Uiso   1.00
C5     C     0.54699   0.03796   0.25000   0.00000  Uiso   1.00
C6     C     0.53810   0.01495   0.25000   0.00000  Uiso   1.00
C7     C     0.55450   0.16324   0.25000   0.00000  Uiso   1.00
C8     C     0.47577   0.99607   0.25000   0.00000  Uiso   1.00
C9     C     0.56616   0.18706   0.25000   0.00000  Uiso   1.00
C10    C     0.55631   0.20007   0.25000   0.00000  Uiso   1.00
C11    C     0.53373   0.19111   0.25000   0.00000  Uiso   1.00
C12    C     0.52103   0.16845   0.25000   0.00000  Uiso   1.00
C13    C     0.53087   0.15519   0.25000   0.00000  Uiso   1.00
C14    C     0.57617   0.01805   0.25000   0.00000  Uiso   1.00
C15    C     0.58968   0.00870   0.25000   0.00000  Uiso   1.00
C16    C     0.58059   0.98589   0.25000   0.00000  Uiso   1.00
C17    C     0.55768   0.97252   0.25000   0.00000  Uiso   1.00
C18    C     0.54410   0.98173   0.25000   0.00000  Uiso   1.00
C19    C     0.71436   0.24890   0.25000   0.00000  Uiso   1.00
C20    C     0.71452   0.26911   0.25000   0.00000  Uiso   1.00
C21    C     0.75471   0.26983   0.25000   0.00000  Uiso   1.00
C22    C     0.59829   0.94298   0.25000   0.00000  Uiso   1.00
C23    C     0.58576   0.92000   0.25000   0.00000  Uiso   1.00
C24    C     0.63153   0.94033   0.25000   0.00000  Uiso   1.00
C25    C     0.54352   0.07175   0.25000   0.00000  Uiso   1.00
C26    C     0.53355   0.04742   0.25000   0.00000  Uiso   1.00
C27    C     0.51486   0.00172   0.25000   0.00000  Uiso   1.00
C28    C     0.56713   0.10653   0.25000   0.00000  Uiso   1.00
C29    C     0.58610   0.12634   0.25000   0.00000  Uiso   1.00
C30    C     0.56360   0.14585   0.25000   0.00000  Uiso   1.00
N31    N     0.53105   0.08290   0.25000   0.00000  Uiso   1.00
C32    C     0.50071   0.01065   0.25000   0.00000  Uiso   1.00
C33    C     0.51070   0.03375   0.25000   0.00000  Uiso   1.00
C34    C     0.61042   0.16629   0.25000   0.00000  Uiso   1.00
C35    C     0.55289   0.00484   0.25000   0.00000  Uiso   1.00
C36    C     0.63029   0.16490   0.25000   0.00000  Uiso   1.00
C37    C     0.65147   0.18390   0.25000   0.00000  Uiso   1.00
C38    C     0.65360   0.20481   0.25000   0.00000  Uiso   1.00
C39    C     0.63452   0.20611   0.25000   0.00000  Uiso   1.00
C40    C     0.61421   0.18716   0.25000   0.00000  Uiso   1.00
C41    C     0.46540   0.97277   0.25000   0.00000  Uiso   1.00
C42    C     0.44250   0.95954   0.25000   0.00000  Uiso   1.00
C43    C     0.42905   0.96894   0.25000   0.00000  Uiso   1.00
C44    C     0.43886   0.99186   0.25000   0.00000  Uiso   1.00
C45    C     0.46170   0.00516   0.25000   0.00000  Uiso   1.00
C46    C     0.73411   0.28892   0.25000   0.00000  Uiso   1.00
C47    C     0.75422   0.28960   0.25000   0.00000  Uiso   1.00
C48    C     0.73477   0.24956   0.25000   0.00000  Uiso   1.00
C49    C     0.59589   0.90720   0.25000   0.00000  Uiso   1.00
C50    C     0.61900   0.91732   0.25000   0.00000  Uiso   1.00
C51    C     0.62140   0.95313   0.25000   0.00000  Uiso   1.00
C52    C     0.11556   0.00819   0.25000   0.00000  Uiso   1.00
N53    N     0.13312   0.02762   0.25000   0.00000  Uiso   1.00
N54    N     0.12899   0.10665   0.25000   0.00000  Uiso   1.00
C55    C     0.14265   0.12763   0.25000   0.00000  Uiso   1.00
N56    N     0.63048   0.90515   0.25000   0.00000  Uiso   1.00
C57    C     0.62192   0.88390   0.25000   0.00000  Uiso   1.00
C58    C     0.59511   0.97630   0.25000   0.00000  Uiso   1.00
N59    N     0.58674   0.95508   0.25000   0.00000  Uiso   1.00
C60    C     0.12104   0.20964   0.25000   0.00000  Uiso   1.00
C61    C     0.11867   0.22784   0.25000   0.00000  Uiso   1.00
C62    C     0.08027   0.18621   0.25000   0.00000  Uiso   1.00
N63    N     0.10172   0.24798   0.25000   0.00000  Uiso   1.00
C64    C     0.11966   0.29540   0.25000   0.00000  Uiso   1.00
C65    C     0.12872   0.31847   0.25000   0.00000  Uiso   1.00
C66    C     0.11201   0.16991   0.25000   0.00000  Uiso   1.00
C67    C     0.19101   0.33693   0.25000   0.00000  Uiso   1.00
C68    C     0.10042   0.14610   0.25000   0.00000  Uiso   1.00
C69    C     0.11036   0.13317   0.25000   0.00000  Uiso   1.00
C70    C     0.13297   0.14223   0.25000   0.00000  Uiso   1.00
C71    C     0.14558   0.16486   0.25000   0.00000  Uiso   1.00
C72    C     0.13565   0.17803   0.25000   0.00000  Uiso   1.00
C73    C     0.09081   0.31580   0.25000   0.00000  Uiso   1.00
C74    C     0.07745   0.32534   0.25000   0.00000  Uiso   1.00
C75    C     0.08669   0.34817   0.25000   0.00000  Uiso   1.00
C76    C     0.10961   0.36139   0.25000   0.00000  Uiso   1.00
C77    C     0.12305   0.35197   0.25000   0.00000  Uiso   1.00
C78    C     0.95205   0.08450   0.25000   0.00000  Uiso   1.00
C79    C     0.95187   0.06429   0.25000   0.00000  Uiso   1.00
C80    C     0.91171   0.06363   0.25000   0.00000  Uiso   1.00
C81    C     0.06905   0.39121   0.25000   0.00000  Uiso   1.00
C82    C     0.08155   0.41420   0.25000   0.00000  Uiso   1.00
C83    C     0.03577   0.39384   0.25000   0.00000  Uiso   1.00
C84    C     0.12293   0.26138   0.25000   0.00000  Uiso   1.00
C85    C     0.13299   0.28577   0.25000   0.00000  Uiso   1.00
C86    C     0.15199   0.33155   0.25000   0.00000  Uiso   1.00
C87    C     0.09928   0.22657   0.25000   0.00000  Uiso   1.00
C88    C     0.08032   0.20673   0.25000   0.00000  Uiso   1.00
C89    C     0.10283   0.18723   0.25000   0.00000  Uiso   1.00
N90    N     0.13536   0.25019   0.25000   0.00000  Uiso   1.00
C91    C     0.16602   0.32248   0.25000   0.00000  Uiso   1.00
C92    C     0.15587   0.29935   0.25000   0.00000  Uiso   1.00
C93    C     0.05602   0.16677   0.25000   0.00000  Uiso   1.00
C94    C     0.11410   0.32882   0.25000   0.00000  Uiso   1.00
C95    C     0.03618   0.16820   0.25000   0.00000  Uiso   1.00
C96    C     0.01499   0.14926   0.25000   0.00000  Uiso   1.00
C97    C     0.01281   0.12835   0.25000   0.00000  Uiso   1.00
C98    C     0.03185   0.12697   0.25000   0.00000  Uiso   1.00
C99    C     0.05218   0.14586   0.25000   0.00000  Uiso   1.00
C100   C     0.20153   0.36025   0.25000   0.00000  Uiso   1.00
C101   C     0.22444   0.37337   0.25000   0.00000  Uiso   1.00
C102   C     0.23781   0.36387   0.25000   0.00000  Uiso   1.00
C103   C     0.22786   0.34093   0.25000   0.00000  Uiso   1.00
C104   C     0.20499   0.32773   0.25000   0.00000  Uiso   1.00
C105   C     0.93229   0.04452   0.25000   0.00000  Uiso   1.00
C106   C     0.91222   0.04386   0.25000   0.00000  Uiso   1.00
C107   C     0.93166   0.08389   0.25000   0.00000  Uiso   1.00
C108   C     0.07140   0.42698   0.25000   0.00000  Uiso   1.00
C109   C     0.04829   0.41684   0.25000   0.00000  Uiso   1.00
C110   C     0.04593   0.38105   0.25000   0.00000  Uiso   1.00
C111   C     0.55129   0.32542   0.25000   0.00000  Uiso   1.00
N112   N     0.53380   0.30594   0.25000   0.00000  Uiso   1.00
N113   N     0.53796   0.22684   0.25000   0.00000  Uiso   1.00
C114   C     0.52420   0.20586   0.25000   0.00000  Uiso   1.00
N115   N     0.03679   0.42899   0.25000   0.00000  Uiso   1.00
C116   C     0.04533   0.45024   0.25000   0.00000  Uiso   1.00
C117   C     0.07225   0.35790   0.25000   0.00000  Uiso   1.00
N118   N     0.08063   0.37913   0.25000   0.00000  Uiso   1.00
H119   H     0.52838   0.11806   0.25000   0.00000  Uiso   1.00
H120   H     0.56444   0.04905   0.25000   0.00000  Uiso   1.00
H121   H     0.58271   0.19940   0.25000   0.00000  Uiso   1.00
H122   H     0.56687   0.21787   0.25000   0.00000  Uiso   1.00
H123   H     0.50325   0.16080   0.25000   0.00000  Uiso   1.00
H124   H     0.51799   0.13852   0.25000   0.00000  Uiso   1.00
H125   H     0.58464   0.03572   0.25000   0.00000  Uiso   1.00
H126   H     0.60738   0.01941   0.25000   0.00000  Uiso   1.00
H127   H     0.55011   0.95477   0.25000   0.00000  Uiso   1.00
H128   H     0.52677   0.97009   0.25000   0.00000  Uiso   1.00
H129   H     0.69991   0.27045   0.25000   0.00000  Uiso   1.00
H130   H     0.77020   0.26999   0.25000   0.00000  Uiso   1.00
H131   H     0.56798   0.91195   0.25000   0.00000  Uiso   1.00
H132   H     0.64932   0.94837   0.25000   0.00000  Uiso   1.00
H133   H     0.50770   0.98437   0.25000   0.00000  Uiso   1.00
H134   H     0.60029   0.12451   0.25000   0.00000  Uiso   1.00
H135   H     0.51410   0.07672   0.25000   0.00000  Uiso   1.00
H136   H     0.50097   0.04153   0.25000   0.00000  Uiso   1.00
H137   H     0.63075   0.14986   0.25000   0.00000  Uiso   1.00
H138   H     0.66597   0.18218   0.25000   0.00000  Uiso   1.00
H139   H     0.63512   0.22184   0.25000   0.00000  Uiso   1.00
H140   H     0.60084   0.18795   0.25000   0.00000  Uiso   1.00
H141   H     0.47434   0.96405   0.25000   0.00000  Uiso   1.00
H142   H     0.43528   0.94183   0.25000   0.00000  Uiso   1.00
H143   H     0.42889   0.99965   0.25000   0.00000  Uiso   1.00
H144   H     0.46759   0.02252   0.25000   0.00000  Uiso   1.00
H145   H     0.73363   0.30412   0.25000   0.00000  Uiso   1.00
H146   H     0.73521   0.23437   0.25000   0.00000  Uiso   1.00
H147   H     0.58543   0.88955   0.25000   0.00000  Uiso   1.00
H148   H     0.63180   0.97079   0.25000   0.00000  Uiso   1.00
H149   H     0.09943   0.00634   0.25000   0.00000  Uiso   1.00
H150   H     0.16026   0.13416   0.25000   0.00000  Uiso   1.00
H151   H     0.60432   0.87304   0.25000   0.00000  Uiso   1.00
H152   H     0.61270   0.98730   0.25000   0.00000  Uiso   1.00
H153   H     0.13803   0.21508   0.25000   0.00000  Uiso   1.00
H154   H     0.10219   0.28440   0.25000   0.00000  Uiso   1.00
H155   H     0.08388   0.13377   0.25000   0.00000  Uiso   1.00
H156   H     0.09987   0.11537   0.25000   0.00000  Uiso   1.00
H157   H     0.16336   0.17257   0.25000   0.00000  Uiso   1.00
H158   H     0.14850   0.19471   0.25000   0.00000  Uiso   1.00
H159   H     0.08225   0.29812   0.25000   0.00000  Uiso   1.00
H160   H     0.05975   0.31474   0.25000   0.00000  Uiso   1.00
H161   H     0.11730   0.37915   0.25000   0.00000  Uiso   1.00
H162   H     0.14042   0.36351   0.25000   0.00000  Uiso   1.00
H163   H     0.96643   0.06290   0.25000   0.00000  Uiso   1.00
H164   H     0.89623   0.06347   0.25000   0.00000  Uiso   1.00
H165   H     0.09934   0.42227   0.25000   0.00000  Uiso   1.00
H166   H     0.01798   0.38579   0.25000   0.00000  Uiso   1.00
H167   H     0.15925   0.34892   0.25000   0.00000  Uiso   1.00
H168   H     0.06613   0.20856   0.25000   0.00000  Uiso   1.00
H169   H     0.15230   0.25634   0.25000   0.00000  Uiso   1.00
H170   H     0.16553   0.29148   0.25000   0.00000  Uiso   1.00
H171   H     0.03573   0.18324   0.25000   0.00000  Uiso   1.00
H172   H     0.00051   0.15101   0.25000   0.00000  Uiso   1.00
H173   H     0.03119   0.11121   0.25000   0.00000  Uiso   1.00
H174   H     0.06550   0.14496   0.25000   0.00000  Uiso   1.00
H175   H     0.19266   0.36906   0.25000   0.00000  Uiso   1.00
H176   H     0.23176   0.39110   0.25000   0.00000  Uiso   1.00
H177   H     0.23777   0.33306   0.25000   0.00000  Uiso   1.00
H178   H     0.19897   0.31034   0.25000   0.00000  Uiso   1.00
H179   H     0.93274   0.02931   0.25000   0.00000  Uiso   1.00
H180   H     0.93124   0.09910   0.25000   0.00000  Uiso   1.00
H181   H     0.08183   0.44463   0.25000   0.00000  Uiso   1.00
H182   H     0.03553   0.36339   0.25000   0.00000  Uiso   1.00
H183   H     0.56745   0.32732   0.25000   0.00000  Uiso   1.00
H184   H     0.50661   0.19941   0.25000   0.00000  Uiso   1.00
H185   H     0.06292   0.46113   0.25000   0.00000  Uiso   1.00
H186   H     0.05466   0.34693   0.25000   0.00000  Uiso   1.00
C187   C     0.87654   0.42191   0.25000   0.00000  Uiso   1.00
C188   C     0.89475   0.44249   0.25000   0.00000  Uiso   1.00
C189   C     0.85315   0.43931   0.25000   0.00000  Uiso   1.00
N190   N     0.91485   0.47956   0.25000   0.00000  Uiso   1.00
C191   C     0.96204   0.50903   0.25000   0.00000  Uiso   1.00
C192   C     0.98505   0.52315   0.25000   0.00000  Uiso   1.00
C193   C     0.83676   0.39126   0.25000   0.00000  Uiso   1.00
C194   C     0.00393   0.47970   0.25000   0.00000  Uiso   1.00
C195   C     0.81294   0.37910   0.25000   0.00000  Uiso   1.00
C196   C     0.79993   0.35624   0.25000   0.00000  Uiso   1.00
C197   C     0.80889   0.34262   0.25000   0.00000  Uiso   1.00
C198   C     0.83155   0.35258   0.25000   0.00000  Uiso   1.00
C199   C     0.84481   0.37568   0.25000   0.00000  Uiso   1.00
C200   C     0.98195   0.55812   0.25000   0.00000  Uiso   1.00
C201   C     0.99130   0.58098   0.25000   0.00000  Uiso   1.00
C202   C     0.01411   0.59470   0.25000   0.00000  Uiso   1.00
C203   C     0.02748   0.58516   0.25000   0.00000  Uiso   1.00
C204   C     0.01827   0.56237   0.25000   0.00000  Uiso   1.00
C205   C     0.75110   0.46546   0.25000   0.00000  Uiso   1.00
C206   C     0.73089   0.44541   0.25000   0.00000  Uiso   1.00
C207   C     0.73017   0.48488   0.25000   0.00000  Uiso   1.00
C208   C     0.05702   0.65531   0.25000   0.00000  Uiso   1.00
C209   C     0.08000   0.66576   0.25000   0.00000  Uiso   1.00
C210   C     0.05967   0.69120   0.25000   0.00000  Uiso   1.00
C211   C     0.92825   0.47177   0.25000   0.00000  Uiso   1.00
C212   C     0.95258   0.48613   0.25000   0.00000  Uiso   1.00
C213   C     0.99828   0.51314   0.25000   0.00000  Uiso   1.00
C214   C     0.89347   0.46060   0.25000   0.00000  Uiso   1.00
C215   C     0.87366   0.45976   0.25000   0.00000  Uiso   1.00
C216   C     0.85415   0.41775   0.25000   0.00000  Uiso   1.00
N217   N     0.91710   0.44815   0.25000   0.00000  Uiso   1.00
C218   C     0.98935   0.49006   0.25000   0.00000  Uiso   1.00
C219   C     0.96625   0.47695   0.25000   0.00000  Uiso   1.00
C220   C     0.83371   0.44413   0.25000   0.00000  Uiso   1.00
C221   C     0.99516   0.54805   0.25000   0.00000  Uiso   1.00
C222   C     0.83510   0.46539   0.25000   0.00000  Uiso   1.00
C223   C     0.81610   0.46757   0.25000   0.00000  Uiso   1.00
C224   C     0.79519   0.44879   0.25000   0.00000  Uiso   1.00
C225   C     0.79389   0.42841   0.25000   0.00000  Uiso   1.00
C226   C     0.81284   0.42705   0.25000   0.00000  Uiso   1.00
C227   C     0.02723   0.49263   0.25000   0.00000  Uiso   1.00
C228   C     0.04046   0.48296   0.25000   0.00000  Uiso   1.00
C229   C     0.03106   0.46011   0.25000   0.00000  Uiso   1.00
C230   C     0.00814   0.44700   0.25000   0.00000  Uiso   1.00
C231   C     0.99484   0.45654   0.25000   0.00000  Uiso   1.00
C232   C     0.71108   0.44519   0.25000   0.00000  Uiso   1.00
C233   C     0.71040   0.46462   0.25000   0.00000  Uiso   1.00
C234   C     0.75044   0.48521   0.25000   0.00000  Uiso   1.00
C235   C     0.09280   0.68869   0.25000   0.00000  Uiso   1.00
C236   C     0.08268   0.70168   0.25000   0.00000  Uiso   1.00
C237   C     0.04687   0.66827   0.25000   0.00000  Uiso   1.00
C238   C     0.99181   0.10737   0.25000   0.00000  Uiso   1.00
N239   N     0.97238   0.10550   0.25000   0.00000  Uiso   1.00
N240   N     0.89335   0.02234   0.25000   0.00000  Uiso   1.00
C241   C     0.87237   0.01502   0.25000   0.00000  Uiso   1.00
N242   N     0.09485   0.72533   0.25000   0.00000  Uiso   1.00
C243   C     0.11610   0.73802   0.25000   0.00000  Uiso   1.00
C244   C     0.02370   0.61881   0.25000   0.00000  Uiso   1.00
N245   N     0.04492   0.63166   0.25000   0.00000  Uiso   1.00
C246   C     0.79036   0.91140   0.25000   0.00000  Uiso   1.00
C247   C     0.77216   0.89083   0.25000   0.00000  Uiso   1.00
C248   C     0.81379   0.89406   0.25000   0.00000  Uiso   1.00
N249   N     0.75202   0.85374   0.25000   0.00000  Uiso   1.00
C250   C     0.70460   0.82426   0.25000   0.00000  Uiso   1.00
C251   C     0.68153   0.81025   0.25000   0.00000  Uiso   1.00
C252   C     0.83009   0.94210   0.25000   0.00000  Uiso   1.00
C253   C     0.66307   0.85408   0.25000   0.00000  Uiso   1.00
C254   C     0.85390   0.95432   0.25000   0.00000  Uiso   1.00
C255   C     0.86683   0.97719   0.25000   0.00000  Uiso   1.00
C256   C     0.85777   0.99074   0.25000   0.00000  Uiso   1.00
C257   C     0.83514   0.98072   0.25000   0.00000  Uiso   1.00
C258   C     0.82197   0.95762   0.25000   0.00000  Uiso   1.00
C259   C     0.68420   0.77501   0.25000   0.00000  Uiso   1.00
C260   C     0.67466   0.75211   0.25000   0.00000  Uiso   1.00
C261   C     0.65183   0.73852   0.25000   0.00000  Uiso   1.00
C262   C     0.63861   0.74822   0.25000   0.00000  Uiso   1.00
C263   C     0.64803   0.77108   0.25000   0.00000  Uiso   1.00
C264   C     0.91550   0.86755   0.25000   0.00000  Uiso   1.00
C265   C     0.93571   0.88758   0.25000   0.00000  Uiso   1.00
C266   C     0.93637   0.84808   0.25000   0.00000  Uiso   1.00
C267   C     0.60879   0.67784   0.25000   0.00000  Uiso   1.00
C268   C     0.58580   0.66735   0.25000   0.00000  Uiso   1.00
C269   C     0.60616   0.64193   0.25000   0.00000  Uiso   1.00
C270   C     0.73862   0.86155   0.25000   0.00000  Uiso   1.00
C271   C     0.71423   0.84722   0.25000   0.00000  Uiso   1.00
C272   C     0.66845   0.82044   0.25000   0.00000  Uiso   1.00
C273   C     0.77343   0.87271   0.25000   0.00000  Uiso   1.00
C274   C     0.79327   0.87359   0.25000   0.00000  Uiso   1.00
C275   C     0.81277   0.91560   0.25000   0.00000  Uiso   1.00
N276   N     0.74981   0.88517   0.25000   0.00000  Uiso   1.00
C277   C     0.67752   0.84354   0.25000   0.00000  Uiso   1.00
C278   C     0.70065   0.85652   0.25000   0.00000  Uiso   1.00
C279   C     0.83323   0.88925   0.25000   0.00000  Uiso   1.00
C280   C     0.67118   0.78528   0.25000   0.00000  Uiso   1.00
C281   C     0.83180   0.86798   0.25000   0.00000  Uiso   1.00
C282   C     0.85074   0.86573   0.25000   0.00000  Uiso   1.00
C283   C     0.87165   0.88446   0.25000   0.00000  Uiso   1.00
C284   C     0.87303   0.90488   0.25000   0.00000  Uiso   1.00
C285   C     0.85414   0.90632   0.25000   0.00000  Uiso   1.00
C286   C     0.63975   0.84128   0.25000   0.00000  Uiso   1.00
C287   C     0.62663   0.85107   0.25000   0.00000  Uiso   1.00
C288   C     0.63613   0.87394   0.25000   0.00000  Uiso   1.00
C289   C     0.65907   0.88693   0.25000   0.00000  Uiso   1.00
C290   C     0.67227   0.87726   0.25000   0.00000  Uiso   1.00
C291   C     0.95548   0.88777   0.25000   0.00000  Uiso   1.00
C292   C     0.95614   0.86836   0.25000   0.00000  Uiso   1.00
C293   C     0.91611   0.84777   0.25000   0.00000  Uiso   1.00
C294   C     0.57302   0.64442   0.25000   0.00000  Uiso   1.00
C295   C     0.58316   0.63145   0.25000   0.00000  Uiso   1.00
C296   C     0.61895   0.66488   0.25000   0.00000  Uiso   1.00
C297   C     0.67458   0.22587   0.25000   0.00000  Uiso   1.00
N298   N     0.69406   0.22786   0.25000   0.00000  Uiso   1.00
N299   N     0.77316   0.31112   0.25000   0.00000  Uiso   1.00
C300   C     0.79414   0.31834   0.25000   0.00000  Uiso   1.00
N301   N     0.57101   0.60780   0.25000   0.00000  Uiso   1.00
C302   C     0.54976   0.59509   0.25000   0.00000  Uiso   1.00
C303   C     0.64210   0.71435   0.25000   0.00000  Uiso   1.00
N304   N     0.62087   0.70150   0.25000   0.00000  Uiso   1.00
H305   H     0.88194   0.41032   0.25000   0.00000  Uiso   1.00
H306   H     0.95095   0.51539   0.25000   0.00000  Uiso   1.00
H307   H     0.80060   0.38331   0.25000   0.00000  Uiso   1.00
H308   H     0.78213   0.34900   0.25000   0.00000  Uiso   1.00
H309   H     0.83920   0.34245   0.25000   0.00000  Uiso   1.00
H310   H     0.86148   0.37947   0.25000   0.00000  Uiso   1.00
H311   H     0.96428   0.54892   0.25000   0.00000  Uiso   1.00
H312   H     0.98059   0.58797   0.25000   0.00000  Uiso   1.00
H313   H     0.04523   0.59534   0.25000   0.00000  Uiso   1.00
H314   H     0.02991   0.55668   0.25000   0.00000  Uiso   1.00
H315   H     0.72955   0.42946   0.25000   0.00000  Uiso   1.00
H316   H     0.73001   0.50021   0.25000   0.00000  Uiso   1.00
H317   H     0.08805   0.65603   0.25000   0.00000  Uiso   1.00
H318   H     0.05163   0.70095   0.25000   0.00000  Uiso   1.00
H319   H     0.01563   0.52333   0.25000   0.00000  Uiso   1.00
H320   H     0.87549   0.47578   0.25000   0.00000  Uiso   1.00
H321   H     0.92328   0.43738   0.25000   0.00000  Uiso   1.00
H322   H     0.95847   0.45944   0.25000   0.00000  Uiso   1.00
H323   H     0.85014   0.48089   0.25000   0.00000  Uiso   1.00
H324   H     0.81782   0.48379   0.25000   0.00000  Uiso   1.00
H325   H     0.77816   0.41328   0.25000   0.00000  Uiso   1.00
H326   H     0.81205   0.41289   0.25000   0.00000  Uiso   1.00
H327   H     0.03595   0.51029   0.25000   0.00000  Uiso   1.00
H328   H     0.05817   0.49345   0.25000   0.00000  Uiso   1.00
H329   H     0.00035   0.42924   0.25000   0.00000  Uiso   1.00
H330   H     0.97748   0.44507   0.25000   0.00000  Uiso   1.00
H331   H     0.69588   0.42951   0.25000   0.00000  Uiso   1.00
H332   H     0.76563   0.50084   0.25000   0.00000  Uiso   1.00
H333   H     0.11045   0.69588   0.25000   0.00000  Uiso   1.00
H334   H     0.02921   0.66101   0.25000   0.00000  Uiso   1.00
H335   H     0.99366   0.09309   0.25000   0.00000  Uiso   1.00
H336   H     0.86584   0.02610   0.25000   0.00000  Uiso   1.00
H337   H     0.12696   0.73128   0.25000   0.00000  Uiso   1.00
H338   H     0.01270   0.62540   0.25000   0.00000  Uiso   1.00
H339   H     0.78492   0.92295   0.25000   0.00000  Uiso   1.00
H340   H     0.71560   0.81779   0.25000   0.00000  Uiso   1.00
H341   H     0.86623   0.95011   0.25000   0.00000  Uiso   1.00
H342   H     0.88463   0.98450   0.25000   0.00000  Uiso   1.00
H343   H     0.82743   0.99079   0.25000   0.00000  Uiso   1.00
H344   H     0.80529   0.95379   0.25000   0.00000  Uiso   1.00
H345   H     0.70188   0.78413   0.25000   0.00000  Uiso   1.00
H346   H     0.68526   0.74501   0.25000   0.00000  Uiso   1.00
H347   H     0.62085   0.73815   0.25000   0.00000  Uiso   1.00
H348   H     0.63649   0.77691   0.25000   0.00000  Uiso   1.00
H349   H     0.93710   0.90353   0.25000   0.00000  Uiso   1.00
H350   H     0.93653   0.83276   0.25000   0.00000  Uiso   1.00
H351   H     0.57773   0.67707   0.25000   0.00000  Uiso   1.00
H352   H     0.61421   0.63219   0.25000   0.00000  Uiso   1.00
H353   H     0.65108   0.81033   0.25000   0.00000  Uiso   1.00
H354   H     0.79144   0.85757   0.25000   0.00000  Uiso   1.00
H355   H     0.74366   0.89596   0.25000   0.00000  Uiso   1.00
H356   H     0.70852   0.87405   0.25000   0.00000  Uiso   1.00
H357   H     0.81676   0.85249   0.25000   0.00000  Uiso   1.00
H358   H     0.84899   0.84950   0.25000   0.00000  Uiso   1.00
H359   H     0.88879   0.91998   0.25000   0.00000  Uiso   1.00
H360   H     0.85504   0.92054   0.25000   0.00000  Uiso   1.00
H361   H     0.63094   0.82360   0.25000   0.00000  Uiso   1.00
H362   H     0.60890   0.84066   0.25000   0.00000  Uiso   1.00
H363   H     0.66694   0.90471   0.25000   0.00000  Uiso   1.00
H364   H     0.68966   0.88863   0.25000   0.00000  Uiso   1.00
H365   H     0.97069   0.90343   0.25000   0.00000  Uiso   1.00
H366   H     0.90090   0.83214   0.25000   0.00000  Uiso   1.00
H367   H     0.55537   0.63720   0.25000   0.00000  Uiso   1.00
H368   H     0.63661   0.67214   0.25000   0.00000  Uiso   1.00
H369   H     0.67268   0.24013   0.25000   0.00000  Uiso   1.00
H370   H     0.80059   0.30720   0.25000   0.00000  Uiso   1.00
H371   H     0.53887   0.60179   0.25000   0.00000  Uiso   1.00
H372   H     0.65307   0.70773   0.25000   0.00000  Uiso   1.00
C373   C     0.57809   0.45463   0.25000   0.00000  Uiso   1.00
C374   C     0.55751   0.45226   0.25000   0.00000  Uiso   1.00
C375   C     0.56069   0.41384   0.25000   0.00000  Uiso   1.00
N376   N     0.52044   0.43529   0.25000   0.00000  Uiso   1.00
C377   C     0.49097   0.45301   0.25000   0.00000  Uiso   1.00
C378   C     0.47685   0.46190   0.25000   0.00000  Uiso   1.00
C379   C     0.60874   0.44550   0.25000   0.00000  Uiso   1.00
C380   C     0.52030   0.52423   0.25000   0.00000  Uiso   1.00
C381   C     0.62090   0.43384   0.25000   0.00000  Uiso   1.00
C382   C     0.64376   0.44369   0.25000   0.00000  Uiso   1.00
C383   C     0.65738   0.46627   0.25000   0.00000  Uiso   1.00
C384   C     0.64742   0.47897   0.25000   0.00000  Uiso   1.00
C385   C     0.62432   0.46913   0.25000   0.00000  Uiso   1.00
C386   C     0.44188   0.42383   0.25000   0.00000  Uiso   1.00
C387   C     0.41902   0.41032   0.25000   0.00000  Uiso   1.00
C388   C     0.40530   0.41941   0.25000   0.00000  Uiso   1.00
C389   C     0.41484   0.44232   0.25000   0.00000  Uiso   1.00
C390   C     0.43763   0.45590   0.25000   0.00000  Uiso   1.00
C391   C     0.53454   0.28564   0.25000   0.00000  Uiso   1.00
C392   C     0.55459   0.28548   0.25000   0.00000  Uiso   1.00
C393   C     0.51512   0.24529   0.25000   0.00000  Uiso   1.00
C394   C     0.34469   0.40171   0.25000   0.00000  Uiso   1.00
C395   C     0.33424   0.41424   0.25000   0.00000  Uiso   1.00
C396   C     0.30880   0.36847   0.25000   0.00000  Uiso   1.00
C397   C     0.52823   0.45648   0.25000   0.00000  Uiso   1.00
C398   C     0.51387   0.46645   0.25000   0.00000  Uiso   1.00
C399   C     0.48686   0.48514   0.25000   0.00000  Uiso   1.00
C400   C     0.53940   0.43287   0.25000   0.00000  Uiso   1.00
C401   C     0.54024   0.41390   0.25000   0.00000  Uiso   1.00
C402   C     0.58225   0.43640   0.25000   0.00000  Uiso   1.00
N403   N     0.55185   0.46895   0.25000   0.00000  Uiso   1.00
C404   C     0.50994   0.49929   0.25000   0.00000  Uiso   1.00
C405   C     0.52305   0.48930   0.25000   0.00000  Uiso   1.00
C406   C     0.55587   0.38958   0.25000   0.00000  Uiso   1.00
C407   C     0.45195   0.44711   0.25000   0.00000  Uiso   1.00
C408   C     0.53461   0.36971   0.25000   0.00000  Uiso   1.00
C409   C     0.53243   0.34853   0.25000   0.00000  Uiso   1.00
C410   C     0.55121   0.34640   0.25000   0.00000  Uiso   1.00
C411   C     0.57159   0.36548   0.25000   0.00000  Uiso   1.00
C412   C     0.57295   0.38579   0.25000   0.00000  Uiso   1.00
C413   C     0.50737   0.53460   0.25000   0.00000  Uiso   1.00
C414   C     0.51704   0.55750   0.25000   0.00000  Uiso   1.00
C415   C     0.53989   0.57095   0.25000   0.00000  Uiso   1.00
C416   C     0.55300   0.56114   0.25000   0.00000  Uiso   1.00
C417   C     0.54346   0.53830   0.25000   0.00000  Uiso   1.00
C418   C     0.55481   0.26589   0.25000   0.00000  Uiso   1.00
C419   C     0.53538   0.24578   0.25000   0.00000  Uiso   1.00
C420   C     0.51479   0.26523   0.25000   0.00000  Uiso   1.00
C421   C     0.31131   0.40411   0.25000   0.00000  Uiso   1.00
C422   C     0.29832   0.38100   0.25000   0.00000  Uiso   1.00
C423   C     0.33173   0.37860   0.25000   0.00000  Uiso   1.00
C424   C     0.89263   0.88444   0.25000   0.00000  Uiso   1.00
N425   N     0.89450   0.86688   0.25000   0.00000  Uiso   1.00
N426   N     0.97766   0.87101   0.25000   0.00000  Uiso   1.00
C427   C     0.98498   0.85735   0.25000   0.00000  Uiso   1.00
N428   N     0.27467   0.36952   0.25000   0.00000  Uiso   1.00
C429   C     0.26198   0.37808   0.25000   0.00000  Uiso   1.00
C430   C     0.38119   0.40489   0.25000   0.00000  Uiso   1.00
N431   N     0.36834   0.41326   0.25000   0.00000  Uiso   1.00
C432   C     0.08860   0.87896   0.25000   0.00000  Uiso   1.00
C433   C     0.10917   0.88133   0.25000   0.00000  Uiso   1.00
C434   C     0.10594   0.91973   0.25000   0.00000  Uiso   1.00
N435   N     0.14626   0.89828   0.25000   0.00000  Uiso   1.00
C436   C     0.17574   0.88034   0.25000   0.00000  Uiso   1.00
C437   C     0.18975   0.87128   0.25000   0.00000  Uiso   1.00
C438   C     0.05790   0.88799   0.25000   0.00000  Uiso   1.00
C439   C     0.14592   0.80899   0.25000   0.00000  Uiso   1.00
C440   C     0.04568   0.89958   0.25000   0.00000  Uiso   1.00
C441   C     0.02281   0.88964   0.25000   0.00000  Uiso   1.00
C442   C     0.00926   0.86703   0.25000   0.00000  Uiso   1.00
C443   C     0.01928   0.85442   0.25000   0.00000  Uiso   1.00
C444   C     0.04238   0.86435   0.25000   0.00000  Uiso   1.00
C445   C     0.22499   0.90919   0.25000   0.00000  Uiso   1.00
C446   C     0.24789   0.92255   0.25000   0.00000  Uiso   1.00
C447   C     0.26148   0.91331   0.25000   0.00000  Uiso   1.00
C448   C     0.25178   0.89039   0.25000   0.00000  Uiso   1.00
C449   C     0.22892   0.87695   0.25000   0.00000  Uiso   1.00
C450   C     0.13245   0.04795   0.25000   0.00000  Uiso   1.00
C451   C     0.11242   0.04813   0.25000   0.00000  Uiso   1.00
C452   C     0.15192   0.08829   0.25000   0.00000  Uiso   1.00
C453   C     0.32216   0.93095   0.25000   0.00000  Uiso   1.00
C454   C     0.33265   0.91845   0.25000   0.00000  Uiso   1.00
C455   C     0.35807   0.96423   0.25000   0.00000  Uiso   1.00
C456   C     0.13845   0.87707   0.25000   0.00000  Uiso   1.00
C457   C     0.15278   0.86701   0.25000   0.00000  Uiso   1.00
C458   C     0.17956   0.84801   0.25000   0.00000  Uiso   1.00
C459   C     0.12729   0.90072   0.25000   0.00000  Uiso   1.00
C460   C     0.12641   0.91968   0.25000   0.00000  Uiso   1.00
C461   C     0.08440   0.89717   0.25000   0.00000  Uiso   1.00
N462   N     0.11483   0.86464   0.25000   0.00000  Uiso   1.00
C463   C     0.15646   0.83398   0.25000   0.00000  Uiso   1.00
C464   C     0.14348   0.84413   0.25000   0.00000  Uiso   1.00
C465   C     0.11075   0.94398   0.25000   0.00000  Uiso   1.00
C466   C     0.21472   0.88590   0.25000   0.00000  Uiso   1.00
C467   C     0.13202   0.96382   0.25000   0.00000  Uiso   1.00
C468   C     0.13427   0.98501   0.25000   0.00000  Uiso   1.00
C469   C     0.11554   0.98719   0.25000   0.00000  Uiso   1.00
C470   C     0.09512   0.96815   0.25000   0.00000  Uiso   1.00
C471   C     0.09368   0.94782   0.25000   0.00000  Uiso   1.00
C472   C     0.15872   0.79847   0.25000   0.00000  Uiso   1.00
C473   C     0.14893   0.77556   0.25000   0.00000  Uiso   1.00
C474   C     0.12606   0.76219   0.25000   0.00000  Uiso   1.00
C475   C     0.11307   0.77214   0.25000   0.00000  Uiso   1.00
C476   C     0.12274   0.79501   0.25000   0.00000  Uiso   1.00
C477   C     0.11223   0.06771   0.25000   0.00000  Uiso   1.00
C478   C     0.13164   0.08778   0.25000   0.00000  Uiso   1.00
C479   C     0.15223   0.06834   0.25000   0.00000  Uiso   1.00
C480   C     0.35558   0.92860   0.25000   0.00000  Uiso   1.00
C481   C     0.36855   0.95171   0.25000   0.00000  Uiso   1.00
C482   C     0.33512   0.95407   0.25000   0.00000  Uiso   1.00
C483   C     0.77413   0.44871   0.25000   0.00000  Uiso   1.00
N484   N     0.77214   0.46620   0.25000   0.00000  Uiso   1.00
N485   N     0.68888   0.46204   0.25000   0.00000  Uiso   1.00
C486   C     0.68166   0.47580   0.25000   0.00000  Uiso   1.00
N487   N     0.39220   0.96321   0.25000   0.00000  Uiso   1.00
C488   C     0.40491   0.95467   0.25000   0.00000  Uiso   1.00
C489   C     0.28565   0.92775   0.25000   0.00000  Uiso   1.00
N490   N     0.29850   0.91937   0.25000   0.00000  Uiso   1.00
H491   H     0.58968   0.47162   0.25000   0.00000  Uiso   1.00
H492   H     0.48461   0.43556   0.25000   0.00000  Uiso   1.00
H493   H     0.61669   0.41729   0.25000   0.00000  Uiso   1.00
H494   H     0.65100   0.43313   0.25000   0.00000  Uiso   1.00
H495   H     0.65755   0.49675   0.25000   0.00000  Uiso   1.00
H496   H     0.62053   0.48201   0.25000   0.00000  Uiso   1.00
H497   H     0.45108   0.41536   0.25000   0.00000  Uiso   1.00
H498   H     0.41203   0.39262   0.25000   0.00000  Uiso   1.00
H499   H     0.40466   0.44989   0.25000   0.00000  Uiso   1.00
H500   H     0.44332   0.47323   0.25000   0.00000  Uiso   1.00
H501   H     0.57054   0.30009   0.25000   0.00000  Uiso   1.00
H502   H     0.49979   0.22980   0.25000   0.00000  Uiso   1.00
H503   H     0.34397   0.43202   0.25000   0.00000  Uiso   1.00
H504   H     0.29905   0.35068   0.25000   0.00000  Uiso   1.00
H505   H     0.47667   0.49230   0.25000   0.00000  Uiso   1.00
H506   H     0.52422   0.39971   0.25000   0.00000  Uiso   1.00
H507   H     0.56262   0.48590   0.25000   0.00000  Uiso   1.00
H508   H     0.54056   0.49903   0.25000   0.00000  Uiso   1.00
H509   H     0.51911   0.36925   0.25000   0.00000  Uiso   1.00
H510   H     0.51621   0.33403   0.25000   0.00000  Uiso   1.00
H511   H     0.58672   0.36488   0.25000   0.00000  Uiso   1.00
H512   H     0.58711   0.39916   0.25000   0.00000  Uiso   1.00
H513   H     0.48971   0.52566   0.25000   0.00000  Uiso   1.00
H514   H     0.50655   0.56472   0.25000   0.00000  Uiso   1.00
H515   H     0.57076   0.57111   0.25000   0.00000  Uiso   1.00
H516   H     0.55493   0.53241   0.25000   0.00000  Uiso   1.00
H517   H     0.57049   0.26637   0.25000   0.00000  Uiso   1.00
H518   H     0.49916   0.26479   0.25000   0.00000  Uiso   1.00
H519   H     0.30412   0.41457   0.25000   0.00000  Uiso   1.00
H520   H     0.33899   0.36820   0.25000   0.00000  Uiso   1.00
H521   H     0.90691   0.90057   0.25000   0.00000  Uiso   1.00
H522   H     0.97390   0.83974   0.25000   0.00000  Uiso   1.00
H523   H     0.26872   0.39568   0.25000   0.00000  Uiso   1.00
H524   H     0.37460   0.38730   0.25000   0.00000  Uiso   1.00
H525   H     0.07705   0.86197   0.25000   0.00000  Uiso   1.00
H526   H     0.18221   0.89781   0.25000   0.00000  Uiso   1.00
H527   H     0.04989   0.91612   0.25000   0.00000  Uiso   1.00
H528   H     0.01550   0.90013   0.25000   0.00000  Uiso   1.00
H529   H     0.00921   0.83664   0.25000   0.00000  Uiso   1.00
H530   H     0.04621   0.85150   0.25000   0.00000  Uiso   1.00
H531   H     0.21587   0.91775   0.25000   0.00000  Uiso   1.00
H532   H     0.25499   0.94025   0.25000   0.00000  Uiso   1.00
H533   H     0.26185   0.88270   0.25000   0.00000  Uiso   1.00
H534   H     0.22309   0.85958   0.25000   0.00000  Uiso   1.00
H535   H     0.09647   0.03357   0.25000   0.00000  Uiso   1.00
H536   H     0.16724   0.10377   0.25000   0.00000  Uiso   1.00
H537   H     0.32293   0.90066   0.25000   0.00000  Uiso   1.00
H538   H     0.36781   0.98202   0.25000   0.00000  Uiso   1.00
H539   H     0.18967   0.84075   0.25000   0.00000  Uiso   1.00
H540   H     0.14243   0.93387   0.25000   0.00000  Uiso   1.00
H541   H     0.10404   0.84770   0.25000   0.00000  Uiso   1.00
H542   H     0.12595   0.83447   0.25000   0.00000  Uiso   1.00
H543   H     0.14751   0.96427   0.25000   0.00000  Uiso   1.00
H544   H     0.15050   0.99949   0.25000   0.00000  Uiso   1.00
H545   H     0.08002   0.96881   0.25000   0.00000  Uiso   1.00
H546   H     0.07946   0.93450   0.25000   0.00000  Uiso   1.00
H547   H     0.17640   0.80734   0.25000   0.00000  Uiso   1.00
H548   H     0.15934   0.76824   0.25000   0.00000  Uiso   1.00
H549   H     0.09529   0.76223   0.25000   0.00000  Uiso   1.00
H550   H     0.11137   0.80103   0.25000   0.00000  Uiso   1.00
H551   H     0.09657   0.06726   0.25000   0.00000  Uiso   1.00
H552   H     0.16786   0.06876   0.25000   0.00000  Uiso   1.00
H553   H     0.36280   0.91817   0.25000   0.00000  Uiso   1.00
H554   H     0.32786   0.96447   0.25000   0.00000  Uiso   1.00
H555   H     0.75987   0.43255   0.25000   0.00000  Uiso   1.00
H556   H     0.69280   0.49339   0.25000   0.00000  Uiso   1.00
H557   H     0.39821   0.93708   0.25000   0.00000  Uiso   1.00
H558   H     0.29227   0.94534   0.25000   0.00000  Uiso   1.00
C559   C     0.45463   0.87654   0.75000   0.00000  Uiso   1.00
C560   C     0.45226   0.89475   0.75000   0.00000  Uiso   1.00
C561   C     0.41384   0.85315   0.75000   0.00000  Uiso   1.00
N562   N     0.43529   0.91485   0.75000   0.00000  Uiso   1.00
C563   C     0.45301   0.96204   0.75000   0.00000  Uiso   1.00
C564   C     0.46190   0.98505   0.75000   0.00000  Uiso   1.00
C565   C     0.44550   0.83676   0.75000   0.00000  Uiso   1.00
C566   C     0.52423   0.00393   0.75000   0.00000  Uiso   1.00
C567   C     0.43384   0.81294   0.75000   0.00000  Uiso   1.00
C568   C     0.44369   0.79993   0.75000   0.00000  Uiso   1.00
C569   C     0.46627   0.80889   0.75000   0.00000  Uiso   1.00
C570   C     0.47897   0.83155   0.75000   0.00000  Uiso   1.00
C571   C     0.46913   0.84481   0.75000   0.00000  Uiso   1.00
C572   C     0.42383   0.98195   0.75000   0.00000  Uiso   1.00
C573   C     0.41032   0.99130   0.75000   0.00000  Uiso   1.00
C574   C     0.41941   0.01411   0.75000   0.00000  Uiso   1.00
C575   C     0.44232   0.02748   0.75000   0.00000  Uiso   1.00
C576   C     0.45590   0.01827   0.75000   0.00000  Uiso   1.00
C577   C     0.28564   0.75110   0.75000   0.00000  Uiso   1.00
C578   C     0.28548   0.73089   0.75000   0.00000  Uiso   1.00
C579   C     0.24529   0.73017   0.75000   0.00000  Uiso   1.00
C580   C     0.40171   0.05702   0.75000   0.00000  Uiso   1.00
C581   C     0.41424   0.08000   0.75000   0.00000  Uiso   1.00
C582   C     0.36847   0.05967   0.75000   0.00000  Uiso   1.00
C583   C     0.45648   0.92825   0.75000   0.00000  Uiso   1.00
C584   C     0.46645   0.95258   0.75000   0.00000  Uiso   1.00
C585   C     0.48514   0.99828   0.75000   0.00000  Uiso   1.00
C586   C     0.43287   0.89347   0.75000   0.00000  Uiso   1.00
C587   C     0.41390   0.87366   0.75000   0.00000  Uiso   1.00
C588   C     0.43640   0.85415   0.75000   0.00000  Uiso   1.00
N589   N     0.46895   0.91710   0.75000   0.00000  Uiso   1.00
C590   C     0.49929   0.98935   0.75000   0.00000  Uiso   1.00
C591   C     0.48930   0.96625   0.75000   0.00000  Uiso   1.00
C592   C     0.38958   0.83371   0.75000   0.00000  Uiso   1.00
C593   C     0.44711   0.99516   0.75000   0.00000  Uiso   1.00
C594   C     0.36971   0.83510   0.75000   0.00000  Uiso   1.00
C595   C     0.34853   0.81610   0.75000   0.00000  Uiso   1.00
C596   C     0.34640   0.79519   0.75000   0.00000  Uiso   1.00
C597   C     0.36548   0.79389   0.75000   0.00000  Uiso   1.00
C598   C     0.38579   0.81284   0.75000   0.00000  Uiso   1.00
C599   C     0.53460   0.02723   0.75000   0.00000  Uiso   1.00
C600   C     0.55750   0.04046   0.75000   0.00000  Uiso   1.00
C601   C     0.57095   0.03106   0.75000   0.00000  Uiso   1.00
C602   C     0.56114   0.00814   0.75000   0.00000  Uiso   1.00
C603   C     0.53830   0.99484   0.75000   0.00000  Uiso   1.00
C604   C     0.26589   0.71108   0.75000   0.00000  Uiso   1.00
C605   C     0.24578   0.71040   0.75000   0.00000  Uiso   1.00
C606   C     0.26523   0.75044   0.75000   0.00000  Uiso   1.00
C607   C     0.40411   0.09280   0.75000   0.00000  Uiso   1.00
C608   C     0.38100   0.08268   0.75000   0.00000  Uiso   1.00
C609   C     0.37860   0.04687   0.75000   0.00000  Uiso   1.00
C610   C     0.88444   0.99181   0.75000   0.00000  Uiso   1.00
N611   N     0.86688   0.97238   0.75000   0.00000  Uiso   1.00
N612   N     0.87101   0.89335   0.75000   0.00000  Uiso   1.00
C613   C     0.85735   0.87237   0.75000   0.00000  Uiso   1.00
N614   N     0.36952   0.09485   0.75000   0.00000  Uiso   1.00
C615   C     0.37808   0.11610   0.75000   0.00000  Uiso   1.00
C616   C     0.40489   0.02370   0.75000   0.00000  Uiso   1.00
N617   N     0.41326   0.04492   0.75000   0.00000  Uiso   1.00
C618   C     0.87896   0.79036   0.75000   0.00000  Uiso   1.00
C619   C     0.88133   0.77216   0.75000   0.00000  Uiso   1.00
C620   C     0.91973   0.81379   0.75000   0.00000  Uiso   1.00
N621   N     0.89828   0.75202   0.75000   0.00000  Uiso   1.00
C622   C     0.88034   0.70460   0.75000   0.00000  Uiso   1.00
C623   C     0.87128   0.68153   0.75000   0.00000  Uiso   1.00
C624   C     0.88799   0.83009   0.75000   0.00000  Uiso   1.00
C625   C     0.80899   0.66307   0.75000   0.00000  Uiso   1.00
C626   C     0.89958   0.85390   0.75000   0.00000  Uiso   1.00
C627   C     0.88964   0.86683   0.75000   0.00000  Uiso   1.00
C628   C     0.86703   0.85777   0.75000   0.00000  Uiso   1.00
C629   C     0.85442   0.83514   0.75000   0.00000  Uiso   1.00
C630   C     0.86435   0.82197   0.75000   0.00000  Uiso   1.00
C631   C     0.90919   0.68420   0.75000   0.00000  Uiso   1.00
C632   C     0.92255   0.67466   0.75000   0.00000  Uiso   1.00
C633   C     0.91331   0.65183   0.75000   0.00000  Uiso   1.00
C634   C     0.89039   0.63861   0.75000   0.00000  Uiso   1.00
C635   C     0.87695   0.64803   0.75000   0.00000  Uiso   1.00
C636   C     0.04795   0.91550   0.75000   0.00000  Uiso   1.00
C637   C     0.04813   0.93571   0.75000   0.00000  Uiso   1.00
C638   C     0.08829   0.93637   0.75000   0.00000  Uiso   1.00
C639   C     0.93095   0.60879   0.75000   0.00000  Uiso   1.00
C640   C     0.91845   0.58580   0.75000   0.00000  Uiso   1.00
C641   C     0.96423   0.60616   0.75000   0.00000  Uiso   1.00
C642   C     0.87707   0.73862   0.75000   0.00000  Uiso   1.00
C643   C     0.86701   0.71423   0.75000   0.00000  Uiso   1.00
C644   C     0.84801   0.66845   0.75000   0.00000  Uiso   1.00
C645   C     0.90072   0.77343   0.75000   0.00000  Uiso   1.00
C646   C     0.91968   0.79327   0.75000   0.00000  Uiso   1.00
C647   C     0.89717   0.81277   0.75000   0.00000  Uiso   1.00
N648   N     0.86464   0.74981   0.75000   0.00000  Uiso   1.00
C649   C     0.83398   0.67752   0.75000   0.00000  Uiso   1.00
C650   C     0.84413   0.70065   0.75000   0.00000  Uiso   1.00
C651   C     0.94398   0.83323   0.75000   0.00000  Uiso   1.00
C652   C     0.88590   0.67118   0.75000   0.00000  Uiso   1.00
C653   C     0.96382   0.83180   0.75000   0.00000  Uiso   1.00
C654   C     0.98501   0.85074   0.75000   0.00000  Uiso   1.00
C655   C     0.98719   0.87165   0.75000   0.00000  Uiso   1.00
C656   C     0.96815   0.87303   0.75000   0.00000  Uiso   1.00
C657   C     0.94782   0.85414   0.75000   0.00000  Uiso   1.00
C658   C     0.79847   0.63975   0.75000   0.00000  Uiso   1.00
C659   C     0.77556   0.62663   0.75000   0.00000  Uiso   1.00
C660   C     0.76219   0.63613   0.75000   0.00000  Uiso   1.00
C661   C     0.77214   0.65907   0.75000   0.00000  Uiso   1.00
C662   C     0.79501   0.67227   0.75000   0.00000  Uiso   1.00
C663   C     0.06771   0.95548   0.75000   0.00000  Uiso   1.00
C664   C     0.08778   0.95614   0.75000   0.00000  Uiso   1.00
C665   C     0.06834   0.91611   0.75000   0.00000  Uiso   1.00
C666   C     0.92860   0.57302   0.75000   0.00000  Uiso   1.00
C667   C     0.95171   0.58316   0.75000   0.00000  Uiso   1.00
C668   C     0.95407   0.61895   0.75000   0.00000  Uiso   1.00
C669   C     0.44871   0.67458   0.75000   0.00000  Uiso   1.00
N670   N     0.46620   0.69406   0.75000   0.00000  Uiso   1.00
N671   N     0.46204   0.77316   0.75000   0.00000  Uiso   1.00
C672   C     0.47580   0.79414   0.75000   0.00000  Uiso   1.00
N673   N     0.96321   0.57101   0.75000   0.00000  Uiso   1.00
C674   C     0.95467   0.54976   0.75000   0.00000  Uiso   1.00
C675   C     0.92775   0.64210   0.75000   0.00000  Uiso   1.00
N676   N     0.91937   0.62087   0.75000   0.00000  Uiso   1.00
H677   H     0.47162   0.88194   0.75000   0.00000  Uiso   1.00
H678   H     0.43556   0.95095   0.75000   0.00000  Uiso   1.00
H679   H     0.41729   0.80060   0.75000   0.00000  Uiso   1.00
H680   H     0.43313   0.78213   0.75000   0.00000  Uiso   1.00
H681   H     0.49675   0.83920   0.75000   0.00000  Uiso   1.00
H682   H     0.48201   0.86148   0.75000   0.00000  Uiso   1.00
H683   H     0.41536   0.96428   0.75000   0.00000  Uiso   1.00
H684   H     0.39262   0.98059   0.75000   0.00000  Uiso   1.00
H685   H     0.44989   0.04523   0.75000   0.00000  Uiso   1.00
H686   H     0.47323   0.02991   0.75000   0.00000  Uiso   1.00
H687   H     0.30009   0.72955   0.75000   0.00000  Uiso   1.00
H688   H     0.22980   0.73001   0.75000   0.00000  Uiso   1.00
H689   H     0.43202   0.08805   0.75000   0.00000  Uiso   1.00
H690   H     0.35068   0.05163   0.75000   0.00000  Uiso   1.00
H691   H     0.49230   0.01563   0.75000   0.00000  Uiso   1.00
H692   H     0.39971   0.87549   0.75000   0.00000  Uiso   1.00
H693   H     0.48590   0.92328   0.75000   0.00000  Uiso   1.00
H694   H     0.49903   0.95847   0.75000   0.00000  Uiso   1.00
H695   H     0.36925   0.85014   0.75000   0.00000  Uiso   1.00
H696   H     0.33403   0.81782   0.75000   0.00000  Uiso   1.00
H697   H     0.36488   0.77816   0.75000   0.00000  Uiso   1.00
H698   H     0.39916   0.81205   0.75000   0.00000  Uiso   1.00
H699   H     0.52566   0.03595   0.75000   0.00000  Uiso   1.00
H700   H     0.56472   0.05817   0.75000   0.00000  Uiso   1.00
H701   H     0.57111   0.00035   0.75000   0.00000  Uiso   1.00
H702   H     0.53241   0.97748   0.75000   0.00000  Uiso   1.00
H703   H     0.26637   0.69588   0.75000   0.00000  Uiso   1.00
H704   H     0.26479   0.76563   0.75000   0.00000  Uiso   1.00
H705   H     0.41457   0.11045   0.75000   0.00000  Uiso   1.00
H706   H     0.36820   0.02921   0.75000   0.00000  Uiso   1.00
H707   H     0.90057   0.99366   0.75000   0.00000  Uiso   1.00
H708   H     0.83974   0.86584   0.75000   0.00000  Uiso   1.00
H709   H     0.39568   0.12696   0.75000   0.00000  Uiso   1.00
H710   H     0.38730   0.01270   0.75000   0.00000  Uiso   1.00
H711   H     0.86197   0.78492   0.75000   0.00000  Uiso   1.00
H712   H     0.89781   0.71560   0.75000   0.00000  Uiso   1.00
H713   H     0.91612   0.86623   0.75000   0.00000  Uiso   1.00
H714   H     0.90013   0.88463   0.75000   0.00000  Uiso   1.00
H715   H     0.83664   0.82743   0.75000   0.00000  Uiso   1.00
H716   H     0.85150   0.80529   0.75000   0.00000  Uiso   1.00
H717   H     0.91775   0.70188   0.75000   0.00000  Uiso   1.00
H718   H     0.94025   0.68526   0.75000   0.00000  Uiso   1.00
H719   H     0.88270   0.62085   0.75000   0.00000  Uiso   1.00
H720   H     0.85958   0.63649   0.75000   0.00000  Uiso   1.00
H721   H     0.03357   0.93710   0.75000   0.00000  Uiso   1.00
H722   H     0.10377   0.93653   0.75000   0.00000  Uiso   1.00
H723   H     0.90066   0.57773   0.75000   0.00000  Uiso   1.00
H724   H     0.98202   0.61421   0.75000   0.00000  Uiso   1.00
H725   H     0.84075   0.65108   0.75000   0.00000  Uiso   1.00
H726   H     0.93387   0.79144   0.75000   0.00000  Uiso   1.00
H727   H     0.84770   0.74366   0.75000   0.00000  Uiso   1.00
H728   H     0.83447   0.70852   0.75000   0.00000  Uiso   1.00
H729   H     0.96427   0.81676   0.75000   0.00000  Uiso   1.00
H730   H     0.99949   0.84899   0.75000   0.00000  Uiso   1.00
H731   H     0.96881   0.88879   0.75000   0.00000  Uiso   1.00
H732   H     0.93450   0.85504   0.75000   0.00000  Uiso   1.00
H733   H     0.80734   0.63094   0.75000   0.00000  Uiso   1.00
H734   H     0.76824   0.60890   0.75000   0.00000  Uiso   1.00
H735   H     0.76223   0.66694   0.75000   0.00000  Uiso   1.00
H736   H     0.80103   0.68966   0.75000   0.00000  Uiso   1.00
H737   H     0.06726   0.97069   0.75000   0.00000  Uiso   1.00
H738   H     0.06876   0.90090   0.75000   0.00000  Uiso   1.00
H739   H     0.91817   0.55537   0.75000   0.00000  Uiso   1.00
H740   H     0.96447   0.63661   0.75000   0.00000  Uiso   1.00
H741   H     0.43255   0.67268   0.75000   0.00000  Uiso   1.00
H742   H     0.49339   0.80059   0.75000   0.00000  Uiso   1.00
H743   H     0.93708   0.53887   0.75000   0.00000  Uiso   1.00
H744   H     0.94534   0.65307   0.75000   0.00000  Uiso   1.00
C745   C     0.12346   0.57809   0.75000   0.00000  Uiso   1.00
C746   C     0.10525   0.55751   0.75000   0.00000  Uiso   1.00
C747   C     0.14685   0.56069   0.75000   0.00000  Uiso   1.00
N748   N     0.08515   0.52044   0.75000   0.00000  Uiso   1.00
C749   C     0.03796   0.49097   0.75000   0.00000  Uiso   1.00
C750   C     0.01495   0.47685   0.75000   0.00000  Uiso   1.00
C751   C     0.16324   0.60874   0.75000   0.00000  Uiso   1.00
C752   C     0.99607   0.52030   0.75000   0.00000  Uiso   1.00
C753   C     0.18706   0.62090   0.75000   0.00000  Uiso   1.00
C754   C     0.20007   0.64376   0.75000   0.00000  Uiso   1.00
C755   C     0.19111   0.65738   0.75000   0.00000  Uiso   1.00
C756   C     0.16845   0.64742   0.75000   0.00000  Uiso   1.00
C757   C     0.15519   0.62432   0.75000   0.00000  Uiso   1.00
C758   C     0.01805   0.44188   0.75000   0.00000  Uiso   1.00
C759   C     0.00870   0.41902   0.75000   0.00000  Uiso   1.00
C760   C     0.98589   0.40530   0.75000   0.00000  Uiso   1.00
C761   C     0.97252   0.41484   0.75000   0.00000  Uiso   1.00
C762   C     0.98173   0.43763   0.75000   0.00000  Uiso   1.00
C763   C     0.24890   0.53454   0.75000   0.00000  Uiso   1.00
C764   C     0.26911   0.55459   0.75000   0.00000  Uiso   1.00
C765   C     0.26983   0.51512   0.75000   0.00000  Uiso   1.00
C766   C     0.94298   0.34469   0.75000   0.00000  Uiso   1.00
C767   C     0.92000   0.33424   0.75000   0.00000  Uiso   1.00
C768   C     0.94033   0.30880   0.75000   0.00000  Uiso   1.00
C769   C     0.07175   0.52823   0.75000   0.00000  Uiso   1.00
C770   C     0.04742   0.51387   0.75000   0.00000  Uiso   1.00
C771   C     0.00172   0.48686   0.75000   0.00000  Uiso   1.00
C772   C     0.10653   0.53940   0.75000   0.00000  Uiso   1.00
C773   C     0.12634   0.54024   0.75000   0.00000  Uiso   1.00
C774   C     0.14585   0.58225   0.75000   0.00000  Uiso   1.00
N775   N     0.08290   0.55185   0.75000   0.00000  Uiso   1.00
C776   C     0.01065   0.50994   0.75000   0.00000  Uiso   1.00
C777   C     0.03375   0.52305   0.75000   0.00000  Uiso   1.00
C778   C     0.16629   0.55587   0.75000   0.00000  Uiso   1.00
C779   C     0.00484   0.45195   0.75000   0.00000  Uiso   1.00
C780   C     0.16490   0.53461   0.75000   0.00000  Uiso   1.00
C781   C     0.18390   0.53243   0.75000   0.00000  Uiso   1.00
C782   C     0.20481   0.55121   0.75000   0.00000  Uiso   1.00
C783   C     0.20611   0.57159   0.75000   0.00000  Uiso   1.00
C784   C     0.18716   0.57295   0.75000   0.00000  Uiso   1.00
C785   C     0.97277   0.50737   0.75000   0.00000  Uiso   1.00
C786   C     0.95954   0.51704   0.75000   0.00000  Uiso   1.00
C787   C     0.96894   0.53989   0.75000   0.00000  Uiso   1.00
C788   C     0.99186   0.55300   0.75000   0.00000  Uiso   1.00
C789   C     0.00516   0.54346   0.75000   0.00000  Uiso   1.00
C790   C     0.28892   0.55481   0.75000   0.00000  Uiso   1.00
C791   C     0.28960   0.53538   0.75000   0.00000  Uiso   1.00
C792   C     0.24956   0.51479   0.75000   0.00000  Uiso   1.00
C793   C     0.90720   0.31131   0.75000   0.00000  Uiso   1.00
C794   C     0.91732   0.29832   0.75000   0.00000  Uiso   1.00
C795   C     0.95313   0.33173   0.75000   0.00000  Uiso   1.00
C796   C     0.00819   0.89263   0.75000   0.00000  Uiso   1.00
N797   N     0.02762   0.89450   0.75000   0.00000  Uiso   1.00
N798   N     0.10665   0.97766   0.75000   0.00000  Uiso   1.00
C799   C     0.12763   0.98498   0.75000   0.00000  Uiso   1.00
N800   N     0.90515   0.27467   0.75000   0.00000  Uiso   1.00
C801   C     0.88390   0.26198   0.75000   0.00000  Uiso   1.00
C802   C     0.97630   0.38119   0.75000   0.00000  Uiso   1.00
N803   N     0.95508   0.36834   0.75000   0.00000  Uiso   1.00
C804   C     0.20964   0.08860   0.75000   0.00000  Uiso   1.00
C805   C     0.22784   0.10917   0.75000   0.00000  Uiso   1.00
C806   C     0.18621   0.10594   0.75000   0.00000  Uiso   1.00
N807   N     0.24798   0.14626   0.75000   0.00000  Uiso   1.00
C808   C     0.29540   0.17574   0.75000   0.00000  Uiso   1.00
C809   C     0.31847   0.18975   0.75000   0.00000  Uiso   1.00
C810   C     0.16991   0.05790   0.75000   0.00000  Uiso   1.00
C811   C     0.33693   0.14592   0.75000   0.00000  Uiso   1.00
C812   C     0.14610   0.04568   0.75000   0.00000  Uiso   1.00
C813   C     0.13317   0.02281   0.75000   0.00000  Uiso   1.00
C814   C     0.14223   0.00926   0.75000   0.00000  Uiso   1.00
C815   C     0.16486   0.01928   0.75000   0.00000  Uiso   1.00
C816   C     0.17803   0.04238   0.75000   0.00000  Uiso   1.00
C817   C     0.31580   0.22499   0.75000   0.00000  Uiso   1.00
C818   C     0.32534   0.24789   0.75000   0.00000  Uiso   1.00
C819   C     0.34817   0.26148   0.75000   0.00000  Uiso   1.00
C820   C     0.36139   0.25178   0.75000   0.00000  Uiso   1.00
C821   C     0.35197   0.22892   0.75000   0.00000  Uiso   1.00
C822   C     0.08450   0.13245   0.75000   0.00000  Uiso   1.00
C823   C     0.06429   0.11242   0.75000   0.00000  Uiso   1.00
C824   C     0.06363   0.15192   0.75000   0.00000  Uiso   1.00
C825   C     0.39121   0.32216   0.75000   0.00000  Uiso   1.00
C826   C     0.41420   0.33265   0.75000   0.00000  Uiso   1.00
C827   C     0.39384   0.35807   0.75000   0.00000  Uiso   1.00
C828   C     0.26138   0.13845   0.75000   0.00000  Uiso   1.00
C829   C     0.28577   0.15278   0.75000   0.00000  Uiso   1.00
C830   C     0.33155   0.17956   0.75000   0.00000  Uiso   1.00
C831   C     0.22657   0.12729   0.75000   0.00000  Uiso   1.00
C832   C     0.20673   0.12641   0.75000   0.00000  Uiso   1.00
C833   C     0.18723   0.08440   0.75000   0.00000  Uiso   1.00
N834   N     0.25019   0.11483   0.75000   0.00000  Uiso   1.00
C835   C     0.32248   0.15646   0.75000   0.00000  Uiso   1.00
C836   C     0.29935   0.14348   0.75000   0.00000  Uiso   1.00
C837   C     0.16677   0.11075   0.75000   0.00000  Uiso   1.00
C838   C     0.32882   0.21472   0.75000   0.00000  Uiso   1.00
C839   C     0.16820   0.13202   0.75000   0.00000  Uiso   1.00
C840   C     0.14926   0.13427   0.75000   0.00000  Uiso   1.00
C841   C     0.12835   0.11554   0.75000   0.00000  Uiso   1.00
C842   C     0.12697   0.09512   0.75000   0.00000  Uiso   1.00
C843   C     0.14586   0.09368   0.75000   0.00000  Uiso   1.00
C844   C     0.36025   0.15872   0.75000   0.00000  Uiso   1.00
C845   C     0.37337   0.14893   0.75000   0.00000  Uiso   1.00
C846   C     0.36387   0.12606   0.75000   0.00000  Uiso   1.00
C847   C     0.34093   0.11307   0.75000   0.00000  Uiso   1.00
C848   C     0.32773   0.12274   0.75000   0.00000  Uiso   1.00
C849   C     0.04452   0.11223   0.75000   0.00000  Uiso   1.00
C850   C     0.04386   0.13164   0.75000   0.00000  Uiso   1.00
C851   C     0.08389   0.15223   0.75000   0.00000  Uiso   1.00
C852   C     0.42698   0.35558   0.75000   0.00000  Uiso   1.00
C853   C     0.41684   0.36855   0.75000   0.00000  Uiso   1.00
C854   C     0.38105   0.33512   0.75000   0.00000  Uiso   1.00
C855   C     0.32542   0.77413   0.75000   0.00000  Uiso   1.00
N856   N     0.30594   0.77214   0.75000   0.00000  Uiso   1.00
N857   N     0.22684   0.68888   0.75000   0.00000  Uiso   1.00
C858   C     0.20586   0.68166   0.75000   0.00000  Uiso   1.00
N859   N     0.42899   0.39220   0.75000   0.00000  Uiso   1.00
C860   C     0.45024   0.40491   0.75000   0.00000  Uiso   1.00
C861   C     0.35790   0.28565   0.75000   0.00000  Uiso   1.00
N862   N     0.37913   0.29850   0.75000   0.00000  Uiso   1.00
H863   H     0.11806   0.58968   0.75000   0.00000  Uiso   1.00
H864   H     0.04905   0.48461   0.75000   0.00000  Uiso   1.00
H865   H     0.19940   0.61669   0.75000   0.00000  Uiso   1.00
H866   H     0.21787   0.65100   0.75000   0.00000  Uiso   1.00
H867   H     0.16080   0.65755   0.75000   0.00000  Uiso   1.00
H868   H     0.13852   0.62053   0.75000   0.00000  Uiso   1.00
H869   H     0.03572   0.45108   0.75000   0.00000  Uiso   1.00
H870   H     0.01941   0.41203   0.75000   0.00000  Uiso   1.00
H871   H     0.95477   0.40466   0.75000   0.00000  Uiso   1.00
H872   H     0.97009   0.44332   0.75000   0.00000  Uiso   1.00
H873   H     0.27045   0.57054   0.75000   0.00000  Uiso   1.00
H874   H     0.26999   0.49979   0.75000   0.00000  Uiso   1.00
H875   H     0.91195   0.34397   0.75000   0.00000  Uiso   1.00
H876   H     0.94837   0.29905   0.75000   0.00000  Uiso   1.00
H877   H     0.98437   0.47667   0.75000   0.00000  Uiso   1.00
H878   H     0.12451   0.52422   0.75000   0.00000  Uiso   1.00
H879   H     0.07672   0.56262   0.75000   0.00000  Uiso   1.00
H880   H     0.04153   0.54056   0.75000   0.00000  Uiso   1.00
H881   H     0.14986   0.51911   0.75000   0.00000  Uiso   1.00
H882   H     0.18218   0.51621   0.75000   0.00000  Uiso   1.00
H883   H     0.22184   0.58672   0.75000   0.00000  Uiso   1.00
H884   H     0.18795   0.58711   0.75000   0.00000  Uiso   1.00
H885   H     0.96405   0.48971   0.75000   0.00000  Uiso   1.00
H886   H     0.94183   0.50655   0.75000   0.00000  Uiso   1.00
H887   H     0.99965   0.57076   0.75000   0.00000  Uiso   1.00
H888   H     0.02252   0.55493   0.75000   0.00000  Uiso   1.00
H889   H     0.30412   0.57049   0.75000   0.00000  Uiso   1.00
H890   H     0.23437   0.49916   0.75000   0.00000  Uiso   1.00
H891   H     0.88955   0.30412   0.75000   0.00000  Uiso   1.00
H892   H     0.97079   0.33899   0.75000   0.00000  Uiso   1.00
H893   H     0.00634   0.90691   0.75000   0.00000  Uiso   1.00
H894   H     0.13416   0.97390   0.75000   0.00000  Uiso   1.00
H895   H     0.87304   0.26872   0.75000   0.00000  Uiso   1.00
H896   H     0.98730   0.37460   0.75000   0.00000  Uiso   1.00
H897   H     0.21508   0.07705   0.75000   0.00000  Uiso   1.00
H898   H     0.28440   0.18221   0.75000   0.00000  Uiso   1.00
H899   H     0.13377   0.04989   0.75000   0.00000  Uiso   1.00
H900   H     0.11537   0.01550   0.75000   0.00000  Uiso   1.00
H901   H     0.17257   0.00921   0.75000   0.00000  Uiso   1.00
H902   H     0.19471   0.04621   0.75000   0.00000  Uiso   1.00
H903   H     0.29812   0.21587   0.75000   0.00000  Uiso   1.00
H904   H     0.31474   0.25499   0.75000   0.00000  Uiso   1.00
H905   H     0.37915   0.26185   0.75000   0.00000  Uiso   1.00
H906   H     0.36351   0.22309   0.75000   0.00000  Uiso   1.00
H907   H     0.06290   0.09647   0.75000   0.00000  Uiso   1.00
H908   H     0.06347   0.16724   0.75000   0.00000  Uiso   1.00
H909   H     0.42227   0.32293   0.75000   0.00000  Uiso   1.00
H910   H     0.38579   0.36781   0.75000   0.00000  Uiso   1.00
H911   H     0.34892   0.18967   0.75000   0.00000  Uiso   1.00
H912   H     0.20856   0.14243   0.75000   0.00000  Uiso   1.00
H913   H     0.25634   0.10404   0.75000   0.00000  Uiso   1.00
H914   H     0.29148   0.12595   0.75000   0.00000  Uiso   1.00
H915   H     0.18324   0.14751   0.75000   0.00000  Uiso   1.00
H916   H     0.15101   0.15050   0.75000   0.00000  Uiso   1.00
H917   H     0.11121   0.08002   0.75000   0.00000  Uiso   1.00
H918   H     0.14496   0.07946   0.75000   0.00000  Uiso   1.00
H919   H     0.36906   0.17640   0.75000   0.00000  Uiso   1.00
H920   H     0.39110   0.15934   0.75000   0.00000  Uiso   1.00
H921   H     0.33306   0.09529   0.75000   0.00000  Uiso   1.00
H922   H     0.31034   0.11137   0.75000   0.00000  Uiso   1.00
H923   H     0.02931   0.09657   0.75000   0.00000  Uiso   1.00
H924   H     0.09910   0.16786   0.75000   0.00000  Uiso   1.00
H925   H     0.44463   0.36280   0.75000   0.00000  Uiso   1.00
H926   H     0.36339   0.32786   0.75000   0.00000  Uiso   1.00
H927   H     0.32732   0.75987   0.75000   0.00000  Uiso   1.00
H928   H     0.19941   0.69280   0.75000   0.00000  Uiso   1.00
H929   H     0.46113   0.39821   0.75000   0.00000  Uiso   1.00
H930   H     0.34693   0.29227   0.75000   0.00000  Uiso   1.00
C931   C     0.42191   0.54537   0.75000   0.00000  Uiso   1.00
C932   C     0.44249   0.54774   0.75000   0.00000  Uiso   1.00
C933   C     0.43931   0.58616   0.75000   0.00000  Uiso   1.00
N934   N     0.47956   0.56471   0.75000   0.00000  Uiso   1.00
C935   C     0.50903   0.54699   0.75000   0.00000  Uiso   1.00
C936   C     0.52315   0.53810   0.75000   0.00000  Uiso   1.00
C937   C     0.39126   0.55450   0.75000   0.00000  Uiso   1.00
C938   C     0.47970   0.47577   0.75000   0.00000  Uiso   1.00
C939   C     0.37910   0.56616   0.75000   0.00000  Uiso   1.00
C940   C     0.35624   0.55631   0.75000   0.00000  Uiso   1.00
C941   C     0.34262   0.53373   0.75000   0.00000  Uiso   1.00
C942   C     0.35258   0.52103   0.75000   0.00000  Uiso   1.00
C943   C     0.37568   0.53087   0.75000   0.00000  Uiso   1.00
C944   C     0.55812   0.57617   0.75000   0.00000  Uiso   1.00
C945   C     0.58098   0.58968   0.75000   0.00000  Uiso   1.00
C946   C     0.59470   0.58059   0.75000   0.00000  Uiso   1.00
C947   C     0.58516   0.55768   0.75000   0.00000  Uiso   1.00
C948   C     0.56237   0.54410   0.75000   0.00000  Uiso   1.00
C949   C     0.46546   0.71436   0.75000   0.00000  Uiso   1.00
C950   C     0.44541   0.71452   0.75000   0.00000  Uiso   1.00
C951   C     0.48488   0.75471   0.75000   0.00000  Uiso   1.00
C952   C     0.65531   0.59829   0.75000   0.00000  Uiso   1.00
C953   C     0.66576   0.58576   0.75000   0.00000  Uiso   1.00
C954   C     0.69120   0.63153   0.75000   0.00000  Uiso   1.00
C955   C     0.47177   0.54352   0.75000   0.00000  Uiso   1.00
C956   C     0.48613   0.53355   0.75000   0.00000  Uiso   1.00
C957   C     0.51314   0.51486   0.75000   0.00000  Uiso   1.00
C958   C     0.46060   0.56713   0.75000   0.00000  Uiso   1.00
C959   C     0.45976   0.58610   0.75000   0.00000  Uiso   1.00
C960   C     0.41775   0.56360   0.75000   0.00000  Uiso   1.00
N961   N     0.44815   0.53105   0.75000   0.00000  Uiso   1.00
C962   C     0.49006   0.50071   0.75000   0.00000  Uiso   1.00
C963   C     0.47695   0.51070   0.75000   0.00000  Uiso   1.00
C964   C     0.44413   0.61042   0.75000   0.00000  Uiso   1.00
C965   C     0.54805   0.55289   0.75000   0.00000  Uiso   1.00
C966   C     0.46539   0.63029   0.75000   0.00000  Uiso   1.00
C967   C     0.46757   0.65147   0.75000   0.00000  Uiso   1.00
C968   C     0.44879   0.65360   0.75000   0.00000  Uiso   1.00
C969   C     0.42841   0.63452   0.75000   0.00000  Uiso   1.00
C970   C     0.42705   0.61421   0.75000   0.00000  Uiso   1.00
C971   C     0.49263   0.46540   0.75000   0.00000  Uiso   1.00
C972   C     0.48296   0.44250   0.75000   0.00000  Uiso   1.00
C973   C     0.46011   0.42905   0.75000   0.00000  Uiso   1.00
C974   C     0.44700   0.43886   0.75000   0.00000  Uiso   1.00
C975   C     0.45654   0.46170   0.75000   0.00000  Uiso   1.00
C976   C     0.44519   0.73411   0.75000   0.00000  Uiso   1.00
C977   C     0.46462   0.75422   0.75000   0.00000  Uiso   1.00
C978   C     0.48521   0.73477   0.75000   0.00000  Uiso   1.00
C979   C     0.68869   0.59589   0.75000   0.00000  Uiso   1.00
C980   C     0.70168   0.61900   0.75000   0.00000  Uiso   1.00
C981   C     0.66827   0.62140   0.75000   0.00000  Uiso   1.00
C982   C     0.10737   0.11556   0.75000   0.00000  Uiso   1.00
N983   N     0.10550   0.13312   0.75000   0.00000  Uiso   1.00
N984   N     0.02234   0.12899   0.75000   0.00000  Uiso   1.00
C985   C     0.01502   0.14265   0.75000   0.00000  Uiso   1.00
N986   N     0.72533   0.63048   0.75000   0.00000  Uiso   1.00
C987   C     0.73802   0.62192   0.75000   0.00000  Uiso   1.00
C988   C     0.61881   0.59511   0.75000   0.00000  Uiso   1.00
N989   N     0.63166   0.58674   0.75000   0.00000  Uiso   1.00
C990   C     0.91140   0.12104   0.75000   0.00000  Uiso   1.00
C991   C     0.89083   0.11867   0.75000   0.00000  Uiso   1.00
C992   C     0.89406   0.08027   0.75000   0.00000  Uiso   1.00
N993   N     0.85374   0.10172   0.75000   0.00000  Uiso   1.00
C994   C     0.82426   0.11966   0.75000   0.00000  Uiso   1.00
C995   C     0.81025   0.12872   0.75000   0.00000  Uiso   1.00
C996   C     0.94210   0.11201   0.75000   0.00000  Uiso   1.00
C997   C     0.85408   0.19101   0.75000   0.00000  Uiso   1.00
C998   C     0.95432   0.10042   0.75000   0.00000  Uiso   1.00
C999   C     0.97719   0.11036   0.75000   0.00000  Uiso   1.00
C1000  C     0.99074   0.13297   0.75000   0.00000  Uiso   1.00
C1001  C     0.98072   0.14558   0.75000   0.00000  Uiso   1.00
C1002  C     0.95762   0.13565   0.75000   0.00000  Uiso   1.00
C1003  C     0.77501   0.09081   0.75000   0.00000  Uiso   1.00
C1004  C     0.75211   0.07745   0.75000   0.00000  Uiso   1.00
C1005  C     0.73852   0.08669   0.75000   0.00000  Uiso   1.00
C1006  C     0.74822   0.10961   0.75000   0.00000  Uiso   1.00
C1007  C     0.77108   0.12305   0.75000   0.00000  Uiso   1.00
C1008  C     0.86755   0.95205   0.75000   0.00000  Uiso   1.00
C1009  C     0.88758   0.95187   0.75000   0.00000  Uiso   1.00
C1010  C     0.84808   0.91171   0.75000   0.00000  Uiso   1.00
C1011  C     0.67784   0.06905   0.75000   0.00000  Uiso   1.00
C1012  C     0.66735   0.08155   0.75000   0.00000  Uiso   1.00
C1013  C     0.64193   0.03577   0.75000   0.00000  Uiso   1.00
C1014  C     0.86155   0.12293   0.75000   0.00000  Uiso   1.00
C1015  C     0.84722   0.13299   0.75000   0.00000  Uiso   1.00
C1016  C     0.82044   0.15199   0.75000   0.00000  Uiso   1.00
C1017  C     0.87271   0.09928   0.75000   0.00000  Uiso   1.00
C1018  C     0.87359   0.08032   0.75000   0.00000  Uiso   1.00
C1019  C     0.91560   0.10283   0.75000   0.00000  Uiso   1.00
N1020  N     0.88517   0.13536   0.75000   0.00000  Uiso   1.00
C1021  C     0.84354   0.16602   0.75000   0.00000  Uiso   1.00
C1022  C     0.85652   0.15587   0.75000   0.00000  Uiso   1.00
C1023  C     0.88925   0.05602   0.75000   0.00000  Uiso   1.00
C1024  C     0.78528   0.11410   0.75000   0.00000  Uiso   1.00
C1025  C     0.86798   0.03618   0.75000   0.00000  Uiso   1.00
C1026  C     0.86573   0.01499   0.75000   0.00000  Uiso   1.00
C1027  C     0.88446   0.01281   0.75000   0.00000  Uiso   1.00
C1028  C     0.90488   0.03185   0.75000   0.00000  Uiso   1.00
C1029  C     0.90632   0.05218   0.75000   0.00000  Uiso   1.00
C1030  C     0.84128   0.20153   0.75000   0.00000  Uiso   1.00
C1031  C     0.85107   0.22444   0.75000   0.00000  Uiso   1.00
C1032  C     0.87394   0.23781   0.75000   0.00000  Uiso   1.00
C1033  C     0.88693   0.22786   0.75000   0.00000  Uiso   1.00
C1034  C     0.87726   0.20499   0.75000   0.00000  Uiso   1.00
C1035  C     0.88777   0.93229   0.75000   0.00000  Uiso   1.00
C1036  C     0.86836   0.91222   0.75000   0.00000  Uiso   1.00
C1037  C     0.84777   0.93166   0.75000   0.00000  Uiso   1.00
C1038  C     0.64442   0.07140   0.75000   0.00000  Uiso   1.00
C1039  C     0.63145   0.04829   0.75000   0.00000  Uiso   1.00
C1040  C     0.66488   0.04593   0.75000   0.00000  Uiso   1.00
C1041  C     0.22587   0.55129   0.75000   0.00000  Uiso   1.00
N1042  N     0.22786   0.53380   0.75000   0.00000  Uiso   1.00
N1043  N     0.31112   0.53796   0.75000   0.00000  Uiso   1.00
C1044  C     0.31834   0.52420   0.75000   0.00000  Uiso   1.00
N1045  N     0.60780   0.03679   0.75000   0.00000  Uiso   1.00
C1046  C     0.59509   0.04533   0.75000   0.00000  Uiso   1.00
C1047  C     0.71435   0.07225   0.75000   0.00000  Uiso   1.00
N1048  N     0.70150   0.08063   0.75000   0.00000  Uiso   1.00
H1049  H     0.41032   0.52838   0.75000   0.00000  Uiso   1.00
H1050  H     0.51539   0.56444   0.75000   0.00000  Uiso   1.00
H1051  H     0.38331   0.58271   0.75000   0.00000  Uiso   1.00
H1052  H     0.34900   0.56687   0.75000   0.00000  Uiso   1.00
H1053  H     0.34245   0.50325   0.75000   0.00000  Uiso   1.00
H1054  H     0.37947   0.51799   0.75000   0.00000  Uiso   1.00
H1055  H     0.54892   0.58464   0.75000   0.00000  Uiso   1.00
H1056  H     0.58797   0.60738   0.75000   0.00000  Uiso   1.00
H1057  H     0.59534   0.55011   0.75000   0.00000  Uiso   1.00
H1058  H     0.55668   0.52677   0.75000   0.00000  Uiso   1.00
H1059  H     0.42946   0.69991   0.75000   0.00000  Uiso   1.00
H1060  H     0.50021   0.77020   0.75000   0.00000  Uiso   1.00
H1061  H     0.65603   0.56798   0.75000   0.00000  Uiso   1.00
H1062  H     0.70095   0.64932   0.75000   0.00000  Uiso   1.00
H1063  H     0.52333   0.50770   0.75000   0.00000  Uiso   1.00
H1064  H     0.47578   0.60029   0.75000   0.00000  Uiso   1.00
H1065  H     0.43738   0.51410   0.75000   0.00000  Uiso   1.00
H1066  H     0.45944   0.50097   0.75000   0.00000  Uiso   1.00
H1067  H     0.48089   0.63075   0.75000   0.00000  Uiso   1.00
H1068  H     0.48379   0.66597   0.75000   0.00000  Uiso   1.00
H1069  H     0.41328   0.63512   0.75000   0.00000  Uiso   1.00
H1070  H     0.41289   0.60084   0.75000   0.00000  Uiso   1.00
H1071  H     0.51029   0.47434   0.75000   0.00000  Uiso   1.00
H1072  H     0.49345   0.43528   0.75000   0.00000  Uiso   1.00
H1073  H     0.42924   0.42889   0.75000   0.00000  Uiso   1.00
H1074  H     0.44507   0.46759   0.75000   0.00000  Uiso   1.00
H1075  H     0.42951   0.73363   0.75000   0.00000  Uiso   1.00
H1076  H     0.50084   0.73521   0.75000   0.00000  Uiso   1.00
H1077  H     0.69588   0.58543   0.75000   0.00000  Uiso   1.00
H1078  H     0.66101   0.63180   0.75000   0.00000  Uiso   1.00
H1079  H     0.09309   0.09943   0.75000   0.00000  Uiso   1.00
H1080  H     0.02610   0.16026   0.75000   0.00000  Uiso   1.00
H1081  H     0.73128   0.60432   0.75000   0.00000  Uiso   1.00
H1082  H     0.62540   0.61270   0.75000   0.00000  Uiso   1.00
H1083  H     0.92295   0.13803   0.75000   0.00000  Uiso   1.00
H1084  H     0.81779   0.10219   0.75000   0.00000  Uiso   1.00
H1085  H     0.95011   0.08388   0.75000   0.00000  Uiso   1.00
H1086  H     0.98450   0.09987   0.75000   0.00000  Uiso   1.00
H1087  H     0.99079   0.16336   0.75000   0.00000  Uiso   1.00
H1088  H     0.95379   0.14850   0.75000   0.00000  Uiso   1.00
H1089  H     0.78413   0.08225   0.75000   0.00000  Uiso   1.00
H1090  H     0.74501   0.05975   0.75000   0.00000  Uiso   1.00
H1091  H     0.73815   0.11730   0.75000   0.00000  Uiso   1.00
H1092  H     0.77691   0.14042   0.75000   0.00000  Uiso   1.00
H1093  H     0.90353   0.96643   0.75000   0.00000  Uiso   1.00
H1094  H     0.83276   0.89623   0.75000   0.00000  Uiso   1.00
H1095  H     0.67707   0.09934   0.75000   0.00000  Uiso   1.00
H1096  H     0.63219   0.01798   0.75000   0.00000  Uiso   1.00
H1097  H     0.81033   0.15925   0.75000   0.00000  Uiso   1.00
H1098  H     0.85757   0.06613   0.75000   0.00000  Uiso   1.00
H1099  H     0.89596   0.15230   0.75000   0.00000  Uiso   1.00
H1100  H     0.87405   0.16553   0.75000   0.00000  Uiso   1.00
H1101  H     0.85249   0.03573   0.75000   0.00000  Uiso   1.00
H1102  H     0.84950   0.00051   0.75000   0.00000  Uiso   1.00
H1103  H     0.91998   0.03119   0.75000   0.00000  Uiso   1.00
H1104  H     0.92054   0.06550   0.75000   0.00000  Uiso   1.00
H1105  H     0.82360   0.19266   0.75000   0.00000  Uiso   1.00
H1106  H     0.84066   0.23176   0.75000   0.00000  Uiso   1.00
H1107  H     0.90471   0.23777   0.75000   0.00000  Uiso   1.00
H1108  H     0.88863   0.19897   0.75000   0.00000  Uiso   1.00
H1109  H     0.90343   0.93274   0.75000   0.00000  Uiso   1.00
H1110  H     0.83214   0.93124   0.75000   0.00000  Uiso   1.00
H1111  H     0.63720   0.08183   0.75000   0.00000  Uiso   1.00
H1112  H     0.67214   0.03553   0.75000   0.00000  Uiso   1.00
H1113  H     0.24013   0.56745   0.75000   0.00000  Uiso   1.00
H1114  H     0.30720   0.50661   0.75000   0.00000  Uiso   1.00
H1115  H     0.60179   0.06292   0.75000   0.00000  Uiso   1.00
H1116  H     0.70773   0.05466   0.75000   0.00000  Uiso   1.00
loop_
_geom_bond_atom_site_label_1
_geom_bond_atom_site_label_2
_geom_bond_distance
_geom_bond_site_symmetry_2
_ccdc_geom_bond_type
C1     C2      1.369   .     D
C1     C30     1.448   .     S
C1     H119    1.056   .     S
C2     C28     1.319   .     S
C2     N31     1.413   .     S
C3     C29     1.438   .     S
C3     C30     1.550   .     S
C3     C34     1.562   .     D
N4     C25     1.303   .     D
N4     C28     1.424   .     S
C5     C6      1.411   .     S
C5     C26     1.399   .     D
C5     H120    1.074   .     S
C6     C27     1.418   .     D
C6     C35     1.523   .     S
C7     C9      1.448   .     S
C7     C13     1.461   .     S
C7     C30     1.637   .     D
C8     C32     1.524   1_565 S
C8     C41     1.420   .     S
C8     C45     1.419   1_565 D
C9     C10     1.394   .     D
C9     H121    1.046   .     S
C10    C11     1.383   .     S
C10    H122    1.089   .     S
C11    C12     1.381   .     S
C11    C114    1.488   .     D
C12    C13     1.410   .     D
C12    H123    1.085   .     S
C13    H124    1.063   .     S
C14    C15     1.398   .     S
C14    C35     1.420   .     D
C14    H125    1.075   .     S
C15    C16     1.396   1_545 D
C15    H126    1.084   .     S
C16    C15     1.396   1_565 D
C16    C17     1.399   .     S
C16    C58     1.476   .     S
C17    C18     1.394   .     D
C17    H127    1.083   .     S
C18    C35     1.419   1_565 S
C18    H128    1.074   .     S
C19    C20     1.413   .     S
C19    C48     1.410   .     S
C19    N298    1.452   .     D
C20    C46     1.383   .     D
C20    H129    1.076   .     S
C21    C47     1.406   .     S
C21    C48     1.412   .     D
C21    H130    1.082   .     S
C22    C23     1.399   .     D
C22    C51     1.409   .     S
C22    N59     1.438   .     S
C23    C49     1.397   .     S
C23    H131    1.083   .     S
C24    C50     1.401   .     S
C24    C51     1.397   .     D
C24    H132    1.083   .     S
C25    C26     1.487   .     S
C25    N31     1.437   .     S
C26    C33     1.398   .     S
C27    C32     1.415   .     S
C27    H133    1.060   1_545 S
C28    C29     1.362   .     D
C29    H134    1.066   .     S
N31    H135    1.043   .     S
C32    C8      1.524   1_545 S
C32    C33     1.409   .     D
C33    H136    1.067   .     S
C34    C36     1.446   .     S
C34    C40     1.352   .     S
C35    C18     1.419   1_545 S
C36    C37     1.417   .     D
C36    H137    1.072   .     S
C37    C38     1.399   .     S
C37    H138    1.083   .     S
C38    C39     1.387   .     S
C38    C297    1.476   .     D
C39    C40     1.381   .     D
C39    H139    1.084   .     S
C40    H140    0.968   .     S
C41    C42     1.398   .     D
C41    H141    1.074   .     S
C42    C43     1.397   .     S
C42    H142    1.083   .     S
C43    C44     1.398   .     D
C43    C488    1.476   .     S
C44    C45     1.395   1_565 S
C44    H143    1.083   .     S
C45    C44     1.395   1_545 S
C45    C8      1.419   1_545 D
C45    H144    1.074   .     S
C46    C47     1.389   .     S
C46    H145    1.084   .     S
C47    N299    1.429   .     D
C48    H146    1.082   .     S
C49    C50     1.409   .     D
C49    H147    1.079   .     S
C50    N56     1.438   .     S
C51    H148    1.079   .     S
C52    N53     1.304   .     D
C52    H149    1.073   .     S
C52    C469    1.474   1_545 S
N53    C450    1.451   .     S
N54    C55     1.295   .     D
N54    C478    1.427   .     S
C55    C70     1.486   .     S
C55    H150    1.083   .     S
N56    C57     1.300   .     D
C57    H151    1.080   .     S
C57    C288    1.477   .     S
C58    N59     1.300   .     D
C58    H152    1.081   .     S
C60    C61     1.369   .     D
C60    C89     1.449   .     S
C60    H153    1.055   .     S
C61    C87     1.319   .     S
C61    N90     1.413   .     S
C62    C88     1.439   .     S
C62    C89     1.549   .     D
C62    C93     1.561   .     S
N63    C84     1.304   .     D
N63    C87     1.425   .     S
C64    C65     1.413   .     S
C64    C85     1.402   .     D
C64    H154    1.074   .     S
C65    C86     1.419   .     D
C65    C94     1.526   .     S
C66    C68     1.448   .     D
C66    C72     1.461   .     S
C66    C89     1.636   .     S
C67    C91     1.526   .     S
C67    C100    1.420   .     D
C67    C104    1.419   .     S
C68    C69     1.395   .     S
C68    H155    1.045   .     S
C69    C70     1.384   .     D
C69    H156    1.088   .     S
C70    C71     1.379   .     S
C71    C72     1.409   .     D
C71    H157    1.084   .     S
C72    H158    1.062   .     S
C73    C74     1.399   .     S
C73    C94     1.419   .     D
C73    H159    1.075   .     S
C74    C75     1.397   .     D
C74    H160    1.083   .     S
C75    C76     1.399   .     S
C75    C117    1.479   .     S
C76    C77     1.397   .     D
C76    H161    1.083   .     S
C77    C94     1.420   .     S
C77    H162    1.075   .     S
C78    C79     1.413   .     D
C78    C107    1.411   .     S
C78    N239    1.451   .     S
C79    C105    1.381   .     S
C79    H163    1.074   .     S
C80    C106    1.406   .     S
C80    C107    1.412   .     D
C80    H164    1.081   .     S
C81    C82     1.400   .     D
C81    C110    1.409   .     S
C81    N118    1.439   .     S
C82    C108    1.397   .     S
C82    H165    1.083   .     S
C83    C109    1.400   .     S
C83    C110    1.398   .     D
C83    H166    1.083   .     S
C84    C85     1.491   .     S
C84    N90     1.437   .     S
C85    C92     1.399   .     S
C86    C91     1.415   .     S
C86    H167    1.061   .     S
C87    C88     1.363   .     D
C88    H168    1.066   .     S
N90    H169    1.043   .     S
C91    C92     1.410   .     D
C92    H170    1.068   .     S
C93    C95     1.446   .     D
C93    C99     1.354   .     S
C95    C96     1.415   .     S
C95    H171    1.072   .     S
C96    C97     1.398   .     D
C96    H172    1.083   .     S
C97    C98     1.388   .     S
C97    C238    1.474   1_455 S
C98    C99     1.380   .     D
C98    H173    1.084   .     S
C99    H174    0.968   .     S
C100   C101    1.398   .     S
C100   H175    1.075   .     S
C101   C102    1.397   .     D
C101   H176    1.083   .     S
C102   C103    1.399   .     S
C102   C429    1.477   .     S
C103   C104    1.396   .     D
C103   H177    1.083   .     S
C104   H178    1.074   .     S
C105   C106    1.387   .     D
C105   H179    1.084   .     S
C106   N240    1.427   .     S
C107   H180    1.083   .     S
C108   C109    1.409   .     D
C108   H181    1.079   .     S
C109   N115    1.438   .     S
C110   H182    1.079   .     S
C111   N112    1.303   .     S
C111   H183    1.074   .     S
C111   C410    1.476   .     D
N112   C391    1.452   .     D
N113   C114    1.296   .     S
N113   C419    1.429   .     D
C114   H184    1.082   .     S
N115   C116    1.300   .     D
C116   H185    1.080   .     S
C116   C229    1.476   .     S
C117   N118    1.300   .     D
C117   H186    1.080   .     S
H133   C27     1.060   1_565 S
C187   C188    1.369   .     D
C187   C216    1.448   .     S
C187   H305    1.056   .     S
C188   C214    1.319   .     S
C188   N217    1.413   .     S
C189   C215    1.438   .     S
C189   C216    1.550   .     S
C189   C220    1.562   .     D
N190   C211    1.303   .     D
N190   C214    1.424   .     S
C191   C192    1.411   .     D
C191   C212    1.399   .     S
C191   H306    1.074   .     S
C192   C213    1.418   .     S
C192   C221    1.523   .     S
C193   C195    1.448   .     S
C193   C199    1.461   .     S
C193   C216    1.637   .     D
C194   C218    1.524   1_455 S
C194   C227    1.420   .     D
C194   C231    1.419   1_455 S
C195   C196    1.394   .     D
C195   H307    1.046   .     S
C196   C197    1.383   .     S
C196   H308    1.089   .     S
C197   C198    1.381   .     S
C197   C300    1.488   .     D
C198   C199    1.410   .     D
C198   H309    1.085   .     S
C199   H310    1.063   .     S
C200   C201    1.398   .     S
C200   C221    1.420   .     D
C200   H311    1.075   .     S
C201   C202    1.396   1_655 D
C201   H312    1.084   .     S
C202   C201    1.396   1_455 D
C202   C203    1.399   .     S
C202   C244    1.476   .     S
C203   C204    1.394   .     D
C203   H313    1.083   .     S
C204   C221    1.419   1_455 S
C204   H314    1.074   .     S
C205   C206    1.413   .     S
C205   C234    1.410   .     S
C205   N484    1.452   .     D
C206   C232    1.383   .     D
C206   H315    1.076   .     S
C207   C233    1.406   .     S
C207   C234    1.412   .     D
C207   H316    1.082   .     S
C208   C209    1.399   .     S
C208   C237    1.409   .     D
C208   N245    1.438   .     S
C209   C235    1.397   .     D
C209   H317    1.083   .     S
C210   C236    1.401   .     D
C210   C237    1.397   .     S
C210   H318    1.083   .     S
C211   C212    1.487   .     S
C211   N217    1.437   .     S
C212   C219    1.398   .     D
C213   C218    1.415   .     D
C213   H319    1.060   1_655 S
C214   C215    1.362   .     D
C215   H320    1.066   .     S
N217   H321    1.043   .     S
C218   C194    1.524   1_655 S
C218   C219    1.409   .     S
C219   H322    1.067   .     S
C220   C222    1.446   .     S
C220   C226    1.352   .     S
C221   C204    1.419   1_655 S
C222   C223    1.417   .     D
C222   H323    1.072   .     S
C223   C224    1.399   .     S
C223   H324    1.083   .     S
C224   C225    1.387   .     S
C224   C483    1.476   .     D
C225   C226    1.381   .     D
C225   H325    1.084   .     S
C226   H326    0.968   .     S
C227   C228    1.398   .     S
C227   H327    1.074   .     S
C228   C229    1.397   .     D
C228   H328    1.083   .     S
C229   C230    1.398   .     S
C230   C231    1.395   1_455 D
C230   H329    1.083   .     S
C231   C194    1.419   1_655 S
C231   C230    1.395   1_655 D
C231   H330    1.074   .     S
C232   C233    1.389   .     S
C232   H331    1.084   .     S
C233   N485    1.429   .     D
C234   H332    1.082   .     S
C235   C236    1.409   .     S
C235   H333    1.079   .     S
C236   N242    1.438   .     S
C237   H334    1.079   .     S
C238   C97     1.474   1_655 S
C238   N239    1.304   .     D
C238   H335    1.073   .     S
N240   C241    1.295   .     D
C241   C256    1.486   1_545 S
C241   H336    1.083   .     S
N242   C243    1.300   .     D
C243   H337    1.080   .     S
C243   C474    1.477   .     S
C244   N245    1.300   .     D
C244   H338    1.081   .     S
C246   C247    1.369   .     S
C246   C275    1.449   .     D
C246   H339    1.055   .     S
C247   C273    1.319   .     D
C247   N276    1.413   .     S
C248   C274    1.439   .     D
C248   C275    1.549   .     S
C248   C279    1.561   .     S
N249   C270    1.304   .     D
N249   C273    1.425   .     S
C250   C251    1.413   .     D
C250   C271    1.402   .     S
C250   H340    1.074   .     S
C251   C272    1.419   .     S
C251   C280    1.526   .     S
C252   C254    1.448   .     D
C252   C258    1.461   .     S
C252   C275    1.636   .     S
C253   C277    1.526   .     S
C253   C286    1.420   .     D
C253   C290    1.419   .     S
C254   C255    1.395   .     S
C254   H341    1.045   .     S
C255   C256    1.384   .     D
C255   H342    1.088   .     S
C256   C241    1.486   1_565 S
C256   C257    1.379   .     S
C257   C258    1.409   .     D
C257   H343    1.084   .     S
C258   H344    1.062   .     S
C259   C260    1.399   .     S
C259   C280    1.419   .     D
C259   H345    1.075   .     S
C260   C261    1.397   .     D
C260   H346    1.083   .     S
C261   C262    1.399   .     S
C261   C303    1.479   .     S
C262   C263    1.397   .     D
C262   H347    1.083   .     S
C263   C280    1.420   .     S
C263   H348    1.075   .     S
C264   C265    1.413   .     S
C264   C293    1.411   .     D
C264   N425    1.451   .     S
C265   C291    1.381   .     D
C265   H349    1.074   .     S
C266   C292    1.406   .     D
C266   C293    1.412   .     S
C266   H350    1.081   .     S
C267   C268    1.400   .     D
C267   C296    1.409   .     S
C267   N304    1.439   .     S
C268   C294    1.397   .     S
C268   H351    1.083   .     S
C269   C295    1.400   .     S
C269   C296    1.398   .     D
C269   H352    1.083   .     S
C270   C271    1.491   .     S
C270   N276    1.437   .     S
C271   C278    1.399   .     D
C272   C277    1.415   .     D
C272   H353    1.061   .     S
C273   C274    1.363   .     S
C274   H354    1.066   .     S
N276   H355    1.043   .     S
C277   C278    1.410   .     S
C278   H356    1.068   .     S
C279   C281    1.446   .     D
C279   C285    1.354   .     S
C281   C282    1.415   .     S
C281   H357    1.072   .     S
C282   C283    1.398   .     D
C282   H358    1.083   .     S
C283   C284    1.388   .     S
C283   C424    1.474   .     S
C284   C285    1.380   .     D
C284   H359    1.084   .     S
C285   H360    0.968   .     S
C286   C287    1.398   .     S
C286   H361    1.075   .     S
C287   C288    1.397   .     D
C287   H362    1.083   .     S
C288   C289    1.399   .     S
C289   C290    1.396   .     D
C289   H363    1.083   .     S
C290   H364    1.074   .     S
C291   C292    1.387   .     S
C291   H365    1.084   .     S
C292   N426    1.427   .     S
C293   H366    1.083   .     S
C294   C295    1.409   .     D
C294   H367    1.079   .     S
C295   N301    1.438   .     S
C296   H368    1.079   .     S
C297   N298    1.303   .     S
C297   H369    1.074   .     S
N299   C300    1.296   .     S
C300   H370    1.082   .     S
N301   C302    1.300   .     D
C302   H371    1.080   .     S
C302   C415    1.476   .     S
C303   N304    1.300   .     D
C303   H372    1.080   .     S
H319   C213    1.060   1_455 S
C373   C374    1.369   .     D
C373   C402    1.448   .     S
C373   H491    1.056   .     S
C374   C400    1.319   .     S
C374   N403    1.413   .     S
C375   C401    1.438   .     S
C375   C402    1.550   .     S
C375   C406    1.562   .     D
N376   C397    1.303   .     D
N376   C400    1.424   .     S
C377   C378    1.411   .     D
C377   C398    1.399   .     S
C377   H492    1.074   .     S
C378   C399    1.418   .     S
C378   C407    1.523   .     S
C379   C381    1.448   .     S
C379   C385    1.461   .     S
C379   C402    1.637   .     D
C380   C404    1.524   .     S
C380   C413    1.420   .     D
C380   C417    1.419   .     S
C381   C382    1.394   .     D
C381   H493    1.046   .     S
C382   C383    1.383   .     S
C382   H494    1.089   .     S
C383   C384    1.381   .     S
C383   C486    1.488   .     D
C384   C385    1.410   .     D
C384   H495    1.085   .     S
C385   H496    1.063   .     S
C386   C387    1.398   .     S
C386   C407    1.420   .     D
C386   H497    1.075   .     S
C387   C388    1.396   .     D
C387   H498    1.084   .     S
C388   C389    1.399   .     S
C388   C430    1.476   .     S
C389   C390    1.394   .     D
C389   H499    1.083   .     S
C390   C407    1.419   .     S
C390   H500    1.074   .     S
C391   C392    1.413   .     S
C391   C420    1.410   .     S
C392   C418    1.383   .     D
C392   H501    1.076   .     S
C393   C419    1.406   .     S
C393   C420    1.412   .     D
C393   H502    1.082   .     S
C394   C395    1.399   .     D
C394   C423    1.409   .     S
C394   N431    1.438   .     S
C395   C421    1.397   .     S
C395   H503    1.083   .     S
C396   C422    1.401   .     S
C396   C423    1.397   .     D
C396   H504    1.083   .     S
C397   C398    1.487   .     S
C397   N403    1.437   .     S
C398   C405    1.398   .     D
C399   C404    1.415   .     D
C399   H505    1.060   .     S
C400   C401    1.362   .     D
C401   H506    1.066   .     S
N403   H507    1.043   .     S
C404   C405    1.409   .     S
C405   H508    1.067   .     S
C406   C408    1.446   .     S
C406   C412    1.352   .     S
C408   C409    1.417   .     D
C408   H509    1.072   .     S
C409   C410    1.399   .     S
C409   H510    1.083   .     S
C410   C411    1.387   .     S
C411   C412    1.381   .     D
C411   H511    1.084   .     S
C412   H512    0.968   .     S
C413   C414    1.398   .     S
C413   H513    1.074   .     S
C414   C415    1.397   .     D
C414   H514    1.083   .     S
C415   C416    1.398   .     S
C416   C417    1.395   .     D
C416   H515    1.083   .     S
C417   H516    1.074   .     S
C418   C419    1.389   .     S
C418   H517    1.084   .     S
C420   H518    1.082   .     S
C421   C422    1.409   .     D
C421   H519    1.079   .     S
C422   N428    1.438   .     S
C423   H520    1.079   .     S
C424   N425    1.304   .     D
C424   H521    1.073   .     S
N426   C427    1.295   .     D
C427   C442    1.486   1_655 S
C427   H522    1.083   .     S
N428   C429    1.300   .     D
C429   H523    1.080   .     S
C430   N431    1.300   .     D
C430   H524    1.081   .     S
C432   C433    1.369   .     S
C432   C461    1.449   .     D
C432   H525    1.055   .     S
C433   C459    1.319   .     D
C433   N462    1.413   .     S
C434   C460    1.439   .     D
C434   C461    1.549   .     S
C434   C465    1.561   .     S
N435   C456    1.304   .     D
N435   C459    1.425   .     S
C436   C437    1.413   .     S
C436   C457    1.402   .     D
C436   H526    1.074   .     S
C437   C458    1.419   .     D
C437   C466    1.526   .     S
C438   C440    1.448   .     D
C438   C444    1.461   .     S
C438   C461    1.636   .     S
C439   C463    1.526   .     S
C439   C472    1.420   .     D
C439   C476    1.419   .     S
C440   C441    1.395   .     S
C440   H527    1.045   .     S
C441   C442    1.384   .     D
C441   H528    1.088   .     S
C442   C427    1.486   1_455 S
C442   C443    1.379   .     S
C443   C444    1.409   .     D
C443   H529    1.084   .     S
C444   H530    1.062   .     S
C445   C446    1.399   .     S
C445   C466    1.419   .     D
C445   H531    1.075   .     S
C446   C447    1.397   .     D
C446   H532    1.083   .     S
C447   C448    1.399   .     S
C447   C489    1.479   .     S
C448   C449    1.397   .     D
C448   H533    1.083   .     S
C449   C466    1.420   .     S
C449   H534    1.075   .     S
C450   C451    1.413   .     D
C450   C479    1.411   .     S
C451   C477    1.381   .     S
C451   H535    1.074   .     S
C452   C478    1.406   .     S
C452   C479    1.412   .     D
C452   H536    1.081   .     S
C453   C454    1.400   .     S
C453   C482    1.409   .     D
C453   N490    1.439   .     S
C454   C480    1.397   .     D
C454   H537    1.083   .     S
C455   C481    1.400   .     D
C455   C482    1.398   .     S
C455   H538    1.083   .     S
C456   C457    1.491   .     S
C456   N462    1.437   .     S
C457   C464    1.399   .     S
C458   C463    1.415   .     S
C458   H539    1.061   .     S
C459   C460    1.363   .     S
C460   H540    1.066   .     S
N462   H541    1.043   .     S
C463   C464    1.410   .     D
C464   H542    1.068   .     S
C465   C467    1.446   .     D
C465   C471    1.354   .     S
C467   C468    1.415   .     S
C467   H543    1.072   .     S
C468   C469    1.398   .     D
C468   H544    1.083   .     S
C469   C52     1.474   1_565 S
C469   C470    1.388   .     S
C470   C471    1.380   .     D
C470   H545    1.084   .     S
C471   H546    0.968   .     S
C472   C473    1.398   .     S
C472   H547    1.075   .     S
C473   C474    1.397   .     D
C473   H548    1.083   .     S
C474   C475    1.399   .     S
C475   C476    1.396   .     D
C475   H549    1.083   .     S
C476   H550    1.074   .     S
C477   C478    1.387   .     D
C477   H551    1.084   .     S
C479   H552    1.083   .     S
C480   C481    1.409   .     S
C480   H553    1.079   .     S
C481   N487    1.438   .     S
C482   H554    1.079   .     S
C483   N484    1.303   .     S
C483   H555    1.074   .     S
N485   C486    1.296   .     S
C486   H556    1.082   .     S
N487   C488    1.300   .     D
C488   H557    1.080   .     S
C489   N490    1.300   .     D
C489   H558    1.080   .     S
C559   C560    1.369   .     D
C559   C588    1.448   .     S
C559   H677    1.056   .     S
C560   C586    1.319   .     S
C560   N589    1.413   .     S
C561   C587    1.438   .     S
C561   C588    1.550   .     S
C561   C592    1.562   .     D
N562   C583    1.303   .     D
N562   C586    1.424   .     S
C563   C564    1.411   .     S
C563   C584    1.399   .     D
C563   H678    1.074   .     S
C564   C585    1.418   .     D
C564   C593    1.523   .     S
C565   C567    1.448   .     S
C565   C571    1.461   .     S
C565   C588    1.637   .     D
C566   C590    1.524   1_545 S
C566   C599    1.420   .     S
C566   C603    1.419   1_545 D
C567   C568    1.394   .     D
C567   H679    1.046   .     S
C568   C569    1.383   .     S
C568   H680    1.089   .     S
C569   C570    1.381   .     S
C569   C672    1.488   .     D
C570   C571    1.410   .     D
C570   H681    1.085   .     S
C571   H682    1.063   .     S
C572   C573    1.398   .     S
C572   C593    1.420   .     D
C572   H683    1.075   .     S
C573   C574    1.396   1_565 D
C573   H684    1.084   .     S
C574   C573    1.396   1_545 D
C574   C575    1.399   .     S
C574   C616    1.476   .     S
C575   C576    1.394   .     D
C575   H685    1.083   .     S
C576   C593    1.419   1_545 S
C576   H686    1.074   .     S
C577   C578    1.413   .     S
C577   C606    1.410   .     S
C577   N856    1.452   .     D
C578   C604    1.383   .     D
C578   H687    1.076   .     S
C579   C605    1.406   .     S
C579   C606    1.412   .     D
C579   H688    1.082   .     S
C580   C581    1.399   .     D
C580   C609    1.409   .     S
C580   N617    1.438   .     S
C581   C607    1.397   .     S
C581   H689    1.083   .     S
C582   C608    1.401   .     S
C582   C609    1.397   .     D
C582   H690    1.083   .     S
C583   C584    1.487   .     S
C583   N589    1.437   .     S
C584   C591    1.398   .     S
C585   C590    1.415   .     S
C585   H691    1.060   1_565 S
C586   C587    1.362   .     D
C587   H692    1.066   .     S
N589   H693    1.043   .     S
C590   C566    1.524   1_565 S
C590   C591    1.409   .     D
C591   H694    1.067   .     S
C592   C594    1.446   .     S
C592   C598    1.352   .     S
C593   C576    1.419   1_565 S
C594   C595    1.417   .     D
C594   H695    1.072   .     S
C595   C596    1.399   .     S
C595   H696    1.083   .     S
C596   C597    1.387   .     S
C596   C855    1.476   .     D
C597   C598    1.381   .     D
C597   H697    1.084   .     S
C598   H698    0.968   .     S
C599   C600    1.398   .     D
C599   H699    1.074   .     S
C600   C601    1.397   .     S
C600   H700    1.083   .     S
C601   C602    1.398   .     D
C601   C1046   1.476   .     S
C602   C603    1.395   1_545 S
C602   H701    1.083   .     S
C603   C602    1.395   1_565 S
C603   C566    1.419   1_565 D
C603   H702    1.074   .     S
C604   C605    1.389   .     S
C604   H703    1.084   .     S
C605   N857    1.429   .     D
C606   H704    1.082   .     S
C607   C608    1.409   .     D
C607   H705    1.079   .     S
C608   N614    1.438   .     S
C609   H706    1.079   .     S
C610   N611    1.304   .     D
C610   H707    1.073   .     S
C610   C1027   1.474   1_565 S
N611   C1008   1.451   .     S
N612   C613    1.295   .     D
N612   C1036   1.427   .     S
C613   C628    1.486   .     S
C613   H708    1.083   .     S
N614   C615    1.300   .     D
C615   H709    1.080   .     S
C615   C846    1.477   .     S
C616   N617    1.300   .     D
C616   H710    1.081   .     S
C618   C619    1.369   .     D
C618   C647    1.449   .     S
C618   H711    1.055   .     S
C619   C645    1.319   .     S
C619   N648    1.413   .     S
C620   C646    1.439   .     S
C620   C647    1.549   .     D
C620   C651    1.561   .     S
N621   C642    1.304   .     D
N621   C645    1.425   .     S
C622   C623    1.413   .     S
C622   C643    1.402   .     D
C622   H712    1.074   .     S
C623   C644    1.419   .     D
C623   C652    1.526   .     S
C624   C626    1.448   .     D
C624   C630    1.461   .     S
C624   C647    1.636   .     S
C625   C649    1.526   .     S
C625   C658    1.420   .     D
C625   C662    1.419   .     S
C626   C627    1.395   .     S
C626   H713    1.045   .     S
C627   C628    1.384   .     D
C627   H714    1.088   .     S
C628   C629    1.379   .     S
C629   C630    1.409   .     D
C629   H715    1.084   .     S
C630   H716    1.062   .     S
C631   C632    1.399   .     S
C631   C652    1.419   .     D
C631   H717    1.075   .     S
C632   C633    1.397   .     D
C632   H718    1.083   .     S
C633   C634    1.399   .     S
C633   C675    1.479   .     S
C634   C635    1.397   .     D
C634   H719    1.083   .     S
C635   C652    1.420   .     S
C635   H720    1.075   .     S
C636   C637    1.413   .     D
C636   C665    1.411   .     S
C636   N797    1.451   .     S
C637   C663    1.381   .     S
C637   H721    1.074   .     S
C638   C664    1.406   .     S
C638   C665    1.412   .     D
C638   H722    1.081   .     S
C639   C640    1.400   .     D
C639   C668    1.409   .     S
C639   N676    1.439   .     S
C640   C666    1.397   .     S
C640   H723    1.083   .     S
C641   C667    1.400   .     S
C641   C668    1.398   .     D
C641   H724    1.083   .     S
C642   C643    1.491   .     S
C642   N648    1.437   .     S
C643   C650    1.399   .     S
C644   C649    1.415   .     S
C644   H725    1.061   .     S
C645   C646    1.363   .     D
C646   H726    1.066   .     S
N648   H727    1.043   .     S
C649   C650    1.410   .     D
C650   H728    1.068   .     S
C651   C653    1.446   .     D
C651   C657    1.354   .     S
C653   C654    1.415   .     S
C653   H729    1.072   .     S
C654   C655    1.398   .     D
C654   H730    1.083   .     S
C655   C656    1.388   .     S
C655   C796    1.474   1_655 S
C656   C657    1.380   .     D
C656   H731    1.084   .     S
C657   H732    0.968   .     S
C658   C659    1.398   .     S
C658   H733    1.075   .     S
C659   C660    1.397   .     D
C659   H734    1.083   .     S
C660   C661    1.399   .     S
C660   C987    1.477   .     S
C661   C662    1.396   .     D
C661   H735    1.083   .     S
C662   H736    1.074   .     S
C663   C664    1.387   .     D
C663   H737    1.084   .     S
C664   N798    1.427   .     S
C665   H738    1.083   .     S
C666   C667    1.409   .     D
C666   H739    1.079   .     S
C667   N673    1.438   .     S
C668   H740    1.079   .     S
C669   N670    1.303   .     S
C669   H741    1.074   .     S
C669   C968    1.476   .     D
N670   C949    1.452   .     D
N671   C672    1.296   .     S
N671   C977    1.429   .     D
C672   H742    1.082   .     S
N673   C674    1.300   .     D
C674   H743    1.080   .     S
C674   C787    1.476   .     S
C675   N676    1.300   .     D
C675   H744    1.080   .     S
H691   C585    1.060   1_545 S
C745   C746    1.369   .     D
C745   C774    1.448   .     S
C745   H863    1.056   .     S
C746   C772    1.319   .     S
C746   N775    1.413   .     S
C747   C773    1.438   .     S
C747   C774    1.550   .     S
C747   C778    1.562   .     D
N748   C769    1.303   .     D
N748   C772    1.424   .     S
C749   C750    1.411   .     D
C749   C770    1.399   .     S
C749   H864    1.074   .     S
C750   C771    1.418   .     S
C750   C779    1.523   .     S
C751   C753    1.448   .     S
C751   C757    1.461   .     S
C751   C774    1.637   .     D
C752   C776    1.524   1_655 S
C752   C785    1.420   .     D
C752   C789    1.419   1_655 S
C753   C754    1.394   .     D
C753   H865    1.046   .     S
C754   C755    1.383   .     S
C754   H866    1.089   .     S
C755   C756    1.381   .     S
C755   C858    1.488   .     D
C756   C757    1.410   .     D
C756   H867    1.085   .     S
C757   H868    1.063   .     S
C758   C759    1.398   .     S
C758   C779    1.420   .     D
C758   H869    1.075   .     S
C759   C760    1.396   1_455 D
C759   H870    1.084   .     S
C760   C759    1.396   1_655 D
C760   C761    1.399   .     S
C760   C802    1.476   .     S
C761   C762    1.394   .     D
C761   H871    1.083   .     S
C762   C779    1.419   1_655 S
C762   H872    1.074   .     S
C763   C764    1.413   .     S
C763   C792    1.410   .     S
C763   N1042   1.452   .     D
C764   C790    1.383   .     D
C764   H873    1.076   .     S
C765   C791    1.406   .     S
C765   C792    1.412   .     D
C765   H874    1.082   .     S
C766   C767    1.399   .     S
C766   C795    1.409   .     D
C766   N803    1.438   .     S
C767   C793    1.397   .     D
C767   H875    1.083   .     S
C768   C794    1.401   .     D
C768   C795    1.397   .     S
C768   H876    1.083   .     S
C769   C770    1.487   .     S
C769   N775    1.437   .     S
C770   C777    1.398   .     D
C771   C776    1.415   .     D
C771   H877    1.060   1_455 S
C772   C773    1.362   .     D
C773   H878    1.066   .     S
N775   H879    1.043   .     S
C776   C752    1.524   1_455 S
C776   C777    1.409   .     S
C777   H880    1.067   .     S
C778   C780    1.446   .     S
C778   C784    1.352   .     S
C779   C762    1.419   1_455 S
C780   C781    1.417   .     D
C780   H881    1.072   .     S
C781   C782    1.399   .     S
C781   H882    1.083   .     S
C782   C783    1.387   .     S
C782   C1041   1.476   .     D
C783   C784    1.381   .     D
C783   H883    1.084   .     S
C784   H884    0.968   .     S
C785   C786    1.398   .     S
C785   H885    1.074   .     S
C786   C787    1.397   .     D
C786   H886    1.083   .     S
C787   C788    1.398   .     S
C788   C789    1.395   1_655 D
C788   H887    1.083   .     S
C789   C788    1.395   1_455 D
C789   C752    1.419   1_455 S
C789   H888    1.074   .     S
C790   C791    1.389   .     S
C790   H889    1.084   .     S
C791   N1043   1.429   .     D
C792   H890    1.082   .     S
C793   C794    1.409   .     S
C793   H891    1.079   .     S
C794   N800    1.438   .     S
C795   H892    1.079   .     S
C796   C655    1.474   1_455 S
C796   N797    1.304   .     D
C796   H893    1.073   .     S
N798   C799    1.295   .     D
C799   C814    1.486   1_565 S
C799   H894    1.083   .     S
N800   C801    1.300   .     D
C801   H895    1.080   .     S
C801   C1032   1.477   .     S
C802   N803    1.300   .     D
C802   H896    1.081   .     S
C804   C805    1.369   .     S
C804   C833    1.449   .     D
C804   H897    1.055   .     S
C805   C831    1.319   .     D
C805   N834    1.413   .     S
C806   C832    1.439   .     D
C806   C833    1.549   .     S
C806   C837    1.561   .     S
N807   C828    1.304   .     D
N807   C831    1.425   .     S
C808   C809    1.413   .     D
C808   C829    1.402   .     S
C808   H898    1.074   .     S
C809   C830    1.419   .     S
C809   C838    1.526   .     S
C810   C812    1.448   .     D
C810   C816    1.461   .     S
C810   C833    1.636   .     S
C811   C835    1.526   .     S
C811   C844    1.420   .     D
C811   C848    1.419   .     S
C812   C813    1.395   .     S
C812   H899    1.045   .     S
C813   C814    1.384   .     D
C813   H900    1.088   .     S
C814   C799    1.486   1_545 S
C814   C815    1.379   .     S
C815   C816    1.409   .     D
C815   H901    1.084   .     S
C816   H902    1.062   .     S
C817   C818    1.399   .     S
C817   C838    1.419   .     D
C817   H903    1.075   .     S
C818   C819    1.397   .     D
C818   H904    1.083   .     S
C819   C820    1.399   .     S
C819   C861    1.479   .     S
C820   C821    1.397   .     D
C820   H905    1.083   .     S
C821   C838    1.420   .     S
C821   H906    1.075   .     S
C822   C823    1.413   .     S
C822   C851    1.411   .     D
C822   N983    1.451   .     S
C823   C849    1.381   .     D
C823   H907    1.074   .     S
C824   C850    1.406   .     D
C824   C851    1.412   .     S
C824   H908    1.081   .     S
C825   C826    1.400   .     D
C825   C854    1.409   .     S
C825   N862    1.439   .     S
C826   C852    1.397   .     S
C826   H909    1.083   .     S
C827   C853    1.400   .     S
C827   C854    1.398   .     D
C827   H910    1.083   .     S
C828   C829    1.491   .     S
C828   N834    1.437   .     S
C829   C836    1.399   .     D
C830   C835    1.415   .     D
C830   H911    1.061   .     S
C831   C832    1.363   .     S
C832   H912    1.066   .     S
N834   H913    1.043   .     S
C835   C836    1.410   .     S
C836   H914    1.068   .     S
C837   C839    1.446   .     D
C837   C843    1.354   .     S
C839   C840    1.415   .     S
C839   H915    1.072   .     S
C840   C841    1.398   .     D
C840   H916    1.083   .     S
C841   C842    1.388   .     S
C841   C982    1.474   .     S
C842   C843    1.380   .     D
C842   H917    1.084   .     S
C843   H918    0.968   .     S
C844   C845    1.398   .     S
C844   H919    1.075   .     S
C845   C846    1.397   .     D
C845   H920    1.083   .     S
C846   C847    1.399   .     S
C847   C848    1.396   .     D
C847   H921    1.083   .     S
C848   H922    1.074   .     S
C849   C850    1.387   .     S
C849   H923    1.084   .     S
C850   N984    1.427   .     S
C851   H924    1.083   .     S
C852   C853    1.409   .     D
C852   H925    1.079   .     S
C853   N859    1.438   .     S
C854   H926    1.079   .     S
C855   N856    1.303   .     S
C855   H927    1.074   .     S
N857   C858    1.296   .     S
C858   H928    1.082   .     S
N859   C860    1.300   .     D
C860   H929    1.080   .     S
C860   C973    1.476   .     S
C861   N862    1.300   .     D
C861   H930    1.080   .     S
H877   C771    1.060   1_655 S
C931   C932    1.369   .     D
C931   C960    1.448   .     S
C931   H1049   1.056   .     S
C932   C958    1.319   .     S
C932   N961    1.413   .     S
C933   C959    1.438   .     S
C933   C960    1.550   .     S
C933   C964    1.562   .     D
N934   C955    1.303   .     D
N934   C958    1.424   .     S
C935   C936    1.411   .     S
C935   C956    1.399   .     D
C935   H1050   1.074   .     S
C936   C957    1.418   .     D
C936   C965    1.523   .     S
C937   C939    1.448   .     S
C937   C943    1.461   .     S
C937   C960    1.637   .     D
C938   C962    1.524   .     S
C938   C971    1.420   .     D
C938   C975    1.419   .     S
C939   C940    1.394   .     D
C939   H1051   1.046   .     S
C940   C941    1.383   .     S
C940   H1052   1.089   .     S
C941   C942    1.381   .     S
C941   C1044   1.488   .     D
C942   C943    1.410   .     D
C942   H1053   1.085   .     S
C943   H1054   1.063   .     S
C944   C945    1.398   .     S
C944   C965    1.420   .     D
C944   H1055   1.075   .     S
C945   C946    1.396   .     D
C945   H1056   1.084   .     S
C946   C947    1.399   .     S
C946   C988    1.476   .     S
C947   C948    1.394   .     D
C947   H1057   1.083   .     S
C948   C965    1.419   .     S
C948   H1058   1.074   .     S
C949   C950    1.413   .     S
C949   C978    1.410   .     S
C950   C976    1.383   .     D
C950   H1059   1.076   .     S
C951   C977    1.406   .     S
C951   C978    1.412   .     D
C951   H1060   1.082   .     S
C952   C953    1.399   .     S
C952   C981    1.409   .     D
C952   N989    1.438   .     S
C953   C979    1.397   .     D
C953   H1061   1.083   .     S
C954   C980    1.401   .     D
C954   C981    1.397   .     S
C954   H1062   1.083   .     S
C955   C956    1.487   .     S
C955   N961    1.437   .     S
C956   C963    1.398   .     S
C957   C962    1.415   .     S
C957   H1063   1.060   .     S
C958   C959    1.362   .     D
C959   H1064   1.066   .     S
N961   H1065   1.043   .     S
C962   C963    1.409   .     D
C963   H1066   1.067   .     S
C964   C966    1.446   .     S
C964   C970    1.352   .     S
C966   C967    1.417   .     D
C966   H1067   1.072   .     S
C967   C968    1.399   .     S
C967   H1068   1.083   .     S
C968   C969    1.387   .     S
C969   C970    1.381   .     D
C969   H1069   1.084   .     S
C970   H1070   0.968   .     S
C971   C972    1.398   .     S
C971   H1071   1.074   .     S
C972   C973    1.397   .     D
C972   H1072   1.083   .     S
C973   C974    1.398   .     S
C974   C975    1.395   .     D
C974   H1073   1.083   .     S
C975   H1074   1.074   .     S
C976   C977    1.389   .     S
C976   H1075   1.084   .     S
C978   H1076   1.082   .     S
C979   C980    1.409   .     S
C979   H1077   1.079   .     S
C980   N986    1.438   .     S
C981   H1078   1.079   .     S
C982   N983    1.304   .     D
C982   H1079   1.073   .     S
N984   C985    1.295   .     D
C985   C1000   1.486   1_455 S
C985   H1080   1.083   .     S
N986   C987    1.300   .     D
C987   H1081   1.080   .     S
C988   N989    1.300   .     D
C988   H1082   1.081   .     S
C990   C991    1.369   .     S
C990   C1019   1.449   .     D
C990   H1083   1.055   .     S
C991   C1017   1.319   .     D
C991   N1020   1.413   .     S
C992   C1018   1.439   .     D
C992   C1019   1.549   .     S
C992   C1023   1.561   .     S
N993   C1014   1.304   .     D
N993   C1017   1.425   .     S
C994   C995    1.413   .     D
C994   C1015   1.402   .     S
C994   H1084   1.074   .     S
C995   C1016   1.419   .     S
C995   C1024   1.526   .     S
C996   C998    1.448   .     D
C996   C1002   1.461   .     S
C996   C1019   1.636   .     S
C997   C1021   1.526   .     S
C997   C1030   1.420   .     D
C997   C1034   1.419   .     S
C998   C999    1.395   .     S
C998   H1085   1.045   .     S
C999   C1000   1.384   .     D
C999   H1086   1.088   .     S
C1000  C985    1.486   1_655 S
C1000  C1001   1.379   .     S
C1001  C1002   1.409   .     D
C1001  H1087   1.084   .     S
C1002  H1088   1.062   .     S
C1003  C1004   1.399   .     D
C1003  C1024   1.419   .     S
C1003  H1089   1.075   .     S
C1004  C1005   1.397   .     S
C1004  H1090   1.083   .     S
C1005  C1006   1.399   .     D
C1005  C1047   1.479   .     S
C1006  C1007   1.397   .     S
C1006  H1091   1.083   .     S
C1007  C1024   1.420   .     D
C1007  H1092   1.075   .     S
C1008  C1009   1.413   .     D
C1008  C1037   1.411   .     S
C1009  C1035   1.381   .     S
C1009  H1093   1.074   .     S
C1010  C1036   1.406   .     S
C1010  C1037   1.412   .     D
C1010  H1094   1.081   .     S
C1011  C1012   1.400   .     S
C1011  C1040   1.409   .     D
C1011  N1048   1.439   .     S
C1012  C1038   1.397   .     D
C1012  H1095   1.083   .     S
C1013  C1039   1.400   .     D
C1013  C1040   1.398   .     S
C1013  H1096   1.083   .     S
C1014  C1015   1.491   .     S
C1014  N1020   1.437   .     S
C1015  C1022   1.399   .     D
C1016  C1021   1.415   .     D
C1016  H1097   1.061   .     S
C1017  C1018   1.363   .     S
C1018  H1098   1.066   .     S
N1020  H1099   1.043   .     S
C1021  C1022   1.410   .     S
C1022  H1100   1.068   .     S
C1023  C1025   1.446   .     D
C1023  C1029   1.354   .     S
C1025  C1026   1.415   .     S
C1025  H1101   1.072   .     S
C1026  C1027   1.398   .     D
C1026  H1102   1.083   .     S
C1027  C610    1.474   1_545 S
C1027  C1028   1.388   .     S
C1028  C1029   1.380   .     D
C1028  H1103   1.084   .     S
C1029  H1104   0.968   .     S
C1030  C1031   1.398   .     S
C1030  H1105   1.075   .     S
C1031  C1032   1.397   .     D
C1031  H1106   1.083   .     S
C1032  C1033   1.399   .     S
C1033  C1034   1.396   .     D
C1033  H1107   1.083   .     S
C1034  H1108   1.074   .     S
C1035  C1036   1.387   .     D
C1035  H1109   1.084   .     S
C1037  H1110   1.083   .     S
C1038  C1039   1.409   .     S
C1038  H1111   1.079   .     S
C1039  N1045   1.438   .     S
C1040  H1112   1.079   .     S
C1041  N1042   1.303   .     S
C1041  H1113   1.074   .     S
N1043  C1044   1.296   .     S
C1044  H1114   1.082   .     S
N1045  C1046   1.300   .     D
C1046  H1115   1.080   .     S
C1047  N1048   1.300   .     D
C1047  H1116   1.080   .     S
