data_536
_audit_creation_date              2023-09-08
_audit_creation_method            'Materials Studio'
_symmetry_space_group_name_H-M    'P1'
_symmetry_Int_Tables_number       1
_symmetry_cell_setting            triclinic
loop_
_symmetry_equiv_pos_as_xyz
  x,y,z
_cell_length_a                    65.1000
_cell_length_b                    65.1000
_cell_length_c                    3.9500
_cell_angle_alpha                 90.0000
_cell_angle_beta                  90.0000
_cell_angle_gamma                 120.0000
loop_
_atom_site_label
_atom_site_type_symbol
_atom_site_fract_x
_atom_site_fract_y
_atom_site_fract_z
_atom_site_U_iso_or_equiv
_atom_site_adp_type
_atom_site_occupancy
H1     H     0.19446   1.23890   0.00000   0.00000  Uiso   1.00
H2     H     0.14653   1.16423   0.00000   0.00000  Uiso   1.00
H3     H     0.22229   1.19196   0.00000   0.00000  Uiso   1.00
H4     H     0.15345   1.22565   0.00000   0.00000  Uiso   1.00
H5     H     0.24942   1.23160   0.00000   0.00000  Uiso   1.00
H6     H     0.12173   1.22905   0.00000   0.00000  Uiso   1.00
H7     H     0.08531   1.22969   0.00000   0.00000  Uiso   1.00
H8     H     0.04609   1.15219   0.00000   0.00000  Uiso   1.00
H9     H     0.08311   1.15239   0.00000   0.00000  Uiso   1.00
H10    H     0.28448   1.26207   0.00000   0.00000  Uiso   1.00
H11    H     0.32219   1.29785   0.00000   0.00000  Uiso   1.00
H12    H     0.28585   1.33900   0.00000   0.00000  Uiso   1.00
H13    H     0.24845   1.30269   0.00000   0.00000  Uiso   1.00
H14    H     0.05493   1.22997   0.00000   0.00000  Uiso   1.00
H15    H     0.01795   1.22984   0.00000   0.00000  Uiso   1.00
H16    H    -0.02078   1.15315   0.00000   0.00000  Uiso   1.00
H17    H     0.01562   1.15247   0.00000   0.00000  Uiso   1.00
H18    H     0.35350   1.32793   0.00000   0.00000  Uiso   1.00
H19    H     0.39084   1.36457   0.00000   0.00000  Uiso   1.00
H20    H     0.35412   1.40453   0.00000   0.00000  Uiso   1.00
H21    H     0.31673   1.36868   0.00000   0.00000  Uiso   1.00
H22    H     0.14081   1.13198   0.00000   0.00000  Uiso   1.00
H23    H     0.13457   1.09210   0.00000   0.00000  Uiso   1.00
H24    H     0.16745   1.08465   0.00000   0.00000  Uiso   1.00
H25    H     0.21672   1.16020   0.00000   0.00000  Uiso   1.00
C26    C     3.53320  -1.52426   0.00000   0.00000  Uiso   1.00
C27    C     3.51434  -1.52021   0.00000   0.00000  Uiso   1.00
C28    C     3.50214  -1.59133   0.00000   0.00000  Uiso   1.00
C29    C     3.47905  -1.61144   0.00000   0.00000  Uiso   1.00
C30    C     3.47463  -1.63461   0.00000   0.00000  Uiso   1.00
C31    C     3.49432  -1.63786   0.00000   0.00000  Uiso   1.00
C32    C     3.51775  -1.61904   0.00000   0.00000  Uiso   1.00
C33    C     3.52108  -1.59622   0.00000   0.00000  Uiso   1.00
C34    C     3.45010  -1.65377   0.00000   0.00000  Uiso   1.00
C35    C     3.53712  -1.62418   0.00000   0.00000  Uiso   1.00
C36    C     3.33189  -1.80486   0.00000   0.00000  Uiso   1.00
C37    C     3.35337  -1.78413   0.00000   0.00000  Uiso   1.00
C38    C     3.35502  -1.76146   0.00000   0.00000  Uiso   1.00
C39    C     3.33298  -1.76173   0.00000   0.00000  Uiso   1.00
C40    C     3.31162  -1.78262   0.00000   0.00000  Uiso   1.00
C41    C     3.37777  -1.73951   0.00000   0.00000  Uiso   1.00
C42    C     3.39971  -1.73941   0.00000   0.00000  Uiso   1.00
C43    C     3.42115  -1.71865   0.00000   0.00000  Uiso   1.00
C44    C     3.42268  -1.69638   0.00000   0.00000  Uiso   1.00
C45    C     3.40119  -1.69613   0.00000   0.00000  Uiso   1.00
C46    C     3.37959  -1.71677   0.00000   0.00000  Uiso   1.00
C47    C     3.22073  -1.98312   0.00000   0.00000  Uiso   1.00
C48    C     3.22049  -2.00439   0.00000   0.00000  Uiso   1.00
C49    C     3.24179  -2.00554   0.00000   0.00000  Uiso   1.00
C50    C     3.26324  -1.98324   0.00000   0.00000  Uiso   1.00
H51    H     0.19437   1.07945   0.00000   0.00000  Uiso   1.00
H52    H     0.26906   1.10650   0.00000   0.00000  Uiso   1.00
H53    H     0.24319   1.15507   0.00000   0.00000  Uiso   1.00
H54    H     0.20711   1.05168   0.00000   0.00000  Uiso   1.00
H55    H     0.29706   1.14734   0.00000   0.00000  Uiso   1.00
H56    H     0.38892   1.43541   0.00000   0.00000  Uiso   1.00
H57    H     0.44285   1.42785   0.00000   0.00000  Uiso   1.00
H58    H     0.49156   1.50350   0.00000   0.00000  Uiso   1.00
H59    H     0.41683   1.47628   0.00000   0.00000  Uiso   1.00
H60    H     0.47873   1.53120   0.00000   0.00000  Uiso   1.00
H61    H     0.46929   1.42278   0.00000   0.00000  Uiso   1.00
H62    H     0.54517   1.45093   0.00000   0.00000  Uiso   1.00
H63    H     0.55144   1.49084   0.00000   0.00000  Uiso   1.00
H64    H     0.51857   1.49832   0.00000   0.00000  Uiso   1.00
H65    H     0.46362   1.39106   0.00000   0.00000  Uiso   1.00
H66    H     0.49123   1.34395   0.00000   0.00000  Uiso   1.00
H67    H     0.53936   1.41858   0.00000   0.00000  Uiso   1.00
H68    H     0.43638   1.35138   0.00000   0.00000  Uiso   1.00
H69    H     0.53215   1.35700   0.00000   0.00000  Uiso   1.00
H70    H     0.33197   1.17832   0.00000   0.00000  Uiso   1.00
H71    H     0.36934   1.21423   0.00000   0.00000  Uiso   1.00
H72    H     0.33242   1.25483   0.00000   0.00000  Uiso   1.00
H73    H     0.29514   1.21816   0.00000   0.00000  Uiso   1.00
H74    H     0.40019   1.24398   0.00000   0.00000  Uiso   1.00
H75    H     0.43753   1.28037   0.00000   0.00000  Uiso   1.00
H76    H     0.40129   1.32079   0.00000   0.00000  Uiso   1.00
H77    H     0.36364   1.28493   0.00000   0.00000  Uiso   1.00
H78    H     0.20364   1.01641   0.00000   0.00000  Uiso   1.00
H79    H     0.20307   0.97937   0.00000   0.00000  Uiso   1.00
H80    H     0.28057   1.01775   0.00000   0.00000  Uiso   1.00
H81    H     0.28031   1.05454   0.00000   0.00000  Uiso   1.00
H82    H     0.20288   0.94869   0.00000   0.00000  Uiso   1.00
H83    H     0.20316   0.91192   0.00000   0.00000  Uiso   1.00
H84    H     0.27983   0.95007   0.00000   0.00000  Uiso   1.00
H85    H     0.28038   0.98710   0.00000   0.00000  Uiso   1.00
H86    H     0.27639   0.91483   0.00000   0.00000  Uiso   1.00
H87    H     0.21494   0.86018   0.00000   0.00000  Uiso   1.00
C88    C     3.26321  -1.96212   0.00000   0.00000  Uiso   1.00
C89    C     3.24167  -2.02800   0.00000   0.00000  Uiso   1.00
C90    C     3.22022  -2.05031   0.00000   0.00000  Uiso   1.00
C91    C     3.22026  -2.07142   0.00000   0.00000  Uiso   1.00
C92    C     3.24138  -2.07227   0.00000   0.00000  Uiso   1.00
C93    C     3.26273  -2.05040   0.00000   0.00000  Uiso   1.00
C94    C     3.26297  -2.02914   0.00000   0.00000  Uiso   1.00
C95    C     3.25759  -2.09909   0.00000   0.00000  Uiso   1.00
C96    C     3.25259  -2.12355   0.00000   0.00000  Uiso   1.00
C97    C     3.22982  -2.14317   0.00000   0.00000  Uiso   1.00
C98    C     3.22513  -2.16694   0.00000   0.00000  Uiso   1.00
C99    C     3.24535  -2.16972   0.00000   0.00000  Uiso   1.00
C100   C     3.26845  -2.15085   0.00000   0.00000  Uiso   1.00
C101   C     3.27153  -2.12798   0.00000   0.00000  Uiso   1.00
C102   C     3.28771  -2.15607   0.00000   0.00000  Uiso   1.00
C103   C     3.20107  -2.18725   0.00000   0.00000  Uiso   1.00
C104   C     3.18084  -2.18424   0.00000   0.00000  Uiso   1.00
C105   C     3.15810  -2.20338   0.00000   0.00000  Uiso   1.00
C106   C     3.15423  -2.22622   0.00000   0.00000  Uiso   1.00
C107   C     3.17336  -2.23096   0.00000   0.00000  Uiso   1.00
C108   C     3.19630  -2.21089   0.00000   0.00000  Uiso   1.00
C109   C     3.16924  -2.25517   0.00000   0.00000  Uiso   1.00
C110   C     3.14607  -2.27526   0.00000   0.00000  Uiso   1.00
C111   C     3.14152  -2.29851   0.00000   0.00000  Uiso   1.00
C112   C     3.16119  -2.30179   0.00000   0.00000  Uiso   1.00
C113   C     3.18462  -2.28302   0.00000   0.00000  Uiso   1.00
C114   C     3.18808  -2.26016   0.00000   0.00000  Uiso   1.00
C115   C     3.11707  -2.31794   0.00000   0.00000  Uiso   1.00
C116   C     3.20391  -2.28819   0.00000   0.00000  Uiso   1.00
C117   C     3.33029  -2.14084   0.00000   0.00000  Uiso   1.00
C118   C     3.24670  -2.27244   0.00000   0.00000  Uiso   1.00
C119   C     3.24663  -2.29407   0.00000   0.00000  Uiso   1.00
C120   C     3.26735  -2.29485   0.00000   0.00000  Uiso   1.00
C121   C     3.29003  -2.27385   0.00000   0.00000  Uiso   1.00
C122   C     3.28979  -2.25207   0.00000   0.00000  Uiso   1.00
C123   C     3.26891  -2.25157   0.00000   0.00000  Uiso   1.00
C124   C     3.33000  -2.16260   0.00000   0.00000  Uiso   1.00
H125   H     0.24299   0.81241   0.00000   0.00000  Uiso   1.00
H126   H     0.28966   0.88721   0.00000   0.00000  Uiso   1.00
H127   H     0.28263   0.82507   0.00000   0.00000  Uiso   1.00
H128   H     0.18271   0.83345   0.00000   0.00000  Uiso   1.00
H129   H     0.14291   0.79962   0.00000   0.00000  Uiso   1.00
H130   H     0.13573   0.75940   0.00000   0.00000  Uiso   1.00
H131   H     0.21135   0.78611   0.00000   0.00000  Uiso   1.00
H132   H     0.13073   0.72738   0.00000   0.00000  Uiso   1.00
H133   H     0.15810   0.68002   0.00000   0.00000  Uiso   1.00
H134   H     0.20642   0.75453   0.00000   0.00000  Uiso   1.00
H135   H     0.10314   0.68693   0.00000   0.00000  Uiso   1.00
H136   H     0.19889   0.69297   0.00000   0.00000  Uiso   1.00
H137   H     0.22981   0.68903   0.00000   0.00000  Uiso   1.00
H138   H     0.26569   0.68752   0.00000   0.00000  Uiso   1.00
H139   H     0.30637   0.76504   0.00000   0.00000  Uiso   1.00
H140   H     0.26971   0.76571   0.00000   0.00000  Uiso   1.00
H141   H     0.31308   0.82059   0.00000   0.00000  Uiso   1.00
H142   H     0.34890   0.81875   0.00000   0.00000  Uiso   1.00
H143   H     0.38993   0.89624   0.00000   0.00000  Uiso   1.00
H144   H     0.35357   0.89725   0.00000   0.00000  Uiso   1.00
H145   H     0.29543   0.68638   0.00000   0.00000  Uiso   1.00
H146   H     0.33180   0.68540   0.00000   0.00000  Uiso   1.00
H147   H     0.37225   0.76206   0.00000   0.00000  Uiso   1.00
H148   H     0.33643   0.76387   0.00000   0.00000  Uiso   1.00
H149   H     0.37894   0.81756   0.00000   0.00000  Uiso   1.00
H150   H     0.41558   0.81688   0.00000   0.00000  Uiso   1.00
H151   H     0.45552   0.89356   0.00000   0.00000  Uiso   1.00
H152   H     0.41966   0.89509   0.00000   0.00000  Uiso   1.00
H153   H     0.48637   0.88960   0.00000   0.00000  Uiso   1.00
H154   H     0.40273   0.75760   0.00000   0.00000  Uiso   1.00
H155   H     0.39568   0.69547   0.00000   0.00000  Uiso   1.00
H156   H     0.47040   0.72246   0.00000   0.00000  Uiso   1.00
H157   H     0.44238   0.77026   0.00000   0.00000  Uiso   1.00
H158   H     0.47889   0.82807   0.00000   0.00000  Uiso   1.00
H159   H     0.55458   0.85526   0.00000   0.00000  Uiso   1.00
H160   H     0.52716   0.90259   0.00000   0.00000  Uiso   1.00
H161   H     0.50265   0.74919   0.00000   0.00000  Uiso   1.00
C162   C     3.35062  -2.16360   0.00000   0.00000  Uiso   1.00
C163   C     3.37337  -2.14269   0.00000   0.00000  Uiso   1.00
C164   C     3.37331  -2.12083   0.00000   0.00000  Uiso   1.00
C165   C     3.35257  -2.12011   0.00000   0.00000  Uiso   1.00
C166   C     3.31196  -2.27468   0.00000   0.00000  Uiso   1.00
C167   C     3.39530  -2.14354   0.00000   0.00000  Uiso   1.00
C168   C     3.31204  -2.29654   0.00000   0.00000  Uiso   1.00
C169   C     3.33279  -2.29724   0.00000   0.00000  Uiso   1.00
C170   C     3.35507  -2.27651   0.00000   0.00000  Uiso   1.00
C171   C     3.35534  -2.25475   0.00000   0.00000  Uiso   1.00
C172   C     3.33471  -2.25377   0.00000   0.00000  Uiso   1.00
C173   C     3.39552  -2.16533   0.00000   0.00000  Uiso   1.00
C174   C     3.41639  -2.16584   0.00000   0.00000  Uiso   1.00
C175   C     3.43860  -2.14498   0.00000   0.00000  Uiso   1.00
C176   C     3.43869  -2.12334   0.00000   0.00000  Uiso   1.00
C177   C     3.41798  -2.12254   0.00000   0.00000  Uiso   1.00
C178   C     3.48137  -2.12923   0.00000   0.00000  Uiso   1.00
C179   C     3.50067  -2.13439   0.00000   0.00000  Uiso   1.00
C180   C     3.39765  -2.26125   0.00000   0.00000  Uiso   1.00
C181   C     3.41691  -2.26648   0.00000   0.00000  Uiso   1.00
C182   C     3.41383  -2.28936   0.00000   0.00000  Uiso   1.00
C183   C     3.43276  -2.29381   0.00000   0.00000  Uiso   1.00
C184   C     3.45552  -2.27419   0.00000   0.00000  Uiso   1.00
C185   C     3.46023  -2.25042   0.00000   0.00000  Uiso   1.00
C186   C     3.44001  -2.24762   0.00000   0.00000  Uiso   1.00
C187   C     3.49722  -2.15724   0.00000   0.00000  Uiso   1.00
C188   C     3.51608  -2.16221   0.00000   0.00000  Uiso   1.00
C189   C     3.53923  -2.14210   0.00000   0.00000  Uiso   1.00
C190   C     3.54377  -2.11886   0.00000   0.00000  Uiso   1.00
C191   C     3.52409  -2.11559   0.00000   0.00000  Uiso   1.00
C192   C     3.48429  -2.23012   0.00000   0.00000  Uiso   1.00
C193   C     3.51198  -2.18641   0.00000   0.00000  Uiso   1.00
C194   C     3.50452  -2.23312   0.00000   0.00000  Uiso   1.00
C195   C     3.52725  -2.21398   0.00000   0.00000  Uiso   1.00
C196   C     3.53112  -2.19114   0.00000   0.00000  Uiso   1.00
C197   C     3.48905  -2.20648   0.00000   0.00000  Uiso   1.00
C198   C     3.09025  -2.36091   0.00000   0.00000  Uiso   1.00
H199   H     0.54245   0.78302   0.00000   0.00000  Uiso   1.00
H200   H     0.54962   0.82325   0.00000   0.00000  Uiso   1.00
H201   H     0.47400   0.79652   0.00000   0.00000  Uiso   1.00
H202   H     0.06802   0.65532   0.00000   0.00000  Uiso   1.00
H203   H     0.03094   0.61893   0.00000   0.00000  Uiso   1.00
H204   H     0.06911   0.57960   0.00000   0.00000  Uiso   1.00
H205   H     0.10596   0.61658   0.00000   0.00000  Uiso   1.00
H206   H     0.00020   0.58850   0.00000   0.00000  Uiso   1.00
H207   H    -0.03665   0.55152   0.00000   0.00000  Uiso   1.00
H208   H     0.00129   0.51279   0.00000   0.00000  Uiso   1.00
H209   H     0.03838   0.54919   0.00000   0.00000  Uiso   1.00
H210   H    -0.03392   0.48111   0.00000   0.00000  Uiso   1.00
H211   H    -0.08865   0.48783   0.00000   0.00000  Uiso   1.00
H212   H    -0.13625   0.41196   0.00000   0.00000  Uiso   1.00
H213   H    -0.06144   0.44028   0.00000   0.00000  Uiso   1.00
H214   H    -0.11552   0.49318   0.00000   0.00000  Uiso   1.00
H215   H    -0.14947   0.49896   0.00000   0.00000  Uiso   1.00
H216   H    -0.18962   0.46580   0.00000   0.00000  Uiso   1.00
H217   H    -0.16261   0.41714   0.00000   0.00000  Uiso   1.00
H218   H    -0.22155   0.43869   0.00000   0.00000  Uiso   1.00
H219   H    -0.26870   0.36394   0.00000   0.00000  Uiso   1.00
H220   H    -0.19414   0.39038   0.00000   0.00000  Uiso   1.00
H221   H    -0.25561   0.33620   0.00000   0.00000  Uiso   1.00
H222   H    -0.12353   0.38509   0.00000   0.00000  Uiso   1.00
H223   H    -0.25945   0.30137   0.00000   0.00000  Uiso   1.00
H224   H    -0.26086   0.26404   0.00000   0.00000  Uiso   1.00
H225   H    -0.18335   0.30102   0.00000   0.00000  Uiso   1.00
H226   H    -0.18278   0.33829   0.00000   0.00000  Uiso   1.00
H227   H    -0.12802   0.35020   0.00000   0.00000  Uiso   1.00
H228   H    -0.12987   0.31254   0.00000   0.00000  Uiso   1.00
H229   H    -0.05238   0.34898   0.00000   0.00000  Uiso   1.00
H230   H    -0.05135   0.38636   0.00000   0.00000  Uiso   1.00
H231   H    -0.26195   0.23319   0.00000   0.00000  Uiso   1.00
H232   H    -0.26287   0.19587   0.00000   0.00000  Uiso   1.00
H233   H    -0.18621   0.23217   0.00000   0.00000  Uiso   1.00
H234   H    -0.18445   0.26979   0.00000   0.00000  Uiso   1.00
H235   H    -0.13106   0.28129   0.00000   0.00000  Uiso   1.00
C236   C     3.06844  -2.36134   0.00000   0.00000  Uiso   1.00
C237   C     3.04714  -2.38232   0.00000   0.00000  Uiso   1.00
C238   C     3.04590  -2.40481   0.00000   0.00000  Uiso   1.00
C239   C     3.06817  -2.40403   0.00000   0.00000  Uiso   1.00
C240   C     3.08933  -2.38293   0.00000   0.00000  Uiso   1.00
C241   C     3.02341  -2.42709   0.00000   0.00000  Uiso   1.00
C242   C     3.00114  -2.42787   0.00000   0.00000  Uiso   1.00
C243   C     2.97999  -2.44897   0.00000   0.00000  Uiso   1.00
C244   C     2.97904  -2.47100   0.00000   0.00000  Uiso   1.00
C245   C     3.00087  -2.47056   0.00000   0.00000  Uiso   1.00
C246   C     3.02217  -2.44958   0.00000   0.00000  Uiso   1.00
C247   C     2.95216  -2.51400   0.00000   0.00000  Uiso   1.00
C248   C     2.92772  -2.53347   0.00000   0.00000  Uiso   1.00
C249   C     2.90805  -2.53039   0.00000   0.00000  Uiso   1.00
C250   C     2.88431  -2.54951   0.00000   0.00000  Uiso   1.00
C251   C     2.88159  -2.57249   0.00000   0.00000  Uiso   1.00
C252   C     2.90050  -2.57666   0.00000   0.00000  Uiso   1.00
C253   C     2.92335  -2.55682   0.00000   0.00000  Uiso   1.00
C254   C     2.86393  -2.54587   0.00000   0.00000  Uiso   1.00
C255   C     2.86683  -2.52269   0.00000   0.00000  Uiso   1.00
C256   C     2.84762  -2.51920   0.00000   0.00000  Uiso   1.00
C257   C     2.82482  -2.53824   0.00000   0.00000  Uiso   1.00
C258   C     2.82019  -2.56208   0.00000   0.00000  Uiso   1.00
C259   C     2.84033  -2.56482   0.00000   0.00000  Uiso   1.00
C260   C     2.79603  -2.58224   0.00000   0.00000  Uiso   1.00
C261   C     2.77588  -2.57926   0.00000   0.00000  Uiso   1.00
C262   C     2.75267  -2.59801   0.00000   0.00000  Uiso   1.00
C263   C     2.74947  -2.62093   0.00000   0.00000  Uiso   1.00
C264   C     2.76830  -2.62550   0.00000   0.00000  Uiso   1.00
C265   C     2.79113  -2.60604   0.00000   0.00000  Uiso   1.00
C266   C     2.76321  -2.64995   0.00000   0.00000  Uiso   1.00
C267   C     2.89532  -2.60112   0.00000   0.00000  Uiso   1.00
C268   C     2.77907  -2.67691   0.00000   0.00000  Uiso   1.00
C269   C     2.91056  -2.62844   0.00000   0.00000  Uiso   1.00
C270   C     2.75747  -2.69851   0.00000   0.00000  Uiso   1.00
C271   C     2.75675  -2.71998   0.00000   0.00000  Uiso   1.00
C272   C     2.77777  -2.72161   0.00000   0.00000  Uiso   1.00
H273   H    -0.13173   0.24397   0.00000   0.00000  Uiso   1.00
H274   H    -0.05505   0.28075   0.00000   0.00000  Uiso   1.00
H275   H    -0.05354   0.31811   0.00000   0.00000  Uiso   1.00
H276   H    -0.19065   0.19722   0.00000   0.00000  Uiso   1.00
H277   H    -0.05893   0.24607   0.00000   0.00000  Uiso   1.00
H278   H    -0.25276   0.14205   0.00000   0.00000  Uiso   1.00
H279   H    -0.22561   0.09444   0.00000   0.00000  Uiso   1.00
H280   H    -0.17796   0.17030   0.00000   0.00000  Uiso   1.00
H281   H    -0.12031   0.19181   0.00000   0.00000  Uiso   1.00
H282   H    -0.09270   0.14365   0.00000   0.00000  Uiso   1.00
H283   H    -0.04573   0.21846   0.00000   0.00000  Uiso   1.00
H284   H    -0.15171   0.16504   0.00000   0.00000  Uiso   1.00
H285   H    -0.19877   0.08902   0.00000   0.00000  Uiso   1.00
H286   H    -0.16480   0.08325   0.00000   0.00000  Uiso   1.00
H287   H    -0.12464   0.11644   0.00000   0.00000  Uiso   1.00
H288   H    -0.28029   0.10119   0.00000   0.00000  Uiso   1.00
H289   H     0.58213   0.89564   0.00000   0.00000  Uiso   1.00
H290   H     0.61728   0.92713   0.00000   0.00000  Uiso   1.00
H291   H     0.65445   0.96342   0.00000   0.00000  Uiso   1.00
H292   H     0.61660   1.00305   0.00000   0.00000  Uiso   1.00
H293   H     0.57964   0.96616   0.00000   0.00000  Uiso   1.00
H294   H    -0.05233   1.15667   0.00000   0.00000  Uiso   1.00
H295   H     0.48209   1.56647   0.00000   0.00000  Uiso   1.00
H296   H     0.48254   1.60344   0.00000   0.00000  Uiso   1.00
H297   H     0.40506   1.56488   0.00000   0.00000  Uiso   1.00
H298   H     0.40544   1.52816   0.00000   0.00000  Uiso   1.00
H299   H     0.48265   1.63409   0.00000   0.00000  Uiso   1.00
H300   H     0.48227   1.67082   0.00000   0.00000  Uiso   1.00
H301   H     0.40560   1.63253   0.00000   0.00000  Uiso   1.00
H302   H     0.40514   1.59553   0.00000   0.00000  Uiso   1.00
H303   H     0.40897   1.66781   0.00000   0.00000  Uiso   1.00
H304   H     0.56395   1.35347   0.00000   0.00000  Uiso   1.00
H305   H     0.60037   1.35281   0.00000   0.00000  Uiso   1.00
H306   H     0.63963   1.43031   0.00000   0.00000  Uiso   1.00
H307   H     0.60263   1.43013   0.00000   0.00000  Uiso   1.00
H308   H     0.63078   1.35252   0.00000   0.00000  Uiso   1.00
H309   H     0.66776   1.35266   0.00000   0.00000  Uiso   1.00
C310   C     2.79951  -2.69956   0.00000   0.00000  Uiso   1.00
C311   C     2.79996  -2.67821   0.00000   0.00000  Uiso   1.00
C312   C     2.88879  -2.64991   0.00000   0.00000  Uiso   1.00
C313   C     2.88778  -2.67153   0.00000   0.00000  Uiso   1.00
C314   C     2.90868  -2.67339   0.00000   0.00000  Uiso   1.00
C315   C     2.93055  -2.65147   0.00000   0.00000  Uiso   1.00
C316   C     2.93128  -2.63000   0.00000   0.00000  Uiso   1.00
C317   C     2.77699  -2.74436   0.00000   0.00000  Uiso   1.00
C318   C     2.90783  -2.69616   0.00000   0.00000  Uiso   1.00
C319   C     2.75515  -2.76631   0.00000   0.00000  Uiso   1.00
C320   C     2.75448  -2.78775   0.00000   0.00000  Uiso   1.00
C321   C     2.77523  -2.78926   0.00000   0.00000  Uiso   1.00
C322   C     2.79697  -2.76776   0.00000   0.00000  Uiso   1.00
C323   C     2.79792  -2.74616   0.00000   0.00000  Uiso   1.00
C324   C     2.88605  -2.71818   0.00000   0.00000  Uiso   1.00
C325   C     2.88554  -2.73956   0.00000   0.00000  Uiso   1.00
C326   C     2.90641  -2.74090   0.00000   0.00000  Uiso   1.00
C327   C     2.92804  -2.71934   0.00000   0.00000  Uiso   1.00
C328   C     2.92883  -2.69784   0.00000   0.00000  Uiso   1.00
C329   C     2.79051  -2.81657   0.00000   0.00000  Uiso   1.00
C330   C     2.78530  -2.84105   0.00000   0.00000  Uiso   1.00
C331   C     2.92227  -2.76782   0.00000   0.00000  Uiso   1.00
C332   C     2.91725  -2.79224   0.00000   0.00000  Uiso   1.00
C333   C     2.76244  -2.86088   0.00000   0.00000  Uiso   1.00
C334   C     2.75806  -2.88424   0.00000   0.00000  Uiso   1.00
C335   C     2.77770  -2.88734   0.00000   0.00000  Uiso   1.00
C336   C     2.80144  -2.86824   0.00000   0.00000  Uiso   1.00
C337   C     2.80419  -2.84524   0.00000   0.00000  Uiso   1.00
C338   C     2.89445  -2.81173   0.00000   0.00000  Uiso   1.00
C339   C     2.88964  -2.83551   0.00000   0.00000  Uiso   1.00
C340   C     2.90983  -2.83841   0.00000   0.00000  Uiso   1.00
C341   C     2.93301  -2.81961   0.00000   0.00000  Uiso   1.00
C342   C     2.93614  -2.79672   0.00000   0.00000  Uiso   1.00
C343   C     2.82178  -2.87193   0.00000   0.00000  Uiso   1.00
C344   C     2.86551  -2.85572   0.00000   0.00000  Uiso   1.00
C345   C     2.84537  -2.85299   0.00000   0.00000  Uiso   1.00
C346   C     2.81889  -2.89512   0.00000   0.00000  Uiso   1.00
H347   H     0.70649   1.42933   0.00000   0.00000  Uiso   1.00
H348   H     0.67009   1.43002   0.00000   0.00000  Uiso   1.00
H349   H     0.73808   1.42579   0.00000   0.00000  Uiso   1.00
H350   H     0.68529   0.99377   0.00000   0.00000  Uiso   1.00
H351   H     0.72224   1.03065   0.00000   0.00000  Uiso   1.00
H352   H     0.68459   1.06968   0.00000   0.00000  Uiso   1.00
H353   H     0.64742   1.03339   0.00000   0.00000  Uiso   1.00
C354   C     3.19144  -1.77926   0.00000   0.00000  Uiso   1.00
C355   C     3.16804  -1.79814   0.00000   0.00000  Uiso   1.00
C356   C     3.16480  -1.82094   0.00000   0.00000  Uiso   1.00
C357   C     3.18378  -1.82574   0.00000   0.00000  Uiso   1.00
C358   C     3.20684  -1.80558   0.00000   0.00000  Uiso   1.00
C359   C     3.21118  -1.78244   0.00000   0.00000  Uiso   1.00
C360   C     3.14859  -1.79314   0.00000   0.00000  Uiso   1.00
C361   C     3.23570  -1.76325   0.00000   0.00000  Uiso   1.00
C362   C     3.26318  -1.72067   0.00000   0.00000  Uiso   1.00
C363   C     3.10557  -1.80939   0.00000   0.00000  Uiso   1.00
C364   C     3.10509  -1.78802   0.00000   0.00000  Uiso   1.00
C365   C     3.08409  -1.78775   0.00000   0.00000  Uiso   1.00
C366   C     3.06162  -1.80902   0.00000   0.00000  Uiso   1.00
C367   C     3.06244  -1.83049   0.00000   0.00000  Uiso   1.00
C368   C     3.08357  -1.83049   0.00000   0.00000  Uiso   1.00
C369   C     3.28464  -1.72099   0.00000   0.00000  Uiso   1.00
C370   C     3.30628  -1.70040   0.00000   0.00000  Uiso   1.00
C371   C     3.30818  -1.67762   0.00000   0.00000  Uiso   1.00
C372   C     3.28627  -1.67764   0.00000   0.00000  Uiso   1.00
C373   C     3.26479  -1.69836   0.00000   0.00000  Uiso   1.00
C374   C     3.03933  -1.80883   0.00000   0.00000  Uiso   1.00
C375   C     3.33097  -1.65570   0.00000   0.00000  Uiso   1.00
C376   C     3.03856  -1.78733   0.00000   0.00000  Uiso   1.00
C377   C     3.01746  -1.78728   0.00000   0.00000  Uiso   1.00
C378   C     2.99545  -1.80837   0.00000   0.00000  Uiso   1.00
C379   C     2.99587  -1.82977   0.00000   0.00000  Uiso   1.00
C380   C     3.01685  -1.83009   0.00000   0.00000  Uiso   1.00
C381   C     3.35298  -1.65548   0.00000   0.00000  Uiso   1.00
C382   C     3.37437  -1.63461   0.00000   0.00000  Uiso   1.00
C383   C     3.37573  -1.61239   0.00000   0.00000  Uiso   1.00
C384   C     2.83810  -2.89860   0.00000   0.00000  Uiso   1.00
C385   C     2.86091  -2.87954   0.00000   0.00000  Uiso   1.00
C386   C     2.73361  -2.90371   0.00000   0.00000  Uiso   1.00
C387   C     3.56823  -2.09945   0.00000   0.00000  Uiso   1.00
C388   C     3.59517  -2.05649   0.00000   0.00000  Uiso   1.00
C389   C     3.61694  -2.05617   0.00000   0.00000  Uiso   1.00
C390   C     3.63830  -2.03525   0.00000   0.00000  Uiso   1.00
C391   C     3.63966  -2.01270   0.00000   0.00000  Uiso   1.00
C392   C     3.61744  -2.01337   0.00000   0.00000  Uiso   1.00
C393   C     3.59623  -2.03442   0.00000   0.00000  Uiso   1.00
C394   C     2.95250  -1.82455   0.00000   0.00000  Uiso   1.00
C395   C     3.44366  -1.45595   0.00000   0.00000  Uiso   1.00
C396   C     3.46497  -1.43406   0.00000   0.00000  Uiso   1.00
C397   C     3.46515  -1.41282   0.00000   0.00000  Uiso   1.00
C398   C     3.44382  -1.41172   0.00000   0.00000  Uiso   1.00
C399   C     3.42241  -1.43407   0.00000   0.00000  Uiso   1.00
C400   C     3.42251  -1.45515   0.00000   0.00000  Uiso   1.00
C401   C     3.44387  -1.38930   0.00000   0.00000  Uiso   1.00
C402   C     3.46529  -1.36696   0.00000   0.00000  Uiso   1.00
C403   C     3.46519  -1.34587   0.00000   0.00000  Uiso   1.00
C404   C     3.44404  -1.34507   0.00000   0.00000  Uiso   1.00
C405   C     3.42272  -1.36697   0.00000   0.00000  Uiso   1.00
C406   C     3.42254  -1.38820   0.00000   0.00000  Uiso   1.00
C407   C     3.42777  -1.31827   0.00000   0.00000  Uiso   1.00
C408   C     3.58015  -1.60808   0.00000   0.00000  Uiso   1.00
C409   C     3.58060  -1.62946   0.00000   0.00000  Uiso   1.00
C410   C     3.60160  -1.62975   0.00000   0.00000  Uiso   1.00
C411   C     3.62407  -1.60849   0.00000   0.00000  Uiso   1.00
C412   C     3.62328  -1.58701   0.00000   0.00000  Uiso   1.00
C413   C     3.60215  -1.58699   0.00000   0.00000  Uiso   1.00
C414   C     3.64637  -1.60868   0.00000   0.00000  Uiso   1.00
C415   C     3.64715  -1.63017   0.00000   0.00000  Uiso   1.00
C416   C     3.66825  -1.63022   0.00000   0.00000  Uiso   1.00
C417   C     3.69026  -1.60914   0.00000   0.00000  Uiso   1.00
C418   C     3.68983  -1.58774   0.00000   0.00000  Uiso   1.00
C419   C     3.66885  -1.58742   0.00000   0.00000  Uiso   1.00
C420   C     3.73323  -1.59300   0.00000   0.00000  Uiso   1.00
C421   C     3.35418  -1.61231   0.00000   0.00000  Uiso   1.00
C422   C     3.33267  -1.63301   0.00000   0.00000  Uiso   1.00
C423   C     3.17986  -1.84987   0.00000   0.00000  Uiso   1.00
C424   C     3.15656  -1.87000   0.00000   0.00000  Uiso   1.00
C425   C     3.15281  -1.89279   0.00000   0.00000  Uiso   1.00
C426   C     3.17168  -1.89682   0.00000   0.00000  Uiso   1.00
C427   C     3.19560  -1.87779   0.00000   0.00000  Uiso   1.00
C428   C     3.19862  -1.85479   0.00000   0.00000  Uiso   1.00
C429   C     3.21558  -1.88206   0.00000   0.00000  Uiso   1.00
C430   C     3.21239  -1.90528   0.00000   0.00000  Uiso   1.00
C431   C     3.23102  -1.90994   0.00000   0.00000  Uiso   1.00
C432   C     3.25401  -1.89033   0.00000   0.00000  Uiso   1.00
C433   C     3.25877  -1.86687   0.00000   0.00000  Uiso   1.00
C434   C     3.23945  -1.86330   0.00000   0.00000  Uiso   1.00
C435   C     3.22591  -1.93442   0.00000   0.00000  Uiso   1.00
C436   C     3.28326  -1.84762   0.00000   0.00000  Uiso   1.00
C437   C     3.31031  -1.80481   0.00000   0.00000  Uiso   1.00
C438   C     3.24209  -1.96127   0.00000   0.00000  Uiso   1.00
C439   C     3.40274  -1.56960   0.00000   0.00000  Uiso   1.00
C440   C     3.42721  -1.55028   0.00000   0.00000  Uiso   1.00
C441   C     3.44657  -1.55379   0.00000   0.00000  Uiso   1.00
C442   C     3.47042  -1.53499   0.00000   0.00000  Uiso   1.00
C443   C     3.47355  -1.51180   0.00000   0.00000  Uiso   1.00
C444   C     3.45489  -1.50720   0.00000   0.00000  Uiso   1.00
C445   C     3.43191  -1.52684   0.00000   0.00000  Uiso   1.00
C446   C     3.45993  -1.48273   0.00000   0.00000  Uiso   1.00
C447   C     3.49042  -1.53924   0.00000   0.00000  Uiso   1.00
C448   C     3.48739  -1.56223   0.00000   0.00000  Uiso   1.00
C449   C     3.50613  -1.56718   0.00000   0.00000  Uiso   1.00
C450   C     3.52943  -1.54707   0.00000   0.00000  Uiso   1.00
C451   C     3.66222  -1.99048   0.00000   0.00000  Uiso   1.00
C452   C     3.68444  -1.98981   0.00000   0.00000  Uiso   1.00
C453   C     3.70565  -1.96876   0.00000   0.00000  Uiso   1.00
C454   C     3.70670  -1.94668   0.00000   0.00000  Uiso   1.00
C455   C     3.68492  -1.94702   0.00000   0.00000  Uiso   1.00
C456   C     3.66357  -1.96794   0.00000   0.00000  Uiso   1.00
N457   N     3.24060  -1.74132   0.00000   0.00000  Uiso   1.00
N458   N     3.12673  -1.81045   0.00000   0.00000  Uiso   1.00
N459   N     3.28796  -1.82572   0.00000   0.00000  Uiso   1.00
N460   N     3.24317  -1.93903   0.00000   0.00000  Uiso   1.00
N461   N     3.39809  -1.59148   0.00000   0.00000  Uiso   1.00
N462   N     3.44522  -1.67570   0.00000   0.00000  Uiso   1.00
N463   N     3.24031  -2.09450   0.00000   0.00000  Uiso   1.00
N464   N     3.30960  -2.13898   0.00000   0.00000  Uiso   1.00
N465   N     3.22580  -2.27098   0.00000   0.00000  Uiso   1.00
N466   N     3.37576  -2.27836   0.00000   0.00000  Uiso   1.00
N467   N     3.45949  -2.14645   0.00000   0.00000  Uiso   1.00
N468   N     3.11251  -2.33979   0.00000   0.00000  Uiso   1.00
N469   N     2.95677  -2.49213   0.00000   0.00000  Uiso   1.00
N470   N     2.78047  -2.65457   0.00000   0.00000  Uiso   1.00
N471   N     2.91243  -2.60589   0.00000   0.00000  Uiso   1.00
N472   N     2.77340  -2.81179   0.00000   0.00000  Uiso   1.00
N473   N     2.90498  -2.76326   0.00000   0.00000  Uiso   1.00
N474   N     2.72900  -2.92559   0.00000   0.00000  Uiso   1.00
N475   N     3.57286  -2.07756   0.00000   0.00000  Uiso   1.00
N476   N     2.97433  -1.80723   0.00000   0.00000  Uiso   1.00
N477   N     3.44264  -1.47816   0.00000   0.00000  Uiso   1.00
N478   N     3.44505  -1.32286   0.00000   0.00000  Uiso   1.00
N479   N     3.55901  -1.60696   0.00000   0.00000  Uiso   1.00
N480   N     3.71138  -1.61029   0.00000   0.00000  Uiso   1.00
loop_
_geom_bond_atom_site_label_1
_geom_bond_atom_site_label_2
_geom_bond_distance
_geom_bond_site_symmetry_2
_ccdc_geom_bond_type
H1     C354    1.097   1_285 S
H2     C356    1.095   1_285 S
H3     C358    1.095   1_285 S
H4     C360    1.100   1_285 S
H5     C361    1.100   1_285 S
H6     C364    1.098   1_285 S
H7     C365    1.098   1_285 S
H8     C367    1.097   1_285 S
H9     C368    1.100   1_285 S
H10    C369    1.098   1_285 S
H11    C370    1.097   1_285 S
H12    C372    1.097   1_285 S
H13    C373    1.100   1_285 S
H14    C376    1.097   1_285 S
H15    C377    1.099   1_285 S
H16    C379    1.098   1_285 S
H17    C380    1.098   1_285 S
H18    C381    1.097   1_285 S
H19    C382    1.100   1_285 S
H20    C421    1.098   1_285 S
H21    C422    1.097   1_285 S
H22    C424    1.095   1_285 S
H23    C425    1.100   1_285 S
H24    C426    1.095   1_285 S
H25    C428    1.091   1_285 S
C26    C27     1.379   .     S
C26    C450    1.379   .     D
C26    H63     1.100   1_825 S
C27    C447    1.425   .     D
C27    H64     1.095   1_825 S
C28    C29     1.416   .     D
C28    C33     1.419   .     S
C28    C449    1.460   .     S
C29    C30     1.387   .     S
C29    H65     1.095   1_825 S
C30    C31     1.400   .     D
C30    C34     1.454   .     S
C31    C32     1.400   .     S
C31    H66     1.098   1_825 S
C32    C33     1.390   .     D
C32    C35     1.457   .     S
C33    H67     1.094   1_825 S
C34    N462    1.298   .     D
C34    H68     1.100   1_825 S
C35    N479    1.300   .     D
C35    H69     1.100   1_825 S
C36    C37     1.375   .     S
C36    C437    1.406   .     D
C36    H70     1.098   1_825 S
C37    C38     1.425   .     D
C37    H71     1.097   1_825 S
C38    C39     1.426   .     S
C38    C41     1.456   .     S
C39    C40     1.375   .     D
C39    H72     1.097   1_825 S
C40    C437    1.404   .     S
C40    H73     1.099   1_825 S
C41    C42     1.425   .     D
C41    C46     1.425   .     S
C42    C43     1.374   .     S
C42    H74     1.097   1_825 S
C43    C44     1.403   .     D
C43    H75     1.100   1_825 S
C44    C45     1.407   .     S
C44    N462    1.411   .     S
C45    C46     1.376   .     D
C45    H76     1.098   1_825 S
C46    H77     1.098   1_825 S
C47    C48     1.377   .     S
C47    C438    1.407   .     D
C47    H78     1.098   1_825 S
C48    C49     1.426   .     D
C48    H79     1.098   1_825 S
C49    C50     1.425   .     S
C49    C89     1.458   .     S
C50    C88     1.376   .     D
C50    H80     1.097   1_825 S
H51    C430    1.095   1_285 S
H52    C432    1.098   1_285 S
H53    C434    1.095   1_285 S
H54    C435    1.100   1_285 S
H55    C436    1.100   1_285 S
H56    C439    1.100   1_285 S
H57    C441    1.094   1_285 S
H58    C443    1.095   1_285 S
H59    C445    1.097   1_285 S
H60    C446    1.100   1_285 S
H61    C448    1.091   1_285 S
H62    C450    1.096   1_285 S
H63    C26     1.100   1_285 S
H64    C27     1.095   1_285 S
H65    C29     1.095   1_285 S
H66    C31     1.098   1_285 S
H67    C33     1.094   1_285 S
H68    C34     1.100   1_285 S
H69    C35     1.100   1_285 S
H70    C36     1.098   1_285 S
H71    C37     1.097   1_285 S
H72    C39     1.097   1_285 S
H73    C40     1.099   1_285 S
H74    C42     1.097   1_285 S
H75    C43     1.100   1_285 S
H76    C45     1.098   1_285 S
H77    C46     1.098   1_285 S
H78    C47     1.098   1_285 S
H79    C48     1.098   1_285 S
H80    C50     1.097   1_285 S
H81    C88     1.099   1_285 S
H82    C90     1.098   1_285 S
H83    C91     1.099   1_285 S
H84    C93     1.098   1_285 S
H85    C94     1.097   1_285 S
H86    C95     1.100   1_285 S
H87    C97     1.094   1_285 S
C88    C438    1.403   .     S
C88    H81     1.099   1_825 S
C89    C90     1.425   .     D
C89    C94     1.425   .     S
C90    C91     1.376   .     S
C90    H82     1.098   1_825 S
C91    C92     1.403   .     D
C91    H83     1.099   1_825 S
C92    C93     1.407   .     S
C92    N463    1.414   .     S
C93    C94     1.376   .     D
C93    H84     1.098   1_825 S
C94    H85     1.097   1_825 S
C95    C96     1.457   .     S
C95    N463    1.300   .     D
C95    H86     1.100   1_825 S
C96    C97     1.391   .     D
C96    C101    1.400   .     S
C97    C98     1.420   .     S
C97    H87     1.094   1_825 S
C98    C99     1.416   .     D
C98    C103    1.460   .     S
C99    C100    1.387   .     S
C99    H125    1.095   1_825 S
C100   C101    1.399   .     D
C100   C102    1.454   .     S
C101   H126    1.097   1_825 S
C102   N464    1.297   .     D
C102   H127    1.100   1_825 S
C103   C104    1.425   .     S
C103   C108    1.410   .     D
C104   C105    1.378   .     D
C104   H128    1.096   1_825 S
C105   C106    1.378   .     S
C105   H129    1.100   1_825 S
C106   C107    1.425   .     D
C106   H130    1.095   1_825 S
C107   C108    1.409   .     S
C107   C109    1.461   .     S
C108   H131    1.091   1_825 S
C109   C110    1.419   .     D
C109   C114    1.417   .     S
C110   C111    1.389   .     S
C110   H132    1.095   1_825 S
C111   C112    1.400   .     D
C111   C115    1.456   .     S
C112   C113    1.399   .     S
C112   H133    1.098   1_825 S
C113   C114    1.389   .     D
C113   C116    1.454   .     S
C114   H134    1.095   1_825 S
C115   N468    1.300   .     D
C115   H135    1.100   1_825 S
C116   N465    1.300   .     D
C116   H136    1.100   1_825 S
C117   C124    1.407   .     S
C117   C165    1.403   .     D
C117   N464    1.411   .     S
C118   C119    1.406   .     S
C118   C123    1.404   .     D
C118   N465    1.411   .     S
C119   C120    1.375   .     D
C119   H137    1.098   1_825 S
C120   C121    1.425   .     S
C120   H138    1.098   1_825 S
C121   C122    1.426   .     D
C121   C166    1.455   .     S
C122   C123    1.376   .     S
C122   H139    1.097   1_825 S
C123   H140    1.100   1_825 S
C124   C162    1.376   .     D
C124   H141    1.098   1_825 S
H125   C99     1.095   1_285 S
H126   C101    1.097   1_285 S
H127   C102    1.100   1_285 S
H128   C104    1.096   1_285 S
H129   C105    1.100   1_285 S
H130   C106    1.095   1_285 S
H131   C108    1.091   1_285 S
H132   C110    1.095   1_285 S
H133   C112    1.098   1_285 S
H134   C114    1.095   1_285 S
H135   C115    1.100   1_285 S
H136   C116    1.100   1_285 S
H137   C119    1.098   1_285 S
H138   C120    1.098   1_285 S
H139   C122    1.097   1_285 S
H140   C123    1.100   1_285 S
H141   C124    1.098   1_285 S
H142   C162    1.097   1_285 S
H143   C164    1.097   1_285 S
H144   C165    1.099   1_285 S
H145   C168    1.097   1_285 S
H146   C169    1.099   1_285 S
H147   C171    1.098   1_285 S
H148   C172    1.097   1_285 S
H149   C173    1.097   1_285 S
H150   C174    1.100   1_285 S
H151   C176    1.098   1_285 S
H152   C177    1.097   1_285 S
H153   C178    1.100   1_285 S
H154   C180    1.100   1_285 S
H155   C182    1.098   1_285 S
H156   C184    1.094   1_285 S
H157   C186    1.095   1_285 S
H158   C187    1.094   1_285 S
H159   C189    1.095   1_285 S
H160   C191    1.097   1_285 S
H161   C194    1.096   1_285 S
C162   C163    1.425   .     S
C162   H142    1.097   1_825 S
C163   C164    1.425   .     D
C163   C167    1.456   .     S
C164   C165    1.374   .     S
C164   H143    1.097   1_825 S
C165   H144    1.099   1_825 S
C166   C168    1.426   .     S
C166   C172    1.425   .     D
C167   C173    1.426   .     S
C167   C177    1.425   .     D
C168   C169    1.374   .     D
C168   H145    1.097   1_825 S
C169   C170    1.403   .     S
C169   H146    1.099   1_825 S
C170   C171    1.408   .     D
C170   N466    1.411   .     S
C171   C172    1.376   .     S
C171   H147    1.098   1_825 S
C172   H148    1.097   1_825 S
C173   C174    1.376   .     D
C173   H149    1.097   1_825 S
C174   C175    1.404   .     S
C174   H150    1.100   1_825 S
C175   C176    1.406   .     D
C175   N467    1.410   .     S
C176   C177    1.375   .     S
C176   H151    1.098   1_825 S
C177   H152    1.097   1_825 S
C178   C179    1.454   .     S
C178   N467    1.300   .     D
C178   H153    1.100   1_825 S
C179   C187    1.389   .     D
C179   C191    1.399   .     S
C180   C181    1.454   .     S
C180   N466    1.298   .     D
C180   H154    1.100   1_825 S
C181   C182    1.400   .     D
C181   C186    1.387   .     S
C182   C183    1.400   .     S
C182   H155    1.098   1_825 S
C183   C184    1.391   .     D
C183   C407    1.457   1_545 S
C184   C185    1.419   .     S
C184   H156    1.094   1_825 S
C185   C186    1.416   .     D
C185   C192    1.459   .     S
C186   H157    1.095   1_825 S
C187   C188    1.418   .     S
C187   H158    1.094   1_825 S
C188   C189    1.419   .     D
C188   C193    1.460   .     S
C189   C190    1.389   .     S
C189   H159    1.095   1_825 S
C190   C191    1.400   .     D
C190   C387    1.456   .     S
C191   H160    1.097   1_825 S
C192   C194    1.425   .     D
C192   C197    1.410   .     S
C193   C196    1.425   .     S
C193   C197    1.409   .     D
C194   C195    1.378   .     S
C194   H161    1.096   1_825 S
C195   C196    1.378   .     D
C195   H199    1.100   1_825 S
C196   H200    1.095   1_825 S
C197   H201    1.091   1_825 S
C198   C236    1.406   .     D
C198   C240    1.405   .     S
C198   N468    1.413   .     S
H199   C195    1.100   1_285 S
H200   C196    1.095   1_285 S
H201   C197    1.091   1_285 S
H202   C236    1.098   1_285 S
H203   C237    1.098   1_285 S
H204   C239    1.098   1_285 S
H205   C240    1.099   1_285 S
H206   C242    1.098   1_285 S
H207   C243    1.100   1_285 S
H208   C245    1.098   1_285 S
H209   C246    1.098   1_285 S
H210   C247    1.100   1_285 S
H211   C249    1.095   1_285 S
H212   C251    1.094   1_285 S
H213   C253    1.097   1_285 S
H214   C255    1.096   1_285 S
H215   C256    1.100   1_285 S
H216   C257    1.095   1_285 S
H217   C259    1.091   1_285 S
H218   C261    1.095   1_285 S
H219   C263    1.097   1_285 S
H220   C265    1.094   1_285 S
H221   C266    1.100   1_285 S
H222   C267    1.100   1_285 S
H223   C270    1.098   1_285 S
H224   C271    1.097   1_285 S
H225   C310    1.097   1_285 S
H226   C311    1.100   1_285 S
H227   C312    1.098   1_285 S
H228   C313    1.097   1_285 S
H229   C315    1.097   1_285 S
H230   C316    1.099   1_285 S
H231   C319    1.097   1_285 S
H232   C320    1.099   1_285 S
H233   C322    1.097   1_285 S
H234   C323    1.097   1_285 S
H235   C324    1.097   1_285 S
C236   C237    1.376   .     S
C236   H202    1.098   1_825 S
C237   C238    1.425   .     D
C237   H203    1.098   1_825 S
C238   C239    1.425   .     S
C238   C241    1.457   .     S
C239   C240    1.376   .     D
C239   H204    1.098   1_825 S
C240   H205    1.099   1_825 S
C241   C242    1.425   .     S
C241   C246    1.425   .     D
C242   C243    1.375   .     D
C242   H206    1.098   1_825 S
C243   C244    1.404   .     S
C243   H207    1.100   1_825 S
C244   C245    1.407   .     D
C244   N469    1.414   .     S
C245   C246    1.376   .     S
C245   H208    1.098   1_825 S
C246   H209    1.098   1_825 S
C247   C248    1.456   .     S
C247   N469    1.300   .     D
C247   H210    1.100   1_825 S
C248   C249    1.392   .     D
C248   C253    1.400   .     S
C249   C250    1.419   .     S
C249   H211    1.095   1_825 S
C250   C251    1.416   .     D
C250   C254    1.460   .     S
C251   C252    1.387   .     S
C251   H212    1.094   1_825 S
C252   C253    1.400   .     D
C252   C267    1.453   .     S
C253   H213    1.097   1_825 S
C254   C255    1.424   .     D
C254   C259    1.410   .     S
C255   C256    1.378   .     S
C255   H214    1.096   1_825 S
C256   C257    1.378   .     D
C256   H215    1.100   1_825 S
C257   C258    1.425   .     S
C257   H216    1.095   1_825 S
C258   C259    1.409   .     D
C258   C260    1.460   .     S
C259   H217    1.091   1_825 S
C260   C261    1.419   .     D
C260   C265    1.417   .     S
C261   C262    1.389   .     S
C261   H218    1.095   1_825 S
C262   C263    1.400   .     D
C262   C420    1.456   1_445 S
C263   C264    1.399   .     S
C263   H219    1.097   1_825 S
C264   C265    1.390   .     D
C264   C266    1.455   .     S
C265   H220    1.094   1_825 S
C266   N470    1.300   .     D
C266   H221    1.100   1_825 S
C267   N471    1.297   .     D
C267   H222    1.100   1_825 S
C268   C270    1.406   .     D
C268   C311    1.404   .     S
C268   N470    1.411   .     S
C269   C312    1.408   .     D
C269   C316    1.402   .     S
C269   N471    1.411   .     S
C270   C271    1.375   .     S
C270   H223    1.098   1_825 S
C271   C272    1.424   .     D
C271   H224    1.097   1_825 S
C272   C310    1.425   .     S
C272   C317    1.456   .     S
H273   C325    1.099   1_285 S
H274   C327    1.098   1_285 S
H275   C328    1.097   1_285 S
H276   C329    1.100   1_285 S
H277   C331    1.099   1_285 S
H278   C333    1.097   1_285 S
H279   C335    1.094   1_285 S
H280   C337    1.095   1_285 S
H281   C338    1.094   1_285 S
H282   C340    1.095   1_285 S
H283   C342    1.097   1_285 S
H284   C345    1.091   1_285 S
H285   C346    1.096   1_285 S
H286   C384    1.099   1_285 S
H287   C385    1.095   1_285 S
H288   C386    1.100   1_285 S
H289   C387    1.100   1_285 S
H290   C389    1.098   1_285 S
H291   C390    1.097   1_285 S
H292   C392    1.097   1_285 S
H293   C393    1.099   1_285 S
H294   C394    1.100   1_285 S
H295   C396    1.098   1_285 S
H296   C397    1.097   1_285 S
H297   C399    1.097   1_285 S
H298   C400    1.099   1_285 S
H299   C402    1.098   1_285 S
H300   C403    1.099   1_285 S
H301   C405    1.099   1_285 S
H302   C406    1.098   1_285 S
H303   C407    1.100   1_285 S
H304   C409    1.098   1_285 S
H305   C410    1.098   1_285 S
H306   C412    1.097   1_285 S
H307   C413    1.099   1_285 S
H308   C415    1.098   1_285 S
H309   C416    1.099   1_285 S
C310   C311    1.375   .     D
C310   H225    1.097   1_825 S
C311   H226    1.100   1_825 S
C312   C313    1.376   .     S
C312   H227    1.098   1_825 S
C313   C314    1.425   .     D
C313   H228    1.097   1_825 S
C314   C315    1.425   .     S
C314   C318    1.455   .     S
C315   C316    1.375   .     D
C315   H229    1.097   1_825 S
C316   H230    1.099   1_825 S
C317   C319    1.425   .     D
C317   C323    1.425   .     S
C318   C324    1.426   .     D
C318   C328    1.425   .     S
C319   C320    1.374   .     S
C319   H231    1.097   1_825 S
C320   C321    1.403   .     D
C320   H232    1.099   1_825 S
C321   C322    1.408   .     S
C321   N472    1.411   .     S
C322   C323    1.376   .     D
C322   H233    1.097   1_825 S
C323   H234    1.097   1_825 S
C324   C325    1.376   .     S
C324   H235    1.097   1_825 S
C325   C326    1.404   .     D
C325   H273    1.099   1_825 S
C326   C327    1.406   .     S
C326   N473    1.411   .     S
C327   C328    1.375   .     D
C327   H274    1.098   1_825 S
C328   H275    1.097   1_825 S
C329   C330    1.454   .     S
C329   N472    1.298   .     D
C329   H276    1.100   1_825 S
C330   C333    1.400   .     D
C330   C337    1.386   .     S
C331   C332    1.454   .     S
C331   N473    1.300   .     D
C331   H277    1.099   1_825 S
C332   C338    1.389   .     S
C332   C342    1.399   .     D
C333   C334    1.400   .     S
C333   H278    1.097   1_825 S
C334   C335    1.390   .     D
C334   C386    1.457   .     S
C335   C336    1.419   .     S
C335   H279    1.094   1_825 S
C336   C337    1.416   .     D
C336   C343    1.459   .     S
C337   H280    1.095   1_825 S
C338   C339    1.418   .     D
C338   H281    1.094   1_825 S
C339   C340    1.418   .     S
C339   C344    1.460   .     S
C340   C341    1.389   .     D
C340   H282    1.095   1_825 S
C341   C342    1.399   .     S
C341   C394    1.456   1_545 S
C342   H283    1.097   1_825 S
C343   C345    1.409   .     D
C343   C346    1.425   .     S
C344   C345    1.408   .     S
C344   C385    1.425   .     D
C345   H284    1.091   1_825 S
C346   C384    1.378   .     D
C346   H285    1.096   1_825 S
H347   C418    1.098   1_285 S
H348   C419    1.097   1_285 S
H349   C420    1.100   1_285 S
H350   C452    1.098   1_285 S
H351   C453    1.100   1_285 S
H352   C455    1.098   1_285 S
H353   C456    1.097   1_285 S
C354   C355    1.400   .     D
C354   C359    1.400   .     S
C354   H1      1.097   1_825 S
C355   C356    1.391   .     S
C355   C360    1.456   .     S
C356   C357    1.418   .     D
C356   H2      1.095   1_825 S
C357   C358    1.416   .     S
C357   C423    1.460   .     S
C358   C359    1.387   .     D
C358   H3      1.095   1_825 S
C359   C361    1.454   .     S
C360   N458    1.301   .     D
C360   H4      1.100   1_825 S
C361   N457    1.298   .     D
C361   H5      1.100   1_825 S
C362   C369    1.408   .     S
C362   C373    1.403   .     D
C362   N457    1.411   .     S
C363   C364    1.407   .     D
C363   C368    1.404   .     S
C363   N458    1.413   .     S
C364   C365    1.376   .     S
C364   H6      1.098   1_825 S
C365   C366    1.425   .     D
C365   H7      1.098   1_825 S
C366   C367    1.425   .     S
C366   C374    1.457   .     S
C367   C368    1.376   .     D
C367   H8      1.097   1_825 S
C368   H9      1.100   1_825 S
C369   C370    1.376   .     D
C369   H10     1.098   1_825 S
C370   C371    1.425   .     S
C370   H11     1.097   1_825 S
C371   C372    1.426   .     D
C371   C375    1.456   .     S
C372   C373    1.374   .     S
C372   H12     1.097   1_825 S
C373   H13     1.100   1_825 S
C374   C376    1.425   .     D
C374   C380    1.425   .     S
C375   C381    1.426   .     S
C375   C422    1.425   .     D
C376   C377    1.375   .     S
C376   H14     1.097   1_825 S
C377   C378    1.404   .     D
C377   H15     1.099   1_825 S
C378   C379    1.407   .     S
C378   N476    1.413   .     S
C379   C380    1.376   .     D
C379   H16     1.098   1_825 S
C380   H17     1.098   1_825 S
C381   C382    1.376   .     D
C381   H18     1.097   1_825 S
C382   C383    1.404   .     S
C382   H19     1.100   1_825 S
C383   C421    1.406   .     D
C383   N461    1.411   .     S
C384   C385    1.379   .     S
C384   H286    1.099   1_825 S
C385   H287    1.095   1_825 S
C386   N474    1.301   .     D
C386   H288    1.100   1_825 S
C387   N475    1.301   .     D
C387   H289    1.100   1_825 S
C388   C389    1.407   .     D
C388   C393    1.404   .     S
C388   N475    1.414   .     S
C389   C390    1.376   .     S
C389   H290    1.098   1_825 S
C390   C391    1.426   .     D
C390   H291    1.097   1_825 S
C391   C392    1.425   .     S
C391   C451    1.458   .     S
C392   C393    1.376   .     D
C392   H292    1.097   1_825 S
C393   H293    1.099   1_825 S
C394   N476    1.299   .     D
C394   H294    1.100   1_825 S
C394   C341    1.456   1_565 S
C395   C396    1.407   .     D
C395   C400    1.404   .     S
C395   N477    1.414   .     S
C396   C397    1.377   .     S
C396   H295    1.098   1_825 S
C397   C398    1.426   .     D
C397   H296    1.097   1_825 S
C398   C399    1.425   .     S
C398   C401    1.458   .     S
C399   C400    1.376   .     D
C399   H297    1.097   1_825 S
C400   H298    1.099   1_825 S
C401   C402    1.425   .     D
C401   C406    1.426   .     S
C402   C403    1.376   .     S
C402   H299    1.098   1_825 S
C403   C404    1.404   .     D
C403   H300    1.099   1_825 S
C404   C405    1.407   .     S
C404   N478    1.414   .     S
C405   C406    1.376   .     D
C405   H301    1.099   1_825 S
C406   H302    1.098   1_825 S
C407   N478    1.300   .     D
C407   C183    1.457   1_565 S
C407   H303    1.100   1_825 S
C408   C409    1.407   .     D
C408   C413    1.404   .     S
C408   N479    1.414   .     S
C409   C410    1.377   .     S
C409   H304    1.098   1_825 S
C410   C411    1.425   .     D
C410   H305    1.098   1_825 S
C411   C412    1.425   .     S
C411   C414    1.458   .     S
C412   C413    1.376   .     D
C412   H306    1.097   1_825 S
C413   H307    1.099   1_825 S
C414   C415    1.425   .     D
C414   C419    1.425   .     S
C415   C416    1.375   .     S
C415   H308    1.098   1_825 S
C416   C417    1.404   .     D
C416   H309    1.099   1_825 S
C417   C418    1.407   .     S
C417   N480    1.414   .     S
C418   C419    1.376   .     D
C418   H347    1.098   1_825 S
C419   H348    1.097   1_825 S
C420   N480    1.300   .     D
C420   C262    1.456   1_665 S
C420   H349    1.100   1_825 S
C421   C422    1.375   .     S
C421   H20     1.098   1_825 S
C422   H21     1.097   1_825 S
C423   C424    1.425   .     D
C423   C428    1.409   .     S
C424   C425    1.378   .     S
C424   H22     1.095   1_825 S
C425   C426    1.378   .     D
C425   H23     1.100   1_825 S
C426   C427    1.425   .     S
C426   H24     1.095   1_825 S
C427   C428    1.409   .     D
C427   C429    1.460   .     S
C428   H25     1.091   1_825 S
C429   C430    1.419   .     D
C429   C434    1.417   .     S
C430   C431    1.390   .     S
C430   H51     1.095   1_825 S
C431   C432    1.400   .     D
C431   C435    1.456   .     S
C432   C433    1.398   .     S
C432   H52     1.098   1_825 S
C433   C434    1.389   .     D
C433   C436    1.454   .     S
C434   H53     1.095   1_825 S
C435   N460    1.300   .     D
C435   H54     1.100   1_825 S
C436   N459    1.300   .     D
C436   H55     1.100   1_825 S
C437   N459    1.410   .     S
C438   N460    1.414   .     S
C439   C440    1.455   .     S
C439   N461    1.300   .     D
C439   H56     1.100   1_825 S
C440   C441    1.389   .     S
C440   C445    1.398   .     D
C441   C442    1.417   .     D
C441   H57     1.094   1_825 S
C442   C443    1.419   .     S
C442   C447    1.460   .     S
C443   C444    1.389   .     D
C443   H58     1.095   1_825 S
C444   C445    1.400   .     S
C444   C446    1.457   .     S
C445   H59     1.097   1_825 S
C446   N477    1.300   .     D
C446   H60     1.100   1_825 S
C447   C448    1.408   .     S
C448   C449    1.409   .     D
C448   H61     1.091   1_825 S
C449   C450    1.424   .     S
C450   H62     1.096   1_825 S
C451   C452    1.425   .     D
C451   C456    1.425   .     S
C452   C453    1.376   .     S
C452   H350    1.098   1_825 S
C453   C454    1.404   .     D
C453   H351    1.100   1_825 S
C454   C455    1.407   .     S
C454   N474    1.414   1_665 S
C455   C456    1.376   .     D
C455   H352    1.098   1_825 S
C456   H353    1.097   1_825 S
N474   C454    1.414   1_445 S
