data_537
_audit_creation_date              2023-09-08
_audit_creation_method            'Materials Studio'
_symmetry_space_group_name_H-M    'P1'
_symmetry_Int_Tables_number       1
_symmetry_cell_setting            triclinic
loop_
_symmetry_equiv_pos_as_xyz
  x,y,z
_cell_length_a                    52.2000
_cell_length_b                    52.2000
_cell_length_c                    3.5300
_cell_angle_alpha                 90.0000
_cell_angle_beta                  90.0000
_cell_angle_gamma                 120.0000
loop_
_atom_site_label
_atom_site_type_symbol
_atom_site_fract_x
_atom_site_fract_y
_atom_site_fract_z
_atom_site_U_iso_or_equiv
_atom_site_adp_type
_atom_site_occupancy
H1     H     0.28041   0.68408   0.00000   0.00000  Uiso   1.00
H2     H     0.31968   0.67880   0.00000   0.00000  Uiso   1.00
H3     H     0.36572   0.67773   0.00000   0.00000  Uiso   1.00
H4     H     0.41530   0.77345   0.00000   0.00000  Uiso   1.00
H5     H     0.36930   0.77451   0.00000   0.00000  Uiso   1.00
H6     H     0.45429   0.76853   0.00000   0.00000  Uiso   1.00
H7     H     0.44617   0.69202   0.00000   0.00000  Uiso   1.00
H8     H     0.54083   0.72759   0.00000   0.00000  Uiso   1.00
H9     H     0.50507   0.78525   0.00000   0.00000  Uiso   1.00
H10    H     0.57427   0.77746   0.00000   0.00000  Uiso   1.00
H11    H     0.43965   0.65210   0.00000   0.00000  Uiso   1.00
H12    H     0.43228   0.60254   0.00000   0.00000  Uiso   1.00
H13    H     0.47347   0.59364   0.00000   0.00000  Uiso   1.00
H14    H     0.53448   0.68800   0.00000   0.00000  Uiso   1.00
H15    H     0.50692   0.58729   0.00000   0.00000  Uiso   1.00
H16    H     0.59996   0.62082   0.00000   0.00000  Uiso   1.00
H17    H     0.56774   0.68153   0.00000   0.00000  Uiso   1.00
C18    C     2.14404  -3.38302   0.00000   0.00000  Uiso   1.00
C19    C     2.17253  -3.35941   0.00000   0.00000  Uiso   1.00
C20    C     2.17855  -3.32960   0.00000   0.00000  Uiso   1.00
C21    C     2.15354  -3.32595   0.00000   0.00000  Uiso   1.00
C22    C     2.20886  -3.30471   0.00000   0.00000  Uiso   1.00
C23    C     2.23379  -3.30877   0.00000   0.00000  Uiso   1.00
C24    C     2.26290  -3.28566   0.00000   0.00000  Uiso   1.00
C25    C     2.26723  -3.25694   0.00000   0.00000  Uiso   1.00
C26    C     2.24396  -3.25087   0.00000   0.00000  Uiso   1.00
C27    C     2.21535  -3.27491   0.00000   0.00000  Uiso   1.00
C28    C     2.06469  -3.24707   0.00000   0.00000  Uiso   1.00
C29    C     2.09162  -3.22004   0.00000   0.00000  Uiso   1.00
C30    C     2.09222  -3.19318   0.00000   0.00000  Uiso   1.00
C31    C     2.06610  -3.19166   0.00000   0.00000  Uiso   1.00
C32    C     2.03919  -3.21867   0.00000   0.00000  Uiso   1.00
C33    C     2.03859  -3.24552   0.00000   0.00000  Uiso   1.00
C34    C     2.04648  -3.15782   0.00000   0.00000  Uiso   1.00
H35    H     0.63498   0.67182   0.00000   0.00000  Uiso   1.00
H36    H     0.52230   0.55265   0.00000   0.00000  Uiso   1.00
H37    H     0.51685   0.50818   0.00000   0.00000  Uiso   1.00
H38    H     0.51552   0.46096   0.00000   0.00000  Uiso   1.00
H39    H     0.61123   0.50669   0.00000   0.00000  Uiso   1.00
H40    H     0.61256   0.55388   0.00000   0.00000  Uiso   1.00
H41    H     0.60606   0.46270   0.00000   0.00000  Uiso   1.00
H42    H    -0.00338  -0.38314   0.00000   0.00000  Uiso   1.00
H43    H     0.06486  -0.39152   0.00000   0.00000  Uiso   1.00
H44    H     0.12418  -0.29690   0.00000   0.00000  Uiso   1.00
H45    H     0.03079  -0.33240   0.00000   0.00000  Uiso   1.00
H46    H     0.10786  -0.26333   0.00000   0.00000  Uiso   1.00
H47    H     0.09817  -0.39816   0.00000   0.00000  Uiso   1.00
H48    H     0.14024  -0.40572   0.00000   0.00000  Uiso   1.00
H49    H     0.19040  -0.36465   0.00000   0.00000  Uiso   1.00
H50    H     0.15734  -0.30340   0.00000   0.00000  Uiso   1.00
H51    H     0.23029  -0.33127   0.00000   0.00000  Uiso   1.00
H52    H     0.28998  -0.23826   0.00000   0.00000  Uiso   1.00
H53    H     0.19712  -0.27023   0.00000   0.00000  Uiso   1.00
H54    H     0.11282  -0.21968   0.00000   0.00000  Uiso   1.00
H55    H     0.11375  -0.17262   0.00000   0.00000  Uiso   1.00
H56    H     0.01800  -0.21898   0.00000   0.00000  Uiso   1.00
H57    H     0.01704  -0.26605   0.00000   0.00000  Uiso   1.00
H58    H     0.02296  -0.17497   0.00000   0.00000  Uiso   1.00
H59    H     0.09998  -0.10785   0.00000   0.00000  Uiso   1.00
H60    H     0.06679  -0.04684   0.00000   0.00000  Uiso   1.00
H61    H     0.00711  -0.13985   0.00000   0.00000  Uiso   1.00
H62    H     0.13971  -0.07470   0.00000   0.00000  Uiso   1.00
H63    H     0.19888   0.02008   0.00000   0.00000  Uiso   1.00
H64    H     0.15682   0.02764   0.00000   0.00000  Uiso   1.00
H65    H     0.10666  -0.01344   0.00000   0.00000  Uiso   1.00
H66    H     0.17284  -0.08123   0.00000   0.00000  Uiso   1.00
H67    H     0.26622  -0.04572   0.00000   0.00000  Uiso   1.00
H68    H     0.23214   0.01339   0.00000   0.00000  Uiso   1.00
H69    H     0.18916  -0.11479   0.00000   0.00000  Uiso   1.00
H70    H     0.30040   0.00514   0.00000   0.00000  Uiso   1.00
H71    H     0.18422  -0.15843   0.00000   0.00000  Uiso   1.00
H72    H     0.18331  -0.20548   0.00000   0.00000  Uiso   1.00
H73    H     0.27905  -0.15910   0.00000   0.00000  Uiso   1.00
C74    C     2.05313  -3.12722   0.00000   0.00000  Uiso   1.00
C75    C     2.08175  -3.10318   0.00000   0.00000  Uiso   1.00
C76    C     2.08822  -3.07339   0.00000   0.00000  Uiso   1.00
C77    C     2.06330  -3.06933   0.00000   0.00000  Uiso   1.00
C78    C     2.02986  -3.12116   0.00000   0.00000  Uiso   1.00
C79    C     2.11851  -3.04848   0.00000   0.00000  Uiso   1.00
C80    C     2.14351  -3.05214   0.00000   0.00000  Uiso   1.00
C81    C     2.17303  -3.02863   0.00000   0.00000  Uiso   1.00
C82    C     2.17682  -2.99964   0.00000   0.00000  Uiso   1.00
C83    C     2.15302  -2.99506   0.00000   0.00000  Uiso   1.00
C84    C     2.12452  -3.01868   0.00000   0.00000  Uiso   1.00
C85    C     2.19843  -3.03321   0.00000   0.00000  Uiso   1.00
C86    C     2.19511  -3.06186   0.00000   0.00000  Uiso   1.00
C87    C     2.21875  -3.06699   0.00000   0.00000  Uiso   1.00
C88    C     2.24721  -3.04216   0.00000   0.00000  Uiso   1.00
C89    C     2.25261  -3.01305   0.00000   0.00000  Uiso   1.00
C90    C     2.22803  -3.00932   0.00000   0.00000  Uiso   1.00
C91    C     2.21260  -3.09743   0.00000   0.00000  Uiso   1.00
C92    C     2.28310  -2.98871   0.00000   0.00000  Uiso   1.00
C93    C     2.23234  -3.13103   0.00000   0.00000  Uiso   1.00
C94    C     2.20542  -3.15807   0.00000   0.00000  Uiso   1.00
C95    C     2.20483  -3.18492   0.00000   0.00000  Uiso   1.00
C96    C     2.23096  -3.18644   0.00000   0.00000  Uiso   1.00
C97    C     2.25786  -3.15942   0.00000   0.00000  Uiso   1.00
C98    C     2.25845  -3.13257   0.00000   0.00000  Uiso   1.00
C99    C     2.25060  -3.22027   0.00000   0.00000  Uiso   1.00
C100   C     2.31689  -2.93516   0.00000   0.00000  Uiso   1.00
C101   C     2.34394  -2.93501   0.00000   0.00000  Uiso   1.00
C102   C     2.37082  -2.90876   0.00000   0.00000  Uiso   1.00
C103   C     2.37250  -2.88104   0.00000   0.00000  Uiso   1.00
C104   C     2.34545  -2.88117   0.00000   0.00000  Uiso   1.00
C105   C     2.31855  -2.90744   0.00000   0.00000  Uiso   1.00
C106   C     2.40671  -2.82750   0.00000   0.00000  Uiso   1.00
C107   C     2.43737  -2.80350   0.00000   0.00000  Uiso   1.00
C108   C     2.46178  -2.80780   0.00000   0.00000  Uiso   1.00
C109   C     2.49109  -2.78451   0.00000   0.00000  Uiso   1.00
C110   C     2.49563  -2.75591   0.00000   0.00000  Uiso   1.00
C111   C     2.47229  -2.74946   0.00000   0.00000  Uiso   1.00
C112   C     2.44332  -2.77441   0.00000   0.00000  Uiso   1.00
H113   H     0.28000  -0.11204   0.00000   0.00000  Uiso   1.00
H114   H     0.27412  -0.20312   0.00000   0.00000  Uiso   1.00
H115   H     0.34427   0.04413   0.00000   0.00000  Uiso   1.00
H116   H     0.39132   0.09016   0.00000   0.00000  Uiso   1.00
H117   H     0.34514   0.13971   0.00000   0.00000  Uiso   1.00
H118   H     0.29805   0.09364   0.00000   0.00000  Uiso   1.00
H119   H     0.38960   0.17893   0.00000   0.00000  Uiso   1.00
H120   H     0.45774   0.16946   0.00000   0.00000  Uiso   1.00
H121   H     0.51853   0.26234   0.00000   0.00000  Uiso   1.00
H122   H     0.42430   0.22905   0.00000   0.00000  Uiso   1.00
H123   H     0.50870   0.18534   0.00000   0.00000  Uiso   1.00
H124   H     0.52503   0.30205   0.00000   0.00000  Uiso   1.00
H125   H     0.48937   0.36116   0.00000   0.00000  Uiso   1.00
H126   H     0.43975   0.31905   0.00000   0.00000  Uiso   1.00
H127   H     0.43073   0.26891   0.00000   0.00000  Uiso   1.00
H128   H     0.56462   0.33513   0.00000   0.00000  Uiso   1.00
H129   H     0.62256   0.42849   0.00000   0.00000  Uiso   1.00
H130   H     0.52938   0.39451   0.00000   0.00000  Uiso   1.00
H131   H     0.61447   0.35138   0.00000   0.00000  Uiso   1.00
H132   H     0.54774   0.18038   0.00000   0.00000  Uiso   1.00
H133   H     0.59384   0.17941   0.00000   0.00000  Uiso   1.00
H134   H     0.64326   0.27520   0.00000   0.00000  Uiso   1.00
H135   H     0.59712   0.27612   0.00000   0.00000  Uiso   1.00
H136   H     0.65321   0.34643   0.00000   0.00000  Uiso   1.00
H137   H     0.69939   0.34558   0.00000   0.00000  Uiso   1.00
H138   H     0.74865   0.44133   0.00000   0.00000  Uiso   1.00
H139   H     0.70252   0.44221   0.00000   0.00000  Uiso   1.00
H140   H     0.78772   0.43650   0.00000   0.00000  Uiso   1.00
H141   H     0.68191   0.27026   0.00000   0.00000  Uiso   1.00
H142   H     0.67404   0.19325   0.00000   0.00000  Uiso   1.00
H143   H     0.76725   0.22746   0.00000   0.00000  Uiso   1.00
H144   H     0.73180   0.28666   0.00000   0.00000  Uiso   1.00
H145   H     0.77801   0.35960   0.00000   0.00000  Uiso   1.00
H146   H     0.87224   0.39293   0.00000   0.00000  Uiso   1.00
H147   H     0.83878   0.45250   0.00000   0.00000  Uiso   1.00
H148   H     0.80718   0.26081   0.00000   0.00000  Uiso   1.00
H149   H     0.85677   0.30291   0.00000   0.00000  Uiso   1.00
H150   H     0.86578   0.35305   0.00000   0.00000  Uiso   1.00
H151   H     0.77145   0.31986   0.00000   0.00000  Uiso   1.00
C152   C     2.51506  -2.79114   0.00000   0.00000  Uiso   1.00
C153   C     2.47763  -2.71919   0.00000   0.00000  Uiso   1.00
C154   C     2.50627  -2.69417   0.00000   0.00000  Uiso   1.00
C155   C     2.51225  -2.66465   0.00000   0.00000  Uiso   1.00
C156   C     2.48704  -2.66089   0.00000   0.00000  Uiso   1.00
C157   C     2.45867  -2.68472   0.00000   0.00000  Uiso   1.00
C158   C     2.45382  -2.71321   0.00000   0.00000  Uiso   1.00
C159   C     2.54223  -2.63924   0.00000   0.00000  Uiso   1.00
C160   C     2.56753  -2.64259   0.00000   0.00000  Uiso   1.00
C161   C     2.59631  -2.61897   0.00000   0.00000  Uiso   1.00
C162   C     2.59998  -2.59050   0.00000   0.00000  Uiso   1.00
C163   C     2.54797  -2.60962   0.00000   0.00000  Uiso   1.00
C164   C     2.62056  -2.62518   0.00000   0.00000  Uiso   1.00
C165   C     2.56851  -2.77153   0.00000   0.00000  Uiso   1.00
C166   C     2.67390  -2.60545   0.00000   0.00000  Uiso   1.00
C167   C     2.56861  -2.79844   0.00000   0.00000  Uiso   1.00
C168   C     2.59487  -2.79903   0.00000   0.00000  Uiso   1.00
C169   C     2.62252  -2.77293   0.00000   0.00000  Uiso   1.00
C170   C     2.62241  -2.74601   0.00000   0.00000  Uiso   1.00
C171   C     2.59615  -2.74541   0.00000   0.00000  Uiso   1.00
C172   C     2.67404  -2.63236   0.00000   0.00000  Uiso   1.00
C173   C     2.70033  -2.63291   0.00000   0.00000  Uiso   1.00
C174   C     2.72795  -2.60676   0.00000   0.00000  Uiso   1.00
C175   C     2.72780  -2.57987   0.00000   0.00000  Uiso   1.00
C176   C     2.70153  -2.57932   0.00000   0.00000  Uiso   1.00
C177   C     2.78142  -2.58699   0.00000   0.00000  Uiso   1.00
C178   C     2.80544  -2.59354   0.00000   0.00000  Uiso   1.00
C179   C     2.67586  -2.75317   0.00000   0.00000  Uiso   1.00
C180   C     2.70018  -2.75928   0.00000   0.00000  Uiso   1.00
C181   C     2.69660  -2.78772   0.00000   0.00000  Uiso   1.00
C182   C     2.72034  -2.79307   0.00000   0.00000  Uiso   1.00
C183   C     2.74862  -2.76846   0.00000   0.00000  Uiso   1.00
C184   C     2.75429  -2.73886   0.00000   0.00000  Uiso   1.00
C185   C     2.72894  -2.73560   0.00000   0.00000  Uiso   1.00
C186   C     2.80091  -2.62214   0.00000   0.00000  Uiso   1.00
C187   C     2.82425  -2.62858   0.00000   0.00000  Uiso   1.00
C188   C     2.85322  -2.60361   0.00000   0.00000  Uiso   1.00
C189   C     2.85918  -2.57451   0.00000   0.00000  Uiso   1.00
C190   C     2.83475  -2.57024   0.00000   0.00000  Uiso   1.00
H191   H     0.90693   0.44303   0.00000   0.00000  Uiso   1.00
H192   H     0.61785   0.81611   0.00000   0.00000  Uiso   1.00
H193   H     0.66491   0.86224   0.00000   0.00000  Uiso   1.00
H194   H     0.61854   0.91162   0.00000   0.00000  Uiso   1.00
H195   H     0.57148   0.86552   0.00000   0.00000  Uiso   1.00
H196   H     0.67893   0.71088   0.00000   0.00000  Uiso   1.00
H197   H     0.72597   0.75699   0.00000   0.00000  Uiso   1.00
H198   H     0.67955   0.80635   0.00000   0.00000  Uiso   1.00
H199   H     0.63250   0.76020   0.00000   0.00000  Uiso   1.00
H200   H     0.66255   0.95067   0.00000   0.00000  Uiso   1.00
H201   H     0.72316   0.84504   0.00000   0.00000  Uiso   1.00
H202   H     0.72978   0.94091   0.00000   0.00000  Uiso   1.00
H203   H     0.79062   1.03517   0.00000   0.00000  Uiso   1.00
H204   H     0.69757   1.00161   0.00000   0.00000  Uiso   1.00
H205   H     0.79230   0.83715   0.00000   0.00000  Uiso   1.00
H206   H     0.85130   0.93037   0.00000   0.00000  Uiso   1.00
H207   H     0.75666   0.89490   0.00000   0.00000  Uiso   1.00
H208   H     0.85787   0.97033   0.00000   0.00000  Uiso   1.00
H209   H     0.86526   1.01990   0.00000   0.00000  Uiso   1.00
H210   H     0.82409   1.02882   0.00000   0.00000  Uiso   1.00
H211   H     0.76306   0.93448   0.00000   0.00000  Uiso   1.00
H212   H     0.84304   0.85379   0.00000   0.00000  Uiso   1.00
H213   H     0.88187   0.84873   0.00000   0.00000  Uiso   1.00
H214   H     0.92778   0.84750   0.00000   0.00000  Uiso   1.00
H215   H     0.97765   0.94322   0.00000   0.00000  Uiso   1.00
H216   H     0.93170   0.94446   0.00000   0.00000  Uiso   1.00
H217   H     1.01672   0.93783   0.00000   0.00000  Uiso   1.00
H218   H     0.95141   0.48219   0.00000   0.00000  Uiso   1.00
H219   H     0.99857   0.52816   0.00000   0.00000  Uiso   1.00
H220   H     0.95262   0.57792   0.00000   0.00000  Uiso   1.00
H221   H     0.90549   0.53197   0.00000   0.00000  Uiso   1.00
H222   H     0.69071   1.15914   0.00000   0.00000  Uiso   1.00
H223   H     0.68577   1.11524   0.00000   0.00000  Uiso   1.00
H224   H     0.68470   1.06816   0.00000   0.00000  Uiso   1.00
H225   H     0.78042   1.11426   0.00000   0.00000  Uiso   1.00
H226   H     0.78150   1.16137   0.00000   0.00000  Uiso   1.00
H227   H     0.77516   1.06981   0.00000   0.00000  Uiso   1.00
C228   C     2.28688  -2.29237   0.00000   0.00000  Uiso   1.00
C229   C     2.34045  -2.27310   0.00000   0.00000  Uiso   1.00
C230   C     2.78426  -2.71342   0.00000   0.00000  Uiso   1.00
C231   C     2.81888  -2.65887   0.00000   0.00000  Uiso   1.00
C232   C     2.80948  -2.71715   0.00000   0.00000  Uiso   1.00
C233   C     2.83785  -2.69332   0.00000   0.00000  Uiso   1.00
C234   C     2.84269  -2.66484   0.00000   0.00000  Uiso   1.00
C235   C     2.79023  -2.68390   0.00000   0.00000  Uiso   1.00
C236   C     2.88985  -2.55051   0.00000   0.00000  Uiso   1.00
C237   C     2.59045  -2.16316   0.00000   0.00000  Uiso   1.00
C238   C     2.65157  -2.26839   0.00000   0.00000  Uiso   1.00
C239   C     2.61749  -2.16304   0.00000   0.00000  Uiso   1.00
C240   C     2.64435  -2.13679   0.00000   0.00000  Uiso   1.00
C241   C     2.64587  -2.10914   0.00000   0.00000  Uiso   1.00
C242   C     2.61886  -2.10925   0.00000   0.00000  Uiso   1.00
C243   C     2.59200  -2.13550   0.00000   0.00000  Uiso   1.00
C244   C     2.67860  -2.26826   0.00000   0.00000  Uiso   1.00
C245   C     2.70544  -2.24200   0.00000   0.00000  Uiso   1.00
C246   C     2.70696  -2.21436   0.00000   0.00000  Uiso   1.00
C247   C     2.67992  -2.21449   0.00000   0.00000  Uiso   1.00
C248   C     2.65307  -2.24076   0.00000   0.00000  Uiso   1.00
C249   C     2.67972  -2.05568   0.00000   0.00000  Uiso   1.00
C250   C     2.74054  -2.16102   0.00000   0.00000  Uiso   1.00
C251   C     2.77097  -2.13671   0.00000   0.00000  Uiso   1.00
C252   C     2.71031  -2.03170   0.00000   0.00000  Uiso   1.00
C253   C     2.73440  -2.03620   0.00000   0.00000  Uiso   1.00
C254   C     2.76417  -2.01283   0.00000   0.00000  Uiso   1.00
C255   C     2.76815  -1.98387   0.00000   0.00000  Uiso   1.00
C256   C     2.74498  -1.97796   0.00000   0.00000  Uiso   1.00
C257   C     2.71629  -2.00240   0.00000   0.00000  Uiso   1.00
C258   C     2.79582  -2.14029   0.00000   0.00000  Uiso   1.00
C259   C     2.82492  -2.11655   0.00000   0.00000  Uiso   1.00
C260   C     2.82860  -2.08826   0.00000   0.00000  Uiso   1.00
C261   C     2.80467  -2.08260   0.00000   0.00000  Uiso   1.00
C262   C     2.77605  -2.10796   0.00000   0.00000  Uiso   1.00
C263   C     2.78914  -2.01812   0.00000   0.00000  Uiso   1.00
C264   C     2.80916  -2.05265   0.00000   0.00000  Uiso   1.00
C265   C     2.83811  -2.02740   0.00000   0.00000  Uiso   1.00
C266   C     2.84259  -1.99905   0.00000   0.00000  Uiso   1.00
C267   C     2.81892  -1.99426   0.00000   0.00000  Uiso   1.00
C268   C     2.78558  -2.04673   0.00000   0.00000  Uiso   1.00
C269   C     2.34057  -2.30002   0.00000   0.00000  Uiso   1.00
C270   C     2.36682  -2.30068   0.00000   0.00000  Uiso   1.00
C271   C     2.39457  -2.27464   0.00000   0.00000  Uiso   1.00
C272   C     2.39442  -2.24774   0.00000   0.00000  Uiso   1.00
C273   C     2.36819  -2.24708   0.00000   0.00000  Uiso   1.00
C274   C     2.44813  -2.25494   0.00000   0.00000  Uiso   1.00
C275   C     2.47249  -2.26106   0.00000   0.00000  Uiso   1.00
C276   C     2.46886  -2.28933   0.00000   0.00000  Uiso   1.00
C277   C     2.49282  -2.29495   0.00000   0.00000  Uiso   1.00
C278   C     2.52142  -2.26958   0.00000   0.00000  Uiso   1.00
C279   C     2.52646  -2.24083   0.00000   0.00000  Uiso   1.00
C280   C     2.50158  -2.23730   0.00000   0.00000  Uiso   1.00
C281   C     2.55688  -2.21650   0.00000   0.00000  Uiso   1.00
C282   C     2.48836  -2.32490   0.00000   0.00000  Uiso   1.00
C283   C     2.45942  -2.35016   0.00000   0.00000  Uiso   1.00
C284   C     2.45495  -2.37850   0.00000   0.00000  Uiso   1.00
C285   C     2.47863  -2.38328   0.00000   0.00000  Uiso   1.00
C286   C     2.50840  -2.35942   0.00000   0.00000  Uiso   1.00
C287   C     2.51195  -2.33080   0.00000   0.00000  Uiso   1.00
C288   C     2.53336  -2.36472   0.00000   0.00000  Uiso   1.00
C289   C     2.52939  -2.39368   0.00000   0.00000  Uiso   1.00
C290   C     2.55254  -2.39961   0.00000   0.00000  Uiso   1.00
C291   C     2.58123  -2.37517   0.00000   0.00000  Uiso   1.00
C292   C     2.58722  -2.34586   0.00000   0.00000  Uiso   1.00
C293   C     2.56313  -2.34136   0.00000   0.00000  Uiso   1.00
C294   C     2.61780  -2.32186   0.00000   0.00000  Uiso   1.00
C295   C     2.54585  -2.43028   0.00000   0.00000  Uiso   1.00
C296   C     2.56497  -2.46467   0.00000   0.00000  Uiso   1.00
C297   C     2.53798  -2.49163   0.00000   0.00000  Uiso   1.00
C298   C     2.53716  -2.51862   0.00000   0.00000  Uiso   1.00
C299   C     2.56312  -2.52048   0.00000   0.00000  Uiso   1.00
C300   C     2.59010  -2.49351   0.00000   0.00000  Uiso   1.00
C301   C     2.59091  -2.46653   0.00000   0.00000  Uiso   1.00
C302   C     2.58257  -2.55452   0.00000   0.00000  Uiso   1.00
C303   C     2.57629  -2.58506   0.00000   0.00000  Uiso   1.00
C304   C     2.03420  -3.09244   0.00000   0.00000  Uiso   1.00
C305   C     2.01387  -3.38937   0.00000   0.00000  Uiso   1.00
C306   C     2.04439  -3.36508   0.00000   0.00000  Uiso   1.00
C307   C     2.06898  -3.36880   0.00000   0.00000  Uiso   1.00
C308   C     2.84924  -2.12274   0.00000   0.00000  Uiso   1.00
C309   C     2.90274  -2.10316   0.00000   0.00000  Uiso   1.00
C310   C     2.90278  -2.13011   0.00000   0.00000  Uiso   1.00
C311   C     2.92896  -2.13087   0.00000   0.00000  Uiso   1.00
C312   C     2.95674  -2.10490   0.00000   0.00000  Uiso   1.00
C313   C     2.95672  -2.07793   0.00000   0.00000  Uiso   1.00
C314   C     2.93053  -2.07717   0.00000   0.00000  Uiso   1.00
C315   C     3.01024  -2.08572   0.00000   0.00000  Uiso   1.00
C316   C     2.92416  -2.49696   0.00000   0.00000  Uiso   1.00
C317   C     2.95116  -2.49690   0.00000   0.00000  Uiso   1.00
C318   C     2.97811  -2.47069   0.00000   0.00000  Uiso   1.00
C319   C     2.97989  -2.44291   0.00000   0.00000  Uiso   1.00
C320   C     2.95287  -2.44298   0.00000   0.00000  Uiso   1.00
C321   C     2.92594  -2.46919   0.00000   0.00000  Uiso   1.00
C322   C     2.71418  -1.82356   0.00000   0.00000  Uiso   1.00
C323   C     2.73387  -1.85741   0.00000   0.00000  Uiso   1.00
C324   C     2.70696  -1.88445   0.00000   0.00000  Uiso   1.00
C325   C     2.70629  -1.91136   0.00000   0.00000  Uiso   1.00
C326   C     2.73231  -1.91307   0.00000   0.00000  Uiso   1.00
C327   C     2.75924  -1.88604   0.00000   0.00000  Uiso   1.00
C328   C     2.75991  -1.85912   0.00000   0.00000  Uiso   1.00
C329   C     2.75163  -1.94730   0.00000   0.00000  Uiso   1.00
N330   N     2.31434  -2.27117   0.00000   0.00000  Uiso   1.00
N331   N     2.42077  -2.27641   0.00000   0.00000  Uiso   1.00
N332   N     2.56704  -2.43657   0.00000   0.00000  Uiso   1.00
N333   N     2.56119  -2.54852   0.00000   0.00000  Uiso   1.00
N334   N     2.00790  -3.41676   0.00000   0.00000  Uiso   1.00
N335   N     2.06288  -3.27499   0.00000   0.00000  Uiso   1.00
N336   N     2.06785  -3.16380   0.00000   0.00000  Uiso   1.00
N337   N     2.23414  -3.10313   0.00000   0.00000  Uiso   1.00
N338   N     2.22923  -3.21429   0.00000   0.00000  Uiso   1.00
N339   N     2.28895  -2.96137   0.00000   0.00000  Uiso   1.00
N340   N     2.40051  -2.85494   0.00000   0.00000  Uiso   1.00
N341   N     2.54240  -2.76977   0.00000   0.00000  Uiso   1.00
N342   N     2.64780  -2.60365   0.00000   0.00000  Uiso   1.00
N343   N     2.64862  -2.77474   0.00000   0.00000  Uiso   1.00
N344   N     2.75410  -2.60843   0.00000   0.00000  Uiso   1.00
N345   N     2.56254  -2.18927   0.00000   0.00000  Uiso   1.00
N346   N     2.62373  -2.29452   0.00000   0.00000  Uiso   1.00
C347   C     2.09859  -3.34490   0.00000   0.00000  Uiso   1.00
C348   C     2.10191  -3.31626   0.00000   0.00000  Uiso   1.00
C349   C     2.07826  -3.31114   0.00000   0.00000  Uiso   1.00
C350   C     2.04980  -3.33596   0.00000   0.00000  Uiso   1.00
C351   C     2.08442  -3.28069   0.00000   0.00000  Uiso   1.00
C352   C     2.12401  -3.34946   0.00000   0.00000  Uiso   1.00
C353   C     2.12023  -3.37845   0.00000   0.00000  Uiso   1.00
N354   N     2.67374  -2.08303   0.00000   0.00000  Uiso   1.00
N355   N     2.73487  -2.18825   0.00000   0.00000  Uiso   1.00
N356   N     2.87660  -2.10129   0.00000   0.00000  Uiso   1.00
N357   N     2.98278  -2.10691   0.00000   0.00000  Uiso   1.00
N358   N     2.89610  -2.52304   0.00000   0.00000  Uiso   1.00
N359   N     2.73565  -1.82945   0.00000   0.00000  Uiso   1.00
N360   N     2.73039  -1.94110   0.00000   0.00000  Uiso   1.00
loop_
_geom_bond_atom_site_label_1
_geom_bond_atom_site_label_2
_geom_bond_distance
_geom_bond_site_symmetry_2
_ccdc_geom_bond_type
H1     C228    1.100   1_385 S
H2     C269    1.098   1_385 S
H3     C270    1.099   1_385 S
H4     C272    1.098   1_385 S
H5     C273    1.099   1_385 S
H6     C274    1.100   1_385 S
H7     C276    1.094   1_385 S
H8     C278    1.095   1_385 S
H9     C280    1.097   1_385 S
H10    C281    1.100   1_385 S
H11    C283    1.095   1_385 S
H12    C284    1.099   1_385 S
H13    C285    1.095   1_385 S
H14    C287    1.092   1_385 S
H15    C289    1.094   1_385 S
H16    C291    1.097   1_385 S
H17    C293    1.095   1_385 S
C18    C19     1.378   .     D
C18    H48     1.099   1_725 S
C18    C353    1.377   .     S
C19    C20     1.425   .     S
C19    H49     1.095   1_725 S
C20    C21     1.410   .     D
C20    C22     1.461   .     S
C21    H50     1.092   1_725 S
C21    C352    1.411   .     S
C22    C23     1.419   .     S
C22    C27     1.417   .     D
C23    C24     1.390   .     D
C23    H51     1.095   1_725 S
C24    C25     1.400   .     S
C24    C228    1.459   1_545 S
C25    C26     1.400   .     D
C25    H52     1.097   1_725 S
C26    C27     1.390   .     S
C26    C99     1.455   .     S
C27    H53     1.094   1_725 S
C28    C29     1.408   .     D
C28    C33     1.405   .     S
C28    N335    1.412   .     S
C29    C30     1.387   .     S
C29    H54     1.097   1_725 S
C30    C31     1.405   .     D
C30    H55     1.099   1_725 S
C31    C32     1.407   .     S
C31    N336    1.411   .     S
C32    C33     1.386   .     D
C32    H56     1.098   1_725 S
C33    H57     1.099   1_725 S
C34    H58     1.100   1_725 S
C34    C74     1.455   .     S
C34    N336    1.300   .     D
H35    C294    1.100   1_385 S
H36    C295    1.100   1_385 S
H37    C297    1.098   1_385 S
H38    C298    1.099   1_385 S
H39    C300    1.098   1_385 S
H40    C301    1.099   1_385 S
H41    C302    1.100   1_385 S
H42    C305    1.100   1_385 S
H43    C307    1.094   1_385 S
H44    C348    1.095   1_385 S
H45    C350    1.097   1_385 S
H46    C351    1.100   1_385 S
H47    C353    1.095   1_385 S
H48    C18     1.099   1_385 S
H49    C19     1.095   1_385 S
H50    C21     1.092   1_385 S
H51    C23     1.095   1_385 S
H52    C25     1.097   1_385 S
H53    C27     1.094   1_385 S
H54    C29     1.097   1_385 S
H55    C30     1.099   1_385 S
H56    C32     1.098   1_385 S
H57    C33     1.099   1_385 S
H58    C34     1.100   1_385 S
H59    C75     1.094   1_385 S
H60    C77     1.094   1_385 S
H61    C78     1.097   1_385 S
H62    C80     1.092   1_385 S
H63    C82     1.095   1_385 S
H64    C83     1.099   1_385 S
H65    C84     1.095   1_385 S
H66    C86     1.095   1_385 S
H67    C88     1.097   1_385 S
H68    C90     1.094   1_385 S
H69    C91     1.100   1_385 S
H70    C92     1.100   1_385 S
H71    C94     1.098   1_385 S
H72    C95     1.099   1_385 S
H73    C97     1.098   1_385 S
C74    C75     1.390   .     D
C74    C78     1.400   .     S
C75    H59     1.094   1_725 S
C75    C76     1.417   .     S
C76    C77     1.419   .     D
C76    C79     1.461   .     S
C77    H60     1.094   1_725 S
C77    C304    1.389   .     S
C78    H61     1.097   1_725 S
C78    C304    1.400   .     D
C79    C80     1.410   .     D
C79    C84     1.425   .     S
C80    H62     1.092   1_725 S
C80    C81     1.410   .     S
C81    C82     1.425   .     D
C81    C85     1.460   .     S
C82    H63     1.095   1_725 S
C82    C83     1.378   .     S
C83    H64     1.099   1_725 S
C83    C84     1.378   .     D
C84    H65     1.095   1_725 S
C85    C86     1.417   .     D
C85    C90     1.420   .     S
C86    H66     1.095   1_725 S
C86    C87     1.388   .     S
C87    C88     1.400   .     D
C87    C91     1.455   .     S
C88    H67     1.097   1_725 S
C88    C89     1.400   .     S
C89    C90     1.391   .     D
C89    C92     1.458   .     S
C90    H68     1.094   1_725 S
C91    H69     1.100   1_725 S
C91    N337    1.299   .     D
C92    H70     1.100   1_725 S
C92    N339    1.302   .     D
C93    C94     1.408   .     D
C93    C98     1.405   .     S
C93    N337    1.412   .     S
C94    H71     1.098   1_725 S
C94    C95     1.387   .     S
C95    H72     1.099   1_725 S
C95    C96     1.405   .     D
C96    C97     1.407   .     S
C96    N338    1.411   .     S
C97    H73     1.098   1_725 S
C97    C98     1.387   .     D
C98    H113    1.099   1_725 S
C99    H114    1.100   1_725 S
C99    N338    1.300   .     D
C100   C101    1.408   .     D
C100   C105    1.405   .     S
C100   N339    1.415   .     S
C101   C102    1.387   .     S
C101   H115    1.098   1_725 S
C102   C103    1.405   .     D
C102   H116    1.099   1_725 S
C103   C104    1.408   .     S
C103   N340    1.415   .     S
C104   C105    1.388   .     D
C104   H117    1.098   1_725 S
C105   H118    1.099   1_725 S
C106   C107    1.458   .     S
C106   H119    1.100   1_725 S
C106   N340    1.301   .     D
C107   C108    1.400   .     D
C107   C112    1.390   .     S
C108   C109    1.400   .     S
C108   H120    1.097   1_725 S
C109   C110    1.390   .     D
C109   C152    1.455   .     S
C110   C111    1.417   .     S
C110   H121    1.094   1_725 S
C111   C112    1.419   .     D
C111   C153    1.461   .     S
C112   H122    1.094   1_725 S
H113   C98     1.099   1_385 S
H114   C99     1.100   1_385 S
H115   C101    1.098   1_385 S
H116   C102    1.099   1_385 S
H117   C104    1.098   1_385 S
H118   C105    1.099   1_385 S
H119   C106    1.100   1_385 S
H120   C108    1.097   1_385 S
H121   C110    1.094   1_385 S
H122   C112    1.094   1_385 S
H123   C152    1.100   1_385 S
H124   C154    1.091   1_385 S
H125   C156    1.095   1_385 S
H126   C157    1.099   1_385 S
H127   C158    1.095   1_385 S
H128   C160    1.095   1_385 S
H129   C162    1.097   1_385 S
H130   C163    1.094   1_385 S
H131   C164    1.100   1_385 S
H132   C167    1.098   1_385 S
H133   C168    1.099   1_385 S
H134   C170    1.098   1_385 S
H135   C171    1.100   1_385 S
H136   C172    1.098   1_385 S
H137   C173    1.099   1_385 S
H138   C175    1.098   1_385 S
H139   C176    1.099   1_385 S
H140   C177    1.099   1_385 S
H141   C179    1.100   1_385 S
H142   C181    1.097   1_385 S
H143   C183    1.094   1_385 S
H144   C185    1.095   1_385 S
H145   C186    1.094   1_385 S
H146   C188    1.095   1_385 S
H147   C190    1.097   1_385 S
H148   C232    1.096   1_385 S
H149   C233    1.099   1_385 S
H150   C234    1.095   1_385 S
H151   C235    1.092   1_385 S
C152   H123    1.100   1_725 S
C152   N341    1.300   .     D
C153   C154    1.410   .     D
C153   C158    1.425   .     S
C154   H124    1.091   1_725 S
C154   C155    1.411   .     S
C155   C156    1.424   .     D
C155   C159    1.460   .     S
C156   H125    1.095   1_725 S
C156   C157    1.378   .     S
C157   H126    1.099   1_725 S
C157   C158    1.378   .     D
C158   H127    1.095   1_725 S
C159   C160    1.416   .     D
C159   C163    1.420   .     S
C160   H128    1.095   1_725 S
C160   C161    1.387   .     S
C161   C162    1.400   .     D
C161   C164    1.455   .     S
C162   H129    1.097   1_725 S
C162   C303    1.400   .     S
C163   H130    1.094   1_725 S
C163   C303    1.391   .     D
C164   H131    1.100   1_725 S
C164   N342    1.299   .     D
C165   C167    1.407   .     D
C165   C171    1.405   .     S
C165   N341    1.411   .     S
C166   C172    1.408   .     D
C166   C176    1.405   .     S
C166   N342    1.412   .     S
C167   H132    1.098   1_725 S
C167   C168    1.386   .     S
C168   H133    1.099   1_725 S
C168   C169    1.405   .     D
C169   C170    1.408   .     S
C169   N343    1.412   .     S
C170   H134    1.098   1_725 S
C170   C171    1.386   .     D
C171   H135    1.100   1_725 S
C172   H136    1.098   1_725 S
C172   C173    1.386   .     S
C173   H137    1.099   1_725 S
C173   C174    1.405   .     D
C174   C175    1.408   .     S
C174   N344    1.411   .     S
C175   H138    1.098   1_725 S
C175   C176    1.386   .     D
C176   H139    1.099   1_725 S
C177   H140    1.099   1_725 S
C177   C178    1.455   .     S
C177   N344    1.300   .     D
C178   C186    1.390   .     D
C178   C190    1.400   .     S
C179   H141    1.100   1_725 S
C179   C180    1.455   .     S
C179   N343    1.299   .     D
C180   C181    1.400   .     S
C180   C185    1.388   .     D
C181   H142    1.097   1_725 S
C181   C182    1.400   .     D
C182   C183    1.391   .     S
C182   C322    1.458   1_545 S
C183   H143    1.094   1_725 S
C183   C184    1.421   .     D
C184   C185    1.416   .     S
C184   C230    1.460   .     S
C185   H144    1.095   1_725 S
C186   H145    1.094   1_725 S
C186   C187    1.417   .     S
C187   C188    1.420   .     D
C187   C231    1.461   .     S
C188   H146    1.095   1_725 S
C188   C189    1.390   .     S
C189   C190    1.400   .     D
C189   C236    1.458   .     S
C190   H147    1.097   1_725 S
H191   C236    1.100   1_385 S
H192   C239    1.098   1_385 S
H193   C240    1.099   1_385 S
H194   C242    1.098   1_385 S
H195   C243    1.099   1_385 S
H196   C244    1.098   1_385 S
H197   C245    1.099   1_385 S
H198   C247    1.098   1_385 S
H199   C248    1.100   1_385 S
H200   C249    1.100   1_385 S
H201   C250    1.100   1_385 S
H202   C253    1.094   1_385 S
H203   C255    1.094   1_385 S
H204   C257    1.097   1_385 S
H205   C258    1.097   1_385 S
H206   C260    1.094   1_385 S
H207   C262    1.095   1_385 S
H208   C265    1.095   1_385 S
H209   C266    1.099   1_385 S
H210   C267    1.095   1_385 S
H211   C268    1.092   1_385 S
H212   C308    1.100   1_385 S
H213   C310    1.098   1_385 S
H214   C311    1.099   1_385 S
H215   C313    1.098   1_385 S
H216   C314    1.099   1_385 S
H217   C315    1.100   1_385 S
H218   C317    1.098   1_385 S
H219   C318    1.099   1_385 S
H220   C320    1.098   1_385 S
H221   C321    1.099   1_385 S
H222   C322    1.100   1_385 S
H223   C324    1.098   1_385 S
H224   C325    1.099   1_385 S
H225   C327    1.098   1_385 S
H226   C328    1.099   1_385 S
H227   C329    1.100   1_385 S
C228   H1      1.100   1_725 S
C228   C24     1.459   1_565 S
C228   N330    1.301   .     D
C229   C269    1.408   .     D
C229   C273    1.405   .     S
C229   N330    1.416   .     S
C230   C232    1.424   .     S
C230   C235    1.411   .     D
C231   C234    1.425   .     D
C231   C235    1.411   .     S
C232   H148    1.096   1_725 S
C232   C233    1.378   .     D
C233   H149    1.099   1_725 S
C233   C234    1.378   .     S
C234   H150    1.095   1_725 S
C235   H151    1.092   1_725 S
C236   H191    1.100   1_725 S
C236   N358    1.302   .     D
C237   C239    1.408   .     D
C237   C243    1.405   .     S
C237   N345    1.412   .     S
C238   C244    1.407   .     D
C238   C248    1.405   .     S
C238   N346    1.411   .     S
C239   H192    1.098   1_725 S
C239   C240    1.386   .     S
C240   H193    1.099   1_725 S
C240   C241    1.405   .     D
C241   C242    1.407   .     S
C241   N354    1.411   .     S
C242   H194    1.098   1_725 S
C242   C243    1.386   .     D
C243   H195    1.099   1_725 S
C244   H196    1.098   1_725 S
C244   C245    1.386   .     S
C245   H197    1.099   1_725 S
C245   C246    1.405   .     D
C246   C247    1.408   .     S
C246   N355    1.412   .     S
C247   H198    1.098   1_725 S
C247   C248    1.387   .     D
C248   H199    1.100   1_725 S
C249   H200    1.100   1_725 S
C249   C252    1.455   .     S
C249   N354    1.300   .     D
C250   H201    1.100   1_725 S
C250   C251    1.455   .     S
C250   N355    1.299   .     D
C251   C258    1.400   .     D
C251   C262    1.387   .     S
C252   C253    1.390   .     D
C252   C257    1.400   .     S
C253   H202    1.094   1_725 S
C253   C254    1.417   .     S
C254   C255    1.419   .     D
C254   C263    1.461   .     S
C255   H203    1.094   1_725 S
C255   C256    1.389   .     S
C256   C257    1.400   .     D
C256   C329    1.458   .     S
C257   H204    1.097   1_725 S
C258   H205    1.097   1_725 S
C258   C259    1.400   .     S
C259   C260    1.391   .     D
C259   C308    1.458   .     S
C260   H206    1.094   1_725 S
C260   C261    1.420   .     S
C261   C262    1.417   .     D
C261   C264    1.460   .     S
C262   H207    1.095   1_725 S
C263   C267    1.425   .     D
C263   C268    1.410   .     S
C264   C265    1.424   .     S
C264   C268    1.411   .     D
C265   H208    1.095   1_725 S
C265   C266    1.378   .     D
C266   H209    1.099   1_725 S
C266   C267    1.378   .     S
C267   H210    1.095   1_725 S
C268   H211    1.092   1_725 S
C269   H2      1.098   1_725 S
C269   C270    1.388   .     S
C270   H3      1.099   1_725 S
C270   C271    1.406   .     D
C271   C272    1.408   .     S
C271   N331    1.416   .     S
C272   H4      1.098   1_725 S
C272   C273    1.387   .     D
C273   H5      1.099   1_725 S
C274   H6      1.100   1_725 S
C274   C275    1.458   .     S
C274   N331    1.302   .     D
C275   C276    1.391   .     D
C275   C280    1.400   .     S
C276   H7      1.094   1_725 S
C276   C277    1.420   .     S
C277   C278    1.416   .     D
C277   C282    1.461   .     S
C278   H8      1.095   1_725 S
C278   C279    1.388   .     S
C279   C280    1.400   .     D
C279   C281    1.455   .     S
C280   H9      1.097   1_725 S
C281   H10     1.100   1_725 S
C281   N345    1.299   .     D
C282   C283    1.424   .     D
C282   C287    1.411   .     S
C283   H11     1.095   1_725 S
C283   C284    1.378   .     S
C284   H12     1.099   1_725 S
C284   C285    1.378   .     D
C285   H13     1.095   1_725 S
C285   C286    1.425   .     S
C286   C287    1.410   .     D
C286   C288    1.461   .     S
C287   H14     1.092   1_725 S
C288   C289    1.419   .     D
C288   C293    1.417   .     S
C289   H15     1.094   1_725 S
C289   C290    1.390   .     S
C290   C291    1.400   .     D
C290   C295    1.458   .     S
C291   H16     1.097   1_725 S
C291   C292    1.400   .     S
C292   C293    1.390   .     D
C292   C294    1.455   .     S
C293   H17     1.095   1_725 S
C294   H35     1.100   1_725 S
C294   N346    1.300   .     D
C295   H36     1.100   1_725 S
C295   N332    1.301   .     D
C296   C297    1.408   .     D
C296   C301    1.405   .     S
C296   N332    1.416   .     S
C297   H37     1.098   1_725 S
C297   C298    1.388   .     S
C298   H38     1.099   1_725 S
C298   C299    1.406   .     D
C299   C300    1.408   .     S
C299   N333    1.416   .     S
C300   H39     1.098   1_725 S
C300   C301    1.388   .     D
C301   H40     1.099   1_725 S
C302   H41     1.100   1_725 S
C302   C303    1.458   .     S
C302   N333    1.302   .     D
C304   C315    1.458   1_445 S
C305   H42     1.100   1_725 S
C305   C306    1.458   .     S
C305   N334    1.302   .     D
C306   C307    1.391   .     D
C306   C350    1.400   .     S
C307   H43     1.094   1_725 S
C307   C347    1.420   .     S
C308   H212    1.100   1_725 S
C308   N356    1.302   .     D
C309   C310    1.408   .     D
C309   C314    1.406   .     S
C309   N356    1.416   .     S
C310   H213    1.098   1_725 S
C310   C311    1.387   .     S
C311   H214    1.099   1_725 S
C311   C312    1.405   .     D
C312   C313    1.408   .     S
C312   N357    1.415   .     S
C313   H215    1.098   1_725 S
C313   C314    1.388   .     D
C314   H216    1.099   1_725 S
C315   C304    1.458   1_665 S
C315   H217    1.100   1_725 S
C315   N357    1.301   .     D
C316   C317    1.408   .     S
C316   C321    1.405   .     D
C316   N358    1.416   .     S
C317   H218    1.098   1_725 S
C317   C318    1.388   .     D
C318   H219    1.099   1_725 S
C318   C319    1.406   .     S
C319   C320    1.408   .     D
C319   N334    1.416   1_665 S
C320   H220    1.098   1_725 S
C320   C321    1.387   .     S
C321   H221    1.099   1_725 S
C322   H222    1.100   1_725 S
C322   C182    1.458   1_565 S
C322   N359    1.302   .     D
C323   C324    1.408   .     D
C323   C328    1.406   .     S
C323   N359    1.415   .     S
C324   H223    1.098   1_725 S
C324   C325    1.388   .     S
C325   H224    1.099   1_725 S
C325   C326    1.405   .     D
C326   C327    1.408   .     S
C326   N360    1.416   .     S
C327   H225    1.098   1_725 S
C327   C328    1.388   .     D
C328   H226    1.099   1_725 S
C329   H227    1.100   1_725 S
C329   N360    1.301   .     D
N334   C319    1.416   1_445 S
N335   C351    1.299   .     D
C347   C348    1.416   .     D
C347   C352    1.461   .     S
C348   H44     1.095   1_725 S
C348   C349    1.387   .     S
C349   C350    1.400   .     D
C349   C351    1.456   .     S
C350   H45     1.097   1_725 S
C351   H46     1.100   1_725 S
C352   C353    1.425   .     D
C353   H47     1.095   1_725 S
