data_55
_audit_creation_date              2023-09-08
_audit_creation_method            'Materials Studio'
_symmetry_space_group_name_H-M    'P1'
_symmetry_Int_Tables_number       1
_symmetry_cell_setting            triclinic
loop_
_symmetry_equiv_pos_as_xyz
  x,y,z
_cell_length_a                    6.9100
_cell_length_b                    45.2700
_cell_length_c                    42.6600
_cell_angle_alpha                 90.0000
_cell_angle_beta                  90.0000
_cell_angle_gamma                 90.0000
loop_
_atom_site_label
_atom_site_type_symbol
_atom_site_fract_x
_atom_site_fract_y
_atom_site_fract_z
_atom_site_U_iso_or_equiv
_atom_site_adp_type
_atom_site_occupancy
N1     N     0.75000   0.27844   0.26805   0.00000  Uiso   1.00
N2     N     0.75000   0.28377   0.21494   0.00000  Uiso   1.00
N3     N     0.75000   0.22334   0.69879   0.00000  Uiso   1.00
N4     N     0.75000   0.21802   0.75191   0.00000  Uiso   1.00
N5     N     0.75000   0.06240   0.73602   0.00000  Uiso   1.00
N6     N     0.75000   0.43738   0.27991   0.00000  Uiso   1.00
N7     N     0.75000   0.25956   0.54883   0.00000  Uiso   1.00
N8     N     0.75000   0.23296   0.04702   0.00000  Uiso   1.00
N9     N     0.75000   0.26876   0.91977   0.00000  Uiso   1.00
N10    N     0.75000   0.24247   0.41786   0.00000  Uiso   1.00
C11    C     0.75000   0.25005   0.25389   0.00000  Uiso   1.00
C12    C     0.75000   0.22232   0.26848   0.00000  Uiso   1.00
C13    C     0.75000   0.19741   0.24852   0.00000  Uiso   1.00
C14    C     0.75000   0.25326   0.22232   0.00000  Uiso   1.00
C15    C     0.75000   0.22921   0.20170   0.00000  Uiso   1.00
C16    C     0.75000   0.20082   0.21549   0.00000  Uiso   1.00
C17    C     0.75000   0.29709   0.24330   0.00000  Uiso   1.00
C18    C     0.75000   0.25173   0.71295   0.00000  Uiso   1.00
C19    C     0.75000   0.27945   0.69834   0.00000  Uiso   1.00
C20    C     0.75000   0.24853   0.74452   0.00000  Uiso   1.00
C21    C     0.75000   0.30098   0.75134   0.00000  Uiso   1.00
C22    C     0.75000   0.03092   0.73504   0.00000  Uiso   1.00
C23    C     0.75000   0.20470   0.72355   0.00000  Uiso   1.00
C24    C     0.75000   0.27260   0.76513   0.00000  Uiso   1.00
C25    C     0.75000   0.30437   0.71831   0.00000  Uiso   1.00
C26    C     0.75000   0.21969   0.30318   0.00000  Uiso   1.00
C27    C     0.75000   0.28208   0.66361   0.00000  Uiso   1.00
C28    C     0.75000   0.28470   0.56340   0.00000  Uiso   1.00
C29    C     0.75000   0.26807   0.79965   0.00000  Uiso   1.00
C30    C     0.75000   0.23374   0.16717   0.00000  Uiso   1.00
C31    C     0.75000   0.17257   0.72013   0.00000  Uiso   1.00
C32    C     0.75000   0.32922   0.24671   0.00000  Uiso   1.00
C33    C     0.75000   0.34235   0.27647   0.00000  Uiso   1.00
C34    C     0.75000   0.37310   0.27928   0.00000  Uiso   1.00
C35    C     0.75000   0.39071   0.25227   0.00000  Uiso   1.00
C36    C     0.75000   0.37759   0.22268   0.00000  Uiso   1.00
C37    C     0.75000   0.34697   0.21989   0.00000  Uiso   1.00
C38    C     0.75000   0.42283   0.25377   0.00000  Uiso   1.00
C39    C     0.75000   0.25577   0.51571   0.00000  Uiso   1.00
C40    C     0.75000   0.22700   0.50379   0.00000  Uiso   1.00
C41    C     0.75000   0.22219   0.47152   0.00000  Uiso   1.00
C42    C     0.75000   0.24631   0.45097   0.00000  Uiso   1.00
C43    C     0.75000   0.27509   0.46289   0.00000  Uiso   1.00
C44    C     0.75000   0.27990   0.49517   0.00000  Uiso   1.00
C45    C     0.75000   0.24216   0.01495   0.00000  Uiso   1.00
C46    C     0.75000   0.22081   0.99140   0.00000  Uiso   1.00
C47    C     0.75000   0.22941   0.96002   0.00000  Uiso   1.00
C48    C     0.75000   0.25955   0.95183   0.00000  Uiso   1.00
C49    C     0.75000   0.28089   0.97538   0.00000  Uiso   1.00
C50    C     0.75000   0.27229   0.00676   0.00000  Uiso   1.00
C51    C     0.75000   0.24461   0.10235   0.00000  Uiso   1.00
C52    C     0.75000   0.15480   0.74693   0.00000  Uiso   1.00
C53    C     0.75000   0.12419   0.74408   0.00000  Uiso   1.00
C54    C     0.75000   0.11105   0.71436   0.00000  Uiso   1.00
C55    C     0.75000   0.12873   0.68751   0.00000  Uiso   1.00
C56    C     0.75000   0.15947   0.69037   0.00000  Uiso   1.00
C57    C     0.75000   0.07893   0.71126   0.00000  Uiso   1.00
C58    C     0.75000   0.21001   0.14591   0.00000  Uiso   1.00
C59    C     0.75000   0.21542   0.11349   0.00000  Uiso   1.00
C60    C     0.75000   0.26801   0.12330   0.00000  Uiso   1.00
C61    C     0.75000   0.26257   0.15519   0.00000  Uiso   1.00
C62    C     0.75000   0.29180   0.82090   0.00000  Uiso   1.00
C63    C     0.75000   0.28637   0.85332   0.00000  Uiso   1.00
C64    C     0.75000   0.25716   0.86444   0.00000  Uiso   1.00
C65    C     0.75000   0.23378   0.84349   0.00000  Uiso   1.00
C66    C     0.75000   0.23924   0.81161   0.00000  Uiso   1.00
C67    C     0.75000   0.24943   0.89752   0.00000  Uiso   1.00
C68    C     0.75000   0.25231   0.06926   0.00000  Uiso   1.00
C69    C     0.75000   0.19225   0.31864   0.00000  Uiso   1.00
C70    C     0.75000   0.19107   0.35159   0.00000  Uiso   1.00
C71    C     0.75000   0.21732   0.36906   0.00000  Uiso   1.00
C72    C     0.75000   0.24441   0.35358   0.00000  Uiso   1.00
C73    C     0.75000   0.24545   0.32129   0.00000  Uiso   1.00
C74    C     0.75000   0.21729   0.40336   0.00000  Uiso   1.00
C75    C     0.75000   0.30953   0.64817   0.00000  Uiso   1.00
C76    C     0.75000   0.31076   0.61523   0.00000  Uiso   1.00
C77    C     0.75000   0.28455   0.59770   0.00000  Uiso   1.00
C78    C     0.75000   0.25743   0.61314   0.00000  Uiso   1.00
C79    C     0.75000   0.25634   0.64546   0.00000  Uiso   1.00
C80    C     0.75000   0.46899   0.27984   0.00000  Uiso   1.00
C81    C     0.75000   0.48452   0.30823   0.00000  Uiso   1.00
C82    C     0.75000   0.48468   0.25149   0.00000  Uiso   1.00
C83    C     0.75000   0.01541   0.70654   0.00000  Uiso   1.00
C84    C     0.75000   0.01539   0.76332   0.00000  Uiso   1.00
H85    H     0.75000   0.28050   0.29398   0.00000  Uiso   1.00
H86    H     0.75000   0.21079   0.77677   0.00000  Uiso   1.00
H87    H     0.75000   0.17422   0.25893   0.00000  Uiso   1.00
H88    H     0.75000   0.18051   0.19968   0.00000  Uiso   1.00
H89    H     0.75000   0.32151   0.76682   0.00000  Uiso   1.00
H90    H     0.75000   0.32756   0.70789   0.00000  Uiso   1.00
H91    H     0.75000   0.30620   0.54949   0.00000  Uiso   1.00
H92    H     0.75000   0.32794   0.29839   0.00000  Uiso   1.00
H93    H     0.75000   0.38378   0.30348   0.00000  Uiso   1.00
H94    H     0.75000   0.39196   0.20074   0.00000  Uiso   1.00
H95    H     0.75000   0.33636   0.19565   0.00000  Uiso   1.00
H96    H     0.75000   0.43520   0.23049   0.00000  Uiso   1.00
H97    H     0.75000   0.20734   0.52048   0.00000  Uiso   1.00
H98    H     0.75000   0.19869   0.46193   0.00000  Uiso   1.00
H99    H     0.75000   0.29475   0.44619   0.00000  Uiso   1.00
H100   H     0.75000   0.30336   0.50486   0.00000  Uiso   1.00
H101   H     0.75000   0.19637   0.99781   0.00000  Uiso   1.00
H102   H     0.75000   0.21199   0.94073   0.00000  Uiso   1.00
H103   H     0.75000   0.30534   0.96897   0.00000  Uiso   1.00
H104   H     0.75000   0.28990   0.02586   0.00000  Uiso   1.00
H105   H     0.75000   0.16538   0.77118   0.00000  Uiso   1.00
H106   H     0.75000   0.10974   0.76597   0.00000  Uiso   1.00
H107   H     0.75000   0.11807   0.66330   0.00000  Uiso   1.00
H108   H     0.75000   0.17390   0.66847   0.00000  Uiso   1.00
H109   H     0.75000   0.06841   0.68698   0.00000  Uiso   1.00
H110   H     0.75000   0.18632   0.15498   0.00000  Uiso   1.00
H111   H     0.75000   0.19619   0.09623   0.00000  Uiso   1.00
H112   H     0.75000   0.29170   0.11422   0.00000  Uiso   1.00
H113   H     0.75000   0.28225   0.17188   0.00000  Uiso   1.00
H114   H     0.75000   0.31549   0.81183   0.00000  Uiso   1.00
H115   H     0.75000   0.30564   0.87053   0.00000  Uiso   1.00
H116   H     0.75000   0.21009   0.85255   0.00000  Uiso   1.00
H117   H     0.75000   0.21957   0.79492   0.00000  Uiso   1.00
H118   H     0.75000   0.22487   0.90338   0.00000  Uiso   1.00
H119   H     0.75000   0.27687   0.06338   0.00000  Uiso   1.00
H120   H     0.75000   0.17090   0.30447   0.00000  Uiso   1.00
H121   H     0.75000   0.16880   0.36406   0.00000  Uiso   1.00
H122   H     0.75000   0.26583   0.36763   0.00000  Uiso   1.00
H123   H     0.75000   0.26798   0.30937   0.00000  Uiso   1.00
H124   H     0.75000   0.19582   0.41734   0.00000  Uiso   1.00
H125   H     0.75000   0.33087   0.66237   0.00000  Uiso   1.00
H126   H     0.75000   0.33305   0.60279   0.00000  Uiso   1.00
H127   H     0.75000   0.23603   0.59905   0.00000  Uiso   1.00
H128   H     0.75000   0.23378   0.65733   0.00000  Uiso   1.00
H129   H     0.75000   0.47199   0.33140   0.00000  Uiso   1.00
H130   H     0.75000   0.47226   0.22824   0.00000  Uiso   1.00
H131   H     0.75000   0.02799   0.68340   0.00000  Uiso   1.00
H132   H     0.75000   0.02790   0.78652   0.00000  Uiso   1.00
N133   N     0.75000   0.72156   0.26805   0.00000  Uiso   1.00
N134   N     0.75000   0.71623   0.21494   0.00000  Uiso   1.00
N135   N     0.75000   0.77666   0.69879   0.00000  Uiso   1.00
N136   N     0.75000   0.78198   0.75191   0.00000  Uiso   1.00
N137   N     0.75000   0.93760   0.73602   0.00000  Uiso   1.00
N138   N     0.75000   0.56262   0.27991   0.00000  Uiso   1.00
N139   N     0.75000   0.74044   0.54883   0.00000  Uiso   1.00
N140   N     0.75000   0.76704   0.04702   0.00000  Uiso   1.00
N141   N     0.75000   0.73124   0.91977   0.00000  Uiso   1.00
N142   N     0.75000   0.75753   0.41786   0.00000  Uiso   1.00
C143   C     0.75000   0.74995   0.25389   0.00000  Uiso   1.00
C144   C     0.75000   0.77768   0.26848   0.00000  Uiso   1.00
C145   C     0.75000   0.80259   0.24852   0.00000  Uiso   1.00
C146   C     0.75000   0.74674   0.22232   0.00000  Uiso   1.00
C147   C     0.75000   0.77079   0.20170   0.00000  Uiso   1.00
C148   C     0.75000   0.79918   0.21549   0.00000  Uiso   1.00
C149   C     0.75000   0.70291   0.24330   0.00000  Uiso   1.00
C150   C     0.75000   0.74827   0.71295   0.00000  Uiso   1.00
C151   C     0.75000   0.72055   0.69834   0.00000  Uiso   1.00
C152   C     0.75000   0.75147   0.74452   0.00000  Uiso   1.00
C153   C     0.75000   0.69902   0.75134   0.00000  Uiso   1.00
C154   C     0.75000   0.96908   0.73504   0.00000  Uiso   1.00
C155   C     0.75000   0.79530   0.72355   0.00000  Uiso   1.00
C156   C     0.75000   0.72740   0.76513   0.00000  Uiso   1.00
C157   C     0.75000   0.69563   0.71831   0.00000  Uiso   1.00
C158   C     0.75000   0.78031   0.30318   0.00000  Uiso   1.00
C159   C     0.75000   0.71792   0.66361   0.00000  Uiso   1.00
C160   C     0.75000   0.71530   0.56340   0.00000  Uiso   1.00
C161   C     0.75000   0.73193   0.79965   0.00000  Uiso   1.00
C162   C     0.75000   0.76626   0.16717   0.00000  Uiso   1.00
C163   C     0.75000   0.82743   0.72013   0.00000  Uiso   1.00
C164   C     0.75000   0.67078   0.24671   0.00000  Uiso   1.00
C165   C     0.75000   0.65765   0.27647   0.00000  Uiso   1.00
C166   C     0.75000   0.62690   0.27928   0.00000  Uiso   1.00
C167   C     0.75000   0.60929   0.25227   0.00000  Uiso   1.00
C168   C     0.75000   0.62241   0.22268   0.00000  Uiso   1.00
C169   C     0.75000   0.65303   0.21989   0.00000  Uiso   1.00
C170   C     0.75000   0.57717   0.25377   0.00000  Uiso   1.00
C171   C     0.75000   0.74423   0.51571   0.00000  Uiso   1.00
C172   C     0.75000   0.77300   0.50379   0.00000  Uiso   1.00
C173   C     0.75000   0.77781   0.47152   0.00000  Uiso   1.00
C174   C     0.75000   0.75369   0.45097   0.00000  Uiso   1.00
C175   C     0.75000   0.72491   0.46289   0.00000  Uiso   1.00
C176   C     0.75000   0.72010   0.49517   0.00000  Uiso   1.00
C177   C     0.75000   0.75784   0.01495   0.00000  Uiso   1.00
C178   C     0.75000   0.77919   0.99140   0.00000  Uiso   1.00
C179   C     0.75000   0.77059   0.96002   0.00000  Uiso   1.00
C180   C     0.75000   0.74045   0.95183   0.00000  Uiso   1.00
C181   C     0.75000   0.71911   0.97538   0.00000  Uiso   1.00
C182   C     0.75000   0.72771   0.00676   0.00000  Uiso   1.00
C183   C     0.75000   0.75539   0.10235   0.00000  Uiso   1.00
C184   C     0.75000   0.84520   0.74693   0.00000  Uiso   1.00
C185   C     0.75000   0.87581   0.74408   0.00000  Uiso   1.00
C186   C     0.75000   0.88895   0.71436   0.00000  Uiso   1.00
C187   C     0.75000   0.87127   0.68751   0.00000  Uiso   1.00
C188   C     0.75000   0.84053   0.69037   0.00000  Uiso   1.00
C189   C     0.75000   0.92107   0.71126   0.00000  Uiso   1.00
C190   C     0.75000   0.78999   0.14591   0.00000  Uiso   1.00
C191   C     0.75000   0.78458   0.11349   0.00000  Uiso   1.00
C192   C     0.75000   0.73199   0.12330   0.00000  Uiso   1.00
C193   C     0.75000   0.73743   0.15519   0.00000  Uiso   1.00
C194   C     0.75000   0.70820   0.82090   0.00000  Uiso   1.00
C195   C     0.75000   0.71363   0.85332   0.00000  Uiso   1.00
C196   C     0.75000   0.74284   0.86444   0.00000  Uiso   1.00
C197   C     0.75000   0.76622   0.84349   0.00000  Uiso   1.00
C198   C     0.75000   0.76076   0.81161   0.00000  Uiso   1.00
C199   C     0.75000   0.75057   0.89752   0.00000  Uiso   1.00
C200   C     0.75000   0.74769   0.06926   0.00000  Uiso   1.00
C201   C     0.75000   0.80775   0.31864   0.00000  Uiso   1.00
C202   C     0.75000   0.80893   0.35159   0.00000  Uiso   1.00
C203   C     0.75000   0.78268   0.36906   0.00000  Uiso   1.00
C204   C     0.75000   0.75559   0.35358   0.00000  Uiso   1.00
C205   C     0.75000   0.75455   0.32129   0.00000  Uiso   1.00
C206   C     0.75000   0.78271   0.40336   0.00000  Uiso   1.00
C207   C     0.75000   0.69047   0.64817   0.00000  Uiso   1.00
C208   C     0.75000   0.68924   0.61523   0.00000  Uiso   1.00
C209   C     0.75000   0.71545   0.59770   0.00000  Uiso   1.00
C210   C     0.75000   0.74257   0.61314   0.00000  Uiso   1.00
C211   C     0.75000   0.74366   0.64546   0.00000  Uiso   1.00
C212   C     0.75000   0.53101   0.27984   0.00000  Uiso   1.00
C213   C     0.75000   0.51548   0.30823   0.00000  Uiso   1.00
C214   C     0.75000   0.51532   0.25149   0.00000  Uiso   1.00
C215   C     0.75000   0.98459   0.70654   0.00000  Uiso   1.00
C216   C     0.75000   0.98461   0.76332   0.00000  Uiso   1.00
H217   H     0.75000   0.71950   0.29398   0.00000  Uiso   1.00
H218   H     0.75000   0.78921   0.77677   0.00000  Uiso   1.00
H219   H     0.75000   0.82578   0.25893   0.00000  Uiso   1.00
H220   H     0.75000   0.81949   0.19968   0.00000  Uiso   1.00
H221   H     0.75000   0.67849   0.76682   0.00000  Uiso   1.00
H222   H     0.75000   0.67244   0.70789   0.00000  Uiso   1.00
H223   H     0.75000   0.69380   0.54949   0.00000  Uiso   1.00
H224   H     0.75000   0.67206   0.29839   0.00000  Uiso   1.00
H225   H     0.75000   0.61622   0.30348   0.00000  Uiso   1.00
H226   H     0.75000   0.60804   0.20074   0.00000  Uiso   1.00
H227   H     0.75000   0.66364   0.19565   0.00000  Uiso   1.00
H228   H     0.75000   0.56480   0.23049   0.00000  Uiso   1.00
H229   H     0.75000   0.79266   0.52048   0.00000  Uiso   1.00
H230   H     0.75000   0.80131   0.46193   0.00000  Uiso   1.00
H231   H     0.75000   0.70525   0.44619   0.00000  Uiso   1.00
H232   H     0.75000   0.69664   0.50486   0.00000  Uiso   1.00
H233   H     0.75000   0.80363   0.99781   0.00000  Uiso   1.00
H234   H     0.75000   0.78801   0.94073   0.00000  Uiso   1.00
H235   H     0.75000   0.69466   0.96897   0.00000  Uiso   1.00
H236   H     0.75000   0.71010   0.02586   0.00000  Uiso   1.00
H237   H     0.75000   0.83462   0.77118   0.00000  Uiso   1.00
H238   H     0.75000   0.89026   0.76597   0.00000  Uiso   1.00
H239   H     0.75000   0.88193   0.66330   0.00000  Uiso   1.00
H240   H     0.75000   0.82610   0.66847   0.00000  Uiso   1.00
H241   H     0.75000   0.93159   0.68698   0.00000  Uiso   1.00
H242   H     0.75000   0.81368   0.15498   0.00000  Uiso   1.00
H243   H     0.75000   0.80381   0.09623   0.00000  Uiso   1.00
H244   H     0.75000   0.70830   0.11422   0.00000  Uiso   1.00
H245   H     0.75000   0.71775   0.17188   0.00000  Uiso   1.00
H246   H     0.75000   0.68451   0.81183   0.00000  Uiso   1.00
H247   H     0.75000   0.69436   0.87053   0.00000  Uiso   1.00
H248   H     0.75000   0.78991   0.85255   0.00000  Uiso   1.00
H249   H     0.75000   0.78043   0.79492   0.00000  Uiso   1.00
H250   H     0.75000   0.77513   0.90338   0.00000  Uiso   1.00
H251   H     0.75000   0.72313   0.06338   0.00000  Uiso   1.00
H252   H     0.75000   0.82910   0.30447   0.00000  Uiso   1.00
H253   H     0.75000   0.83120   0.36406   0.00000  Uiso   1.00
H254   H     0.75000   0.73417   0.36763   0.00000  Uiso   1.00
H255   H     0.75000   0.73202   0.30937   0.00000  Uiso   1.00
H256   H     0.75000   0.80418   0.41734   0.00000  Uiso   1.00
H257   H     0.75000   0.66913   0.66237   0.00000  Uiso   1.00
H258   H     0.75000   0.66695   0.60279   0.00000  Uiso   1.00
H259   H     0.75000   0.76397   0.59905   0.00000  Uiso   1.00
H260   H     0.75000   0.76622   0.65733   0.00000  Uiso   1.00
H261   H     0.75000   0.52801   0.33140   0.00000  Uiso   1.00
H262   H     0.75000   0.52774   0.22824   0.00000  Uiso   1.00
H263   H     0.75000   0.97201   0.68340   0.00000  Uiso   1.00
H264   H     0.75000   0.97210   0.78652   0.00000  Uiso   1.00
N265   N     0.25000   0.27844   0.73195   0.00000  Uiso   1.00
N266   N     0.25000   0.28377   0.78506   0.00000  Uiso   1.00
N267   N     0.25000   0.22334   0.30121   0.00000  Uiso   1.00
N268   N     0.25000   0.21802   0.24809   0.00000  Uiso   1.00
N269   N     0.25000   0.06240   0.26398   0.00000  Uiso   1.00
N270   N     0.25000   0.43738   0.72009   0.00000  Uiso   1.00
N271   N     0.25000   0.25956   0.45117   0.00000  Uiso   1.00
N272   N     0.25000   0.23296   0.95298   0.00000  Uiso   1.00
N273   N     0.25000   0.26876   0.08023   0.00000  Uiso   1.00
N274   N     0.25000   0.24247   0.58214   0.00000  Uiso   1.00
C275   C     0.25000   0.25005   0.74611   0.00000  Uiso   1.00
C276   C     0.25000   0.22232   0.73152   0.00000  Uiso   1.00
C277   C     0.25000   0.19741   0.75148   0.00000  Uiso   1.00
C278   C     0.25000   0.25326   0.77768   0.00000  Uiso   1.00
C279   C     0.25000   0.22921   0.79830   0.00000  Uiso   1.00
C280   C     0.25000   0.20082   0.78451   0.00000  Uiso   1.00
C281   C     0.25000   0.29709   0.75670   0.00000  Uiso   1.00
C282   C     0.25000   0.25173   0.28705   0.00000  Uiso   1.00
C283   C     0.25000   0.27945   0.30166   0.00000  Uiso   1.00
C284   C     0.25000   0.24853   0.25548   0.00000  Uiso   1.00
C285   C     0.25000   0.30098   0.24866   0.00000  Uiso   1.00
C286   C     0.25000   0.03092   0.26496   0.00000  Uiso   1.00
C287   C     0.25000   0.20470   0.27645   0.00000  Uiso   1.00
C288   C     0.25000   0.27260   0.23487   0.00000  Uiso   1.00
C289   C     0.25000   0.30437   0.28169   0.00000  Uiso   1.00
C290   C     0.25000   0.21969   0.69682   0.00000  Uiso   1.00
C291   C     0.25000   0.28208   0.33639   0.00000  Uiso   1.00
C292   C     0.25000   0.28470   0.43660   0.00000  Uiso   1.00
C293   C     0.25000   0.26807   0.20035   0.00000  Uiso   1.00
C294   C     0.25000   0.23374   0.83283   0.00000  Uiso   1.00
C295   C     0.25000   0.17257   0.27987   0.00000  Uiso   1.00
C296   C     0.25000   0.32922   0.75329   0.00000  Uiso   1.00
C297   C     0.25000   0.34235   0.72353   0.00000  Uiso   1.00
C298   C     0.25000   0.37310   0.72072   0.00000  Uiso   1.00
C299   C     0.25000   0.39071   0.74773   0.00000  Uiso   1.00
C300   C     0.25000   0.37759   0.77732   0.00000  Uiso   1.00
C301   C     0.25000   0.34697   0.78011   0.00000  Uiso   1.00
C302   C     0.25000   0.42283   0.74623   0.00000  Uiso   1.00
C303   C     0.25000   0.25577   0.48429   0.00000  Uiso   1.00
C304   C     0.25000   0.22700   0.49621   0.00000  Uiso   1.00
C305   C     0.25000   0.22219   0.52848   0.00000  Uiso   1.00
C306   C     0.25000   0.24631   0.54903   0.00000  Uiso   1.00
C307   C     0.25000   0.27509   0.53711   0.00000  Uiso   1.00
C308   C     0.25000   0.27990   0.50483   0.00000  Uiso   1.00
C309   C     0.25000   0.24216   0.98505   0.00000  Uiso   1.00
C310   C     0.25000   0.22081   0.00860   0.00000  Uiso   1.00
C311   C     0.25000   0.22941   0.03998   0.00000  Uiso   1.00
C312   C     0.25000   0.25955   0.04817   0.00000  Uiso   1.00
C313   C     0.25000   0.28089   0.02462   0.00000  Uiso   1.00
C314   C     0.25000   0.27229   0.99324   0.00000  Uiso   1.00
C315   C     0.25000   0.24461   0.89765   0.00000  Uiso   1.00
C316   C     0.25000   0.15480   0.25307   0.00000  Uiso   1.00
C317   C     0.25000   0.12419   0.25592   0.00000  Uiso   1.00
C318   C     0.25000   0.11105   0.28564   0.00000  Uiso   1.00
C319   C     0.25000   0.12873   0.31249   0.00000  Uiso   1.00
C320   C     0.25000   0.15947   0.30963   0.00000  Uiso   1.00
C321   C     0.25000   0.07893   0.28874   0.00000  Uiso   1.00
C322   C     0.25000   0.21001   0.85409   0.00000  Uiso   1.00
C323   C     0.25000   0.21542   0.88651   0.00000  Uiso   1.00
C324   C     0.25000   0.26801   0.87670   0.00000  Uiso   1.00
C325   C     0.25000   0.26257   0.84481   0.00000  Uiso   1.00
C326   C     0.25000   0.29180   0.17910   0.00000  Uiso   1.00
C327   C     0.25000   0.28637   0.14668   0.00000  Uiso   1.00
C328   C     0.25000   0.25716   0.13556   0.00000  Uiso   1.00
C329   C     0.25000   0.23378   0.15651   0.00000  Uiso   1.00
C330   C     0.25000   0.23924   0.18839   0.00000  Uiso   1.00
C331   C     0.25000   0.24943   0.10248   0.00000  Uiso   1.00
C332   C     0.25000   0.25231   0.93074   0.00000  Uiso   1.00
C333   C     0.25000   0.19225   0.68136   0.00000  Uiso   1.00
C334   C     0.25000   0.19107   0.64841   0.00000  Uiso   1.00
C335   C     0.25000   0.21732   0.63094   0.00000  Uiso   1.00
C336   C     0.25000   0.24441   0.64642   0.00000  Uiso   1.00
C337   C     0.25000   0.24545   0.67871   0.00000  Uiso   1.00
C338   C     0.25000   0.21729   0.59664   0.00000  Uiso   1.00
C339   C     0.25000   0.30953   0.35183   0.00000  Uiso   1.00
C340   C     0.25000   0.31076   0.38477   0.00000  Uiso   1.00
C341   C     0.25000   0.28455   0.40230   0.00000  Uiso   1.00
C342   C     0.25000   0.25743   0.38686   0.00000  Uiso   1.00
C343   C     0.25000   0.25634   0.35454   0.00000  Uiso   1.00
C344   C     0.25000   0.46899   0.72016   0.00000  Uiso   1.00
C345   C     0.25000   0.48452   0.69177   0.00000  Uiso   1.00
C346   C     0.25000   0.48468   0.74851   0.00000  Uiso   1.00
C347   C     0.25000   0.01541   0.29346   0.00000  Uiso   1.00
C348   C     0.25000   0.01539   0.23668   0.00000  Uiso   1.00
H349   H     0.25000   0.28050   0.70602   0.00000  Uiso   1.00
H350   H     0.25000   0.21079   0.22323   0.00000  Uiso   1.00
H351   H     0.25000   0.17422   0.74107   0.00000  Uiso   1.00
H352   H     0.25000   0.18051   0.80032   0.00000  Uiso   1.00
H353   H     0.25000   0.32151   0.23318   0.00000  Uiso   1.00
H354   H     0.25000   0.32756   0.29211   0.00000  Uiso   1.00
H355   H     0.25000   0.30620   0.45051   0.00000  Uiso   1.00
H356   H     0.25000   0.32794   0.70161   0.00000  Uiso   1.00
H357   H     0.25000   0.38378   0.69652   0.00000  Uiso   1.00
H358   H     0.25000   0.39196   0.79926   0.00000  Uiso   1.00
H359   H     0.25000   0.33636   0.80435   0.00000  Uiso   1.00
H360   H     0.25000   0.43520   0.76951   0.00000  Uiso   1.00
H361   H     0.25000   0.20734   0.47952   0.00000  Uiso   1.00
H362   H     0.25000   0.19869   0.53807   0.00000  Uiso   1.00
H363   H     0.25000   0.29475   0.55381   0.00000  Uiso   1.00
H364   H     0.25000   0.30336   0.49514   0.00000  Uiso   1.00
H365   H     0.25000   0.19637   0.00219   0.00000  Uiso   1.00
H366   H     0.25000   0.21199   0.05927   0.00000  Uiso   1.00
H367   H     0.25000   0.30534   0.03103   0.00000  Uiso   1.00
H368   H     0.25000   0.28990   0.97414   0.00000  Uiso   1.00
H369   H     0.25000   0.16538   0.22882   0.00000  Uiso   1.00
H370   H     0.25000   0.10974   0.23403   0.00000  Uiso   1.00
H371   H     0.25000   0.11807   0.33670   0.00000  Uiso   1.00
H372   H     0.25000   0.17390   0.33153   0.00000  Uiso   1.00
H373   H     0.25000   0.06841   0.31302   0.00000  Uiso   1.00
H374   H     0.25000   0.18632   0.84502   0.00000  Uiso   1.00
H375   H     0.25000   0.19619   0.90377   0.00000  Uiso   1.00
H376   H     0.25000   0.29170   0.88578   0.00000  Uiso   1.00
H377   H     0.25000   0.28225   0.82812   0.00000  Uiso   1.00
H378   H     0.25000   0.31549   0.18817   0.00000  Uiso   1.00
H379   H     0.25000   0.30564   0.12947   0.00000  Uiso   1.00
H380   H     0.25000   0.21009   0.14745   0.00000  Uiso   1.00
H381   H     0.25000   0.21957   0.20508   0.00000  Uiso   1.00
H382   H     0.25000   0.22487   0.09662   0.00000  Uiso   1.00
H383   H     0.25000   0.27687   0.93662   0.00000  Uiso   1.00
H384   H     0.25000   0.17090   0.69553   0.00000  Uiso   1.00
H385   H     0.25000   0.16880   0.63594   0.00000  Uiso   1.00
H386   H     0.25000   0.26583   0.63237   0.00000  Uiso   1.00
H387   H     0.25000   0.26798   0.69063   0.00000  Uiso   1.00
H388   H     0.25000   0.19582   0.58266   0.00000  Uiso   1.00
H389   H     0.25000   0.33087   0.33763   0.00000  Uiso   1.00
H390   H     0.25000   0.33305   0.39721   0.00000  Uiso   1.00
H391   H     0.25000   0.23603   0.40095   0.00000  Uiso   1.00
H392   H     0.25000   0.23378   0.34267   0.00000  Uiso   1.00
H393   H     0.25000   0.47199   0.66860   0.00000  Uiso   1.00
H394   H     0.25000   0.47226   0.77176   0.00000  Uiso   1.00
H395   H     0.25000   0.02799   0.31660   0.00000  Uiso   1.00
H396   H     0.25000   0.02790   0.21348   0.00000  Uiso   1.00
N397   N     0.25000   0.72156   0.73195   0.00000  Uiso   1.00
N398   N     0.25000   0.71623   0.78506   0.00000  Uiso   1.00
N399   N     0.25000   0.77666   0.30121   0.00000  Uiso   1.00
N400   N     0.25000   0.78198   0.24809   0.00000  Uiso   1.00
N401   N     0.25000   0.93760   0.26398   0.00000  Uiso   1.00
N402   N     0.25000   0.56262   0.72009   0.00000  Uiso   1.00
N403   N     0.25000   0.74044   0.45117   0.00000  Uiso   1.00
N404   N     0.25000   0.76704   0.95298   0.00000  Uiso   1.00
N405   N     0.25000   0.73124   0.08023   0.00000  Uiso   1.00
N406   N     0.25000   0.75753   0.58214   0.00000  Uiso   1.00
C407   C     0.25000   0.74995   0.74611   0.00000  Uiso   1.00
C408   C     0.25000   0.77768   0.73152   0.00000  Uiso   1.00
C409   C     0.25000   0.80259   0.75148   0.00000  Uiso   1.00
C410   C     0.25000   0.74674   0.77768   0.00000  Uiso   1.00
C411   C     0.25000   0.77079   0.79830   0.00000  Uiso   1.00
C412   C     0.25000   0.79918   0.78451   0.00000  Uiso   1.00
C413   C     0.25000   0.70291   0.75670   0.00000  Uiso   1.00
C414   C     0.25000   0.74827   0.28705   0.00000  Uiso   1.00
C415   C     0.25000   0.72055   0.30166   0.00000  Uiso   1.00
C416   C     0.25000   0.75147   0.25548   0.00000  Uiso   1.00
C417   C     0.25000   0.69902   0.24866   0.00000  Uiso   1.00
C418   C     0.25000   0.96908   0.26496   0.00000  Uiso   1.00
C419   C     0.25000   0.79530   0.27645   0.00000  Uiso   1.00
C420   C     0.25000   0.72740   0.23487   0.00000  Uiso   1.00
C421   C     0.25000   0.69563   0.28169   0.00000  Uiso   1.00
C422   C     0.25000   0.78031   0.69682   0.00000  Uiso   1.00
C423   C     0.25000   0.71792   0.33639   0.00000  Uiso   1.00
C424   C     0.25000   0.71530   0.43660   0.00000  Uiso   1.00
C425   C     0.25000   0.73193   0.20035   0.00000  Uiso   1.00
C426   C     0.25000   0.76626   0.83283   0.00000  Uiso   1.00
C427   C     0.25000   0.82743   0.27987   0.00000  Uiso   1.00
C428   C     0.25000   0.67078   0.75329   0.00000  Uiso   1.00
C429   C     0.25000   0.65765   0.72353   0.00000  Uiso   1.00
C430   C     0.25000   0.62690   0.72072   0.00000  Uiso   1.00
C431   C     0.25000   0.60929   0.74773   0.00000  Uiso   1.00
C432   C     0.25000   0.62241   0.77732   0.00000  Uiso   1.00
C433   C     0.25000   0.65303   0.78011   0.00000  Uiso   1.00
C434   C     0.25000   0.57717   0.74623   0.00000  Uiso   1.00
C435   C     0.25000   0.74423   0.48429   0.00000  Uiso   1.00
C436   C     0.25000   0.77300   0.49621   0.00000  Uiso   1.00
C437   C     0.25000   0.77781   0.52848   0.00000  Uiso   1.00
C438   C     0.25000   0.75369   0.54903   0.00000  Uiso   1.00
C439   C     0.25000   0.72491   0.53711   0.00000  Uiso   1.00
C440   C     0.25000   0.72010   0.50483   0.00000  Uiso   1.00
C441   C     0.25000   0.75784   0.98505   0.00000  Uiso   1.00
C442   C     0.25000   0.77919   0.00860   0.00000  Uiso   1.00
C443   C     0.25000   0.77059   0.03998   0.00000  Uiso   1.00
C444   C     0.25000   0.74045   0.04817   0.00000  Uiso   1.00
C445   C     0.25000   0.71911   0.02462   0.00000  Uiso   1.00
C446   C     0.25000   0.72771   0.99324   0.00000  Uiso   1.00
C447   C     0.25000   0.75539   0.89765   0.00000  Uiso   1.00
C448   C     0.25000   0.84520   0.25307   0.00000  Uiso   1.00
C449   C     0.25000   0.87581   0.25592   0.00000  Uiso   1.00
C450   C     0.25000   0.88895   0.28564   0.00000  Uiso   1.00
C451   C     0.25000   0.87127   0.31249   0.00000  Uiso   1.00
C452   C     0.25000   0.84053   0.30963   0.00000  Uiso   1.00
C453   C     0.25000   0.92107   0.28874   0.00000  Uiso   1.00
C454   C     0.25000   0.78999   0.85409   0.00000  Uiso   1.00
C455   C     0.25000   0.78458   0.88651   0.00000  Uiso   1.00
C456   C     0.25000   0.73199   0.87670   0.00000  Uiso   1.00
C457   C     0.25000   0.73743   0.84481   0.00000  Uiso   1.00
C458   C     0.25000   0.70820   0.17910   0.00000  Uiso   1.00
C459   C     0.25000   0.71363   0.14668   0.00000  Uiso   1.00
C460   C     0.25000   0.74284   0.13556   0.00000  Uiso   1.00
C461   C     0.25000   0.76622   0.15651   0.00000  Uiso   1.00
C462   C     0.25000   0.76076   0.18839   0.00000  Uiso   1.00
C463   C     0.25000   0.75057   0.10248   0.00000  Uiso   1.00
C464   C     0.25000   0.74769   0.93074   0.00000  Uiso   1.00
C465   C     0.25000   0.80775   0.68136   0.00000  Uiso   1.00
C466   C     0.25000   0.80893   0.64841   0.00000  Uiso   1.00
C467   C     0.25000   0.78268   0.63094   0.00000  Uiso   1.00
C468   C     0.25000   0.75559   0.64642   0.00000  Uiso   1.00
C469   C     0.25000   0.75455   0.67871   0.00000  Uiso   1.00
C470   C     0.25000   0.78271   0.59664   0.00000  Uiso   1.00
C471   C     0.25000   0.69047   0.35183   0.00000  Uiso   1.00
C472   C     0.25000   0.68924   0.38477   0.00000  Uiso   1.00
C473   C     0.25000   0.71545   0.40230   0.00000  Uiso   1.00
C474   C     0.25000   0.74257   0.38686   0.00000  Uiso   1.00
C475   C     0.25000   0.74366   0.35454   0.00000  Uiso   1.00
C476   C     0.25000   0.53101   0.72016   0.00000  Uiso   1.00
C477   C     0.25000   0.51548   0.69177   0.00000  Uiso   1.00
C478   C     0.25000   0.51532   0.74851   0.00000  Uiso   1.00
C479   C     0.25000   0.98459   0.29346   0.00000  Uiso   1.00
C480   C     0.25000   0.98461   0.23668   0.00000  Uiso   1.00
H481   H     0.25000   0.71950   0.70602   0.00000  Uiso   1.00
H482   H     0.25000   0.78921   0.22323   0.00000  Uiso   1.00
H483   H     0.25000   0.82578   0.74107   0.00000  Uiso   1.00
H484   H     0.25000   0.81949   0.80032   0.00000  Uiso   1.00
H485   H     0.25000   0.67849   0.23318   0.00000  Uiso   1.00
H486   H     0.25000   0.67244   0.29211   0.00000  Uiso   1.00
H487   H     0.25000   0.69380   0.45051   0.00000  Uiso   1.00
H488   H     0.25000   0.67206   0.70161   0.00000  Uiso   1.00
H489   H     0.25000   0.61622   0.69652   0.00000  Uiso   1.00
H490   H     0.25000   0.60804   0.79926   0.00000  Uiso   1.00
H491   H     0.25000   0.66364   0.80435   0.00000  Uiso   1.00
H492   H     0.25000   0.56480   0.76951   0.00000  Uiso   1.00
H493   H     0.25000   0.79266   0.47952   0.00000  Uiso   1.00
H494   H     0.25000   0.80131   0.53807   0.00000  Uiso   1.00
H495   H     0.25000   0.70525   0.55381   0.00000  Uiso   1.00
H496   H     0.25000   0.69664   0.49514   0.00000  Uiso   1.00
H497   H     0.25000   0.80363   0.00219   0.00000  Uiso   1.00
H498   H     0.25000   0.78801   0.05927   0.00000  Uiso   1.00
H499   H     0.25000   0.69466   0.03103   0.00000  Uiso   1.00
H500   H     0.25000   0.71010   0.97414   0.00000  Uiso   1.00
H501   H     0.25000   0.83462   0.22882   0.00000  Uiso   1.00
H502   H     0.25000   0.89026   0.23403   0.00000  Uiso   1.00
H503   H     0.25000   0.88193   0.33670   0.00000  Uiso   1.00
H504   H     0.25000   0.82610   0.33153   0.00000  Uiso   1.00
H505   H     0.25000   0.93159   0.31302   0.00000  Uiso   1.00
H506   H     0.25000   0.81368   0.84502   0.00000  Uiso   1.00
H507   H     0.25000   0.80381   0.90377   0.00000  Uiso   1.00
H508   H     0.25000   0.70830   0.88578   0.00000  Uiso   1.00
H509   H     0.25000   0.71775   0.82812   0.00000  Uiso   1.00
H510   H     0.25000   0.68451   0.18817   0.00000  Uiso   1.00
H511   H     0.25000   0.69436   0.12947   0.00000  Uiso   1.00
H512   H     0.25000   0.78991   0.14745   0.00000  Uiso   1.00
H513   H     0.25000   0.78043   0.20508   0.00000  Uiso   1.00
H514   H     0.25000   0.77513   0.09662   0.00000  Uiso   1.00
H515   H     0.25000   0.72313   0.93662   0.00000  Uiso   1.00
H516   H     0.25000   0.82910   0.69553   0.00000  Uiso   1.00
H517   H     0.25000   0.83120   0.63594   0.00000  Uiso   1.00
H518   H     0.25000   0.73417   0.63237   0.00000  Uiso   1.00
H519   H     0.25000   0.73202   0.69063   0.00000  Uiso   1.00
H520   H     0.25000   0.80418   0.58266   0.00000  Uiso   1.00
H521   H     0.25000   0.66913   0.33763   0.00000  Uiso   1.00
H522   H     0.25000   0.66695   0.39721   0.00000  Uiso   1.00
H523   H     0.25000   0.76397   0.40095   0.00000  Uiso   1.00
H524   H     0.25000   0.76622   0.34267   0.00000  Uiso   1.00
H525   H     0.25000   0.52801   0.66860   0.00000  Uiso   1.00
H526   H     0.25000   0.52774   0.77176   0.00000  Uiso   1.00
H527   H     0.25000   0.97201   0.31660   0.00000  Uiso   1.00
H528   H     0.25000   0.97210   0.21348   0.00000  Uiso   1.00
loop_
_geom_bond_atom_site_label_1
_geom_bond_atom_site_label_2
_geom_bond_distance
_geom_bond_site_symmetry_2
_ccdc_geom_bond_type
N1     C11     1.420   .     S
N1     C17     1.352   .     S
N1     H85     1.110   .     S
N2     C14     1.417   .     S
N2     C17     1.352   .     D
N3     C18     1.420   .     S
N3     C23     1.352   .     D
N4     C20     1.417   .     S
N4     C23     1.352   .     S
N4     H86     1.110   .     S
N5     C22     1.426   .     S
N5     C57     1.294   .     D
N6     C38     1.295   .     D
N6     C80     1.431   .     S
N7     C28     1.297   .     D
N7     C39     1.423   .     S
N8     C45     1.430   .     S
N8     C68     1.291   .     D
N9     C48     1.430   .     S
N9     C67     1.291   .     D
N10    C42     1.423   .     S
N10    C74     1.297   .     D
C11    C12     1.401   .     D
C11    C14     1.355   .     S
C12    C13     1.413   .     S
C12    C26     1.485   .     S
C13    C16     1.417   .     D
C13    H87     1.140   .     S
C14    C15     1.400   .     D
C15    C16     1.413   .     S
C15    C30     1.487   .     S
C16    H88     1.140   .     S
C17    C32     1.462   .     S
C18    C19     1.401   .     S
C18    C20     1.355   .     D
C19    C25     1.414   .     D
C19    C27     1.486   .     S
C20    C24     1.400   .     S
C21    C24     1.413   .     D
C21    C25     1.417   .     S
C21    H89     1.140   .     S
C22    C83     1.404   .     S
C22    C84     1.396   .     D
C23    C31     1.462   .     S
C24    C29     1.487   .     S
C25    H90     1.140   .     S
C26    C69     1.406   .     D
C26    C73     1.399   .     S
C27    C75     1.406   .     D
C27    C79     1.399   .     S
C28    C77     1.463   .     S
C28    H91     1.140   .     S
C29    C62     1.406   .     D
C29    C66     1.401   .     S
C30    C58     1.406   .     D
C30    C61     1.402   .     S
C31    C52     1.398   .     S
C31    C56     1.401   .     D
C32    C33     1.402   .     D
C32    C37     1.398   .     S
C33    C34     1.397   .     S
C33    H92     1.140   .     S
C34    C35     1.401   .     D
C34    H93     1.140   .     S
C35    C36     1.395   .     S
C35    C38     1.455   .     S
C36    C37     1.391   .     D
C36    H94     1.140   .     S
C37    H95     1.140   .     S
C38    H96     1.140   .     S
C39    C40     1.398   .     D
C39    C44     1.400   .     S
C40    C41     1.394   .     S
C40    H97     1.140   .     S
C41    C42     1.400   .     D
C41    H98     1.140   .     S
C42    C43     1.399   .     S
C43    C44     1.394   .     D
C43    H99     1.140   .     S
C44    H100    1.140   .     S
C45    C46     1.394   1_554 D
C45    C50     1.408   .     S
C46    C45     1.394   1_556 D
C46    C47     1.394   .     S
C46    H101    1.140   .     S
C47    C48     1.408   .     D
C47    H102    1.140   .     S
C48    C49     1.394   .     S
C49    C50     1.394   1_556 D
C49    H103    1.140   .     S
C50    C49     1.394   1_554 D
C50    H104    1.140   .     S
C51    C59     1.404   .     D
C51    C60     1.386   .     S
C51    C68     1.454   .     S
C52    C53     1.391   .     D
C52    H105    1.140   .     S
C53    C54     1.400   .     S
C53    H106    1.140   .     S
C54    C55     1.397   .     D
C54    C57     1.460   .     S
C55    C56     1.397   .     S
C55    H107    1.140   .     S
C56    H108    1.140   .     S
C57    H109    1.140   .     S
C58    C59     1.405   .     S
C58    H110    1.140   .     S
C59    H111    1.140   .     S
C60    C61     1.383   .     D
C60    H112    1.140   .     S
C61    H113    1.140   .     S
C62    C63     1.405   .     S
C62    H114    1.140   .     S
C63    C64     1.405   .     D
C63    H115    1.140   .     S
C64    C65     1.385   .     S
C64    C67     1.454   .     S
C65    C66     1.382   .     D
C65    H116    1.140   .     S
C66    H117    1.140   .     S
C67    H118    1.140   .     S
C68    H119    1.140   .     S
C69    C70     1.407   .     S
C69    H120    1.140   .     S
C70    C71     1.403   .     D
C70    H121    1.140   .     S
C71    C72     1.393   .     S
C71    C74     1.463   .     S
C72    C73     1.378   .     D
C72    H122    1.140   .     S
C73    H123    1.140   .     S
C74    H124    1.140   .     S
C75    C76     1.406   .     S
C75    H125    1.140   .     S
C76    C77     1.403   .     D
C76    H126    1.140   .     S
C77    C78     1.393   .     S
C78    C79     1.380   .     D
C78    H127    1.140   .     S
C79    H128    1.140   .     S
C80    C81     1.400   .     D
C80    C82     1.403   .     S
C81    H129    1.140   .     S
C81    C213    1.402   .     S
C82    H130    1.140   .     S
C82    C214    1.387   .     D
C83    H131    1.140   .     S
C83    C215    1.395   1_545 D
C84    H132    1.140   .     S
C84    C216    1.393   1_545 S
N133   C143    1.420   .     S
N133   C149    1.352   .     S
N133   H217    1.110   .     S
N134   C146    1.417   .     S
N134   C149    1.352   .     D
N135   C150    1.420   .     S
N135   C155    1.352   .     D
N136   C152    1.417   .     S
N136   C155    1.352   .     S
N136   H218    1.110   .     S
N137   C154    1.426   .     S
N137   C189    1.294   .     D
N138   C170    1.295   .     D
N138   C212    1.431   .     S
N139   C160    1.297   .     S
N139   C171    1.423   .     D
N140   C177    1.430   .     D
N140   C200    1.291   .     S
N141   C180    1.430   .     D
N141   C199    1.291   .     S
N142   C174    1.423   .     D
N142   C206    1.297   .     S
C143   C144    1.401   .     S
C143   C146    1.355   .     D
C144   C145    1.413   .     S
C144   C158    1.485   .     D
C145   C148    1.417   .     D
C145   H219    1.140   .     S
C146   C147    1.400   .     S
C147   C148    1.413   .     S
C147   C162    1.487   .     D
C148   H220    1.140   .     S
C149   C164    1.462   .     S
C150   C151    1.401   .     S
C150   C152    1.355   .     D
C151   C157    1.414   .     S
C151   C159    1.486   .     D
C152   C156    1.400   .     S
C153   C156    1.413   .     S
C153   C157    1.417   .     D
C153   H221    1.140   .     S
C154   C215    1.404   .     S
C154   C216    1.396   .     D
C155   C163    1.462   .     S
C156   C161    1.487   .     D
C157   H222    1.140   .     S
C158   C201    1.406   .     S
C158   C205    1.399   .     S
C159   C207    1.406   .     S
C159   C211    1.399   .     S
C160   C209    1.463   .     D
C160   H223    1.140   .     S
C161   C194    1.406   .     S
C161   C198    1.401   .     S
C162   C190    1.406   .     S
C162   C193    1.402   .     S
C163   C184    1.398   .     S
C163   C188    1.401   .     D
C164   C165    1.402   .     D
C164   C169    1.398   .     S
C165   C166    1.397   .     S
C165   H224    1.140   .     S
C166   C167    1.401   .     D
C166   H225    1.140   .     S
C167   C168    1.395   .     S
C167   C170    1.455   .     S
C168   C169    1.391   .     D
C168   H226    1.140   .     S
C169   H227    1.140   .     S
C170   H228    1.140   .     S
C171   C172    1.398   .     S
C171   C176    1.400   .     S
C172   C173    1.394   .     D
C172   H229    1.140   .     S
C173   C174    1.400   .     S
C173   H230    1.140   .     S
C174   C175    1.399   .     S
C175   C176    1.394   .     D
C175   H231    1.140   .     S
C176   H232    1.140   .     S
C177   C178    1.394   1_554 S
C177   C182    1.408   .     S
C178   C177    1.394   1_556 S
C178   C179    1.394   .     D
C178   H233    1.140   .     S
C179   C180    1.408   .     S
C179   H234    1.140   .     S
C180   C181    1.394   .     S
C181   C182    1.394   1_556 D
C181   H235    1.140   .     S
C182   C181    1.394   1_554 D
C182   H236    1.140   .     S
C183   C191    1.404   .     S
C183   C192    1.386   .     S
C183   C200    1.454   .     D
C184   C185    1.391   .     D
C184   H237    1.140   .     S
C185   C186    1.400   .     S
C185   H238    1.140   .     S
C186   C187    1.397   .     D
C186   C189    1.460   .     S
C187   C188    1.397   .     S
C187   H239    1.140   .     S
C188   H240    1.140   .     S
C189   H241    1.140   .     S
C190   C191    1.405   .     D
C190   H242    1.140   .     S
C191   H243    1.140   .     S
C192   C193    1.383   .     D
C192   H244    1.140   .     S
C193   H245    1.140   .     S
C194   C195    1.405   .     D
C194   H246    1.140   .     S
C195   C196    1.405   .     S
C195   H247    1.140   .     S
C196   C197    1.385   .     S
C196   C199    1.454   .     D
C197   C198    1.382   .     D
C197   H248    1.140   .     S
C198   H249    1.140   .     S
C199   H250    1.140   .     S
C200   H251    1.140   .     S
C201   C202    1.407   .     D
C201   H252    1.140   .     S
C202   C203    1.403   .     S
C202   H253    1.140   .     S
C203   C204    1.393   .     S
C203   C206    1.463   .     D
C204   C205    1.378   .     D
C204   H254    1.140   .     S
C205   H255    1.140   .     S
C206   H256    1.140   .     S
C207   C208    1.406   .     D
C207   H257    1.140   .     S
C208   C209    1.403   .     S
C208   H258    1.140   .     S
C209   C210    1.393   .     S
C210   C211    1.380   .     D
C210   H259    1.140   .     S
C211   H260    1.140   .     S
C212   C213    1.400   .     D
C212   C214    1.403   .     S
C213   H261    1.140   .     S
C214   H262    1.140   .     S
C215   C83     1.395   1_565 D
C215   H263    1.140   .     S
C216   C84     1.393   1_565 S
C216   H264    1.140   .     S
N265   C275    1.420   .     S
N265   C281    1.352   .     S
N265   H349    1.110   .     S
N266   C278    1.417   .     S
N266   C281    1.352   .     D
N267   C282    1.420   .     S
N267   C287    1.352   .     D
N268   C284    1.417   .     S
N268   C287    1.352   .     S
N268   H350    1.110   .     S
N269   C286    1.426   .     S
N269   C321    1.294   .     D
N270   C302    1.295   .     D
N270   C344    1.431   .     S
N271   C292    1.297   .     D
N271   C303    1.423   .     S
N272   C309    1.430   .     S
N272   C332    1.291   .     D
N273   C312    1.430   .     S
N273   C331    1.291   .     D
N274   C306    1.423   .     S
N274   C338    1.297   .     D
C275   C276    1.401   .     D
C275   C278    1.355   .     S
C276   C277    1.413   .     S
C276   C290    1.485   .     S
C277   C280    1.417   .     D
C277   H351    1.140   .     S
C278   C279    1.400   .     D
C279   C280    1.413   .     S
C279   C294    1.487   .     S
C280   H352    1.140   .     S
C281   C296    1.462   .     S
C282   C283    1.401   .     S
C282   C284    1.355   .     D
C283   C289    1.414   .     D
C283   C291    1.486   .     S
C284   C288    1.400   .     S
C285   C288    1.413   .     D
C285   C289    1.417   .     S
C285   H353    1.140   .     S
C286   C347    1.404   .     S
C286   C348    1.396   .     D
C287   C295    1.462   .     S
C288   C293    1.487   .     S
C289   H354    1.140   .     S
C290   C333    1.406   .     D
C290   C337    1.399   .     S
C291   C339    1.406   .     D
C291   C343    1.399   .     S
C292   C341    1.463   .     S
C292   H355    1.140   .     S
C293   C326    1.406   .     D
C293   C330    1.401   .     S
C294   C322    1.406   .     D
C294   C325    1.402   .     S
C295   C316    1.398   .     S
C295   C320    1.401   .     D
C296   C297    1.402   .     D
C296   C301    1.398   .     S
C297   C298    1.397   .     S
C297   H356    1.140   .     S
C298   C299    1.401   .     D
C298   H357    1.140   .     S
C299   C300    1.395   .     S
C299   C302    1.455   .     S
C300   C301    1.391   .     D
C300   H358    1.140   .     S
C301   H359    1.140   .     S
C302   H360    1.140   .     S
C303   C304    1.398   .     D
C303   C308    1.400   .     S
C304   C305    1.394   .     S
C304   H361    1.140   .     S
C305   C306    1.400   .     D
C305   H362    1.140   .     S
C306   C307    1.399   .     S
C307   C308    1.394   .     D
C307   H363    1.140   .     S
C308   H364    1.140   .     S
C309   C310    1.394   1_556 D
C309   C314    1.408   .     S
C310   C309    1.394   1_554 D
C310   C311    1.394   .     S
C310   H365    1.140   .     S
C311   C312    1.408   .     D
C311   H366    1.140   .     S
C312   C313    1.394   .     S
C313   C314    1.394   1_554 D
C313   H367    1.140   .     S
C314   C313    1.394   1_556 D
C314   H368    1.140   .     S
C315   C323    1.404   .     D
C315   C324    1.386   .     S
C315   C332    1.454   .     S
C316   C317    1.391   .     D
C316   H369    1.140   .     S
C317   C318    1.400   .     S
C317   H370    1.140   .     S
C318   C319    1.397   .     D
C318   C321    1.460   .     S
C319   C320    1.397   .     S
C319   H371    1.140   .     S
C320   H372    1.140   .     S
C321   H373    1.140   .     S
C322   C323    1.405   .     S
C322   H374    1.140   .     S
C323   H375    1.140   .     S
C324   C325    1.383   .     D
C324   H376    1.140   .     S
C325   H377    1.140   .     S
C326   C327    1.405   .     S
C326   H378    1.140   .     S
C327   C328    1.405   .     D
C327   H379    1.140   .     S
C328   C329    1.385   .     S
C328   C331    1.454   .     S
C329   C330    1.382   .     D
C329   H380    1.140   .     S
C330   H381    1.140   .     S
C331   H382    1.140   .     S
C332   H383    1.140   .     S
C333   C334    1.407   .     S
C333   H384    1.140   .     S
C334   C335    1.403   .     D
C334   H385    1.140   .     S
C335   C336    1.393   .     S
C335   C338    1.463   .     S
C336   C337    1.378   .     D
C336   H386    1.140   .     S
C337   H387    1.140   .     S
C338   H388    1.140   .     S
C339   C340    1.406   .     S
C339   H389    1.140   .     S
C340   C341    1.403   .     D
C340   H390    1.140   .     S
C341   C342    1.393   .     S
C342   C343    1.380   .     D
C342   H391    1.140   .     S
C343   H392    1.140   .     S
C344   C345    1.400   .     D
C344   C346    1.403   .     S
C345   H393    1.140   .     S
C345   C477    1.402   .     S
C346   H394    1.140   .     S
C346   C478    1.387   .     D
C347   H395    1.140   .     S
C347   C479    1.395   1_545 D
C348   H396    1.140   .     S
C348   C480    1.393   1_545 S
N397   C407    1.420   .     S
N397   C413    1.352   .     S
N397   H481    1.110   .     S
N398   C410    1.417   .     S
N398   C413    1.352   .     D
N399   C414    1.420   .     S
N399   C419    1.352   .     D
N400   C416    1.417   .     S
N400   C419    1.352   .     S
N400   H482    1.110   .     S
N401   C418    1.426   .     S
N401   C453    1.294   .     D
N402   C434    1.295   .     D
N402   C476    1.431   .     S
N403   C424    1.297   .     S
N403   C435    1.423   .     D
N404   C441    1.430   .     D
N404   C464    1.291   .     S
N405   C444    1.430   .     D
N405   C463    1.291   .     S
N406   C438    1.423   .     D
N406   C470    1.297   .     S
C407   C408    1.401   .     S
C407   C410    1.355   .     D
C408   C409    1.413   .     S
C408   C422    1.485   .     D
C409   C412    1.417   .     D
C409   H483    1.140   .     S
C410   C411    1.400   .     S
C411   C412    1.413   .     S
C411   C426    1.487   .     D
C412   H484    1.140   .     S
C413   C428    1.462   .     S
C414   C415    1.401   .     S
C414   C416    1.355   .     D
C415   C421    1.414   .     S
C415   C423    1.486   .     D
C416   C420    1.400   .     S
C417   C420    1.413   .     S
C417   C421    1.417   .     D
C417   H485    1.140   .     S
C418   C479    1.404   .     S
C418   C480    1.396   .     D
C419   C427    1.462   .     S
C420   C425    1.487   .     D
C421   H486    1.140   .     S
C422   C465    1.406   .     S
C422   C469    1.399   .     S
C423   C471    1.406   .     S
C423   C475    1.399   .     S
C424   C473    1.463   .     D
C424   H487    1.140   .     S
C425   C458    1.406   .     S
C425   C462    1.401   .     S
C426   C454    1.406   .     S
C426   C457    1.402   .     S
C427   C448    1.398   .     S
C427   C452    1.401   .     D
C428   C429    1.402   .     D
C428   C433    1.398   .     S
C429   C430    1.397   .     S
C429   H488    1.140   .     S
C430   C431    1.401   .     D
C430   H489    1.140   .     S
C431   C432    1.395   .     S
C431   C434    1.455   .     S
C432   C433    1.391   .     D
C432   H490    1.140   .     S
C433   H491    1.140   .     S
C434   H492    1.140   .     S
C435   C436    1.398   .     S
C435   C440    1.400   .     S
C436   C437    1.394   .     D
C436   H493    1.140   .     S
C437   C438    1.400   .     S
C437   H494    1.140   .     S
C438   C439    1.399   .     S
C439   C440    1.394   .     D
C439   H495    1.140   .     S
C440   H496    1.140   .     S
C441   C442    1.394   1_556 S
C441   C446    1.408   .     S
C442   C441    1.394   1_554 S
C442   C443    1.394   .     D
C442   H497    1.140   .     S
C443   C444    1.408   .     S
C443   H498    1.140   .     S
C444   C445    1.394   .     S
C445   C446    1.394   1_554 D
C445   H499    1.140   .     S
C446   C445    1.394   1_556 D
C446   H500    1.140   .     S
C447   C455    1.404   .     S
C447   C456    1.386   .     S
C447   C464    1.454   .     D
C448   C449    1.391   .     D
C448   H501    1.140   .     S
C449   C450    1.400   .     S
C449   H502    1.140   .     S
C450   C451    1.397   .     D
C450   C453    1.460   .     S
C451   C452    1.397   .     S
C451   H503    1.140   .     S
C452   H504    1.140   .     S
C453   H505    1.140   .     S
C454   C455    1.405   .     D
C454   H506    1.140   .     S
C455   H507    1.140   .     S
C456   C457    1.383   .     D
C456   H508    1.140   .     S
C457   H509    1.140   .     S
C458   C459    1.405   .     D
C458   H510    1.140   .     S
C459   C460    1.405   .     S
C459   H511    1.140   .     S
C460   C461    1.385   .     S
C460   C463    1.454   .     D
C461   C462    1.382   .     D
C461   H512    1.140   .     S
C462   H513    1.140   .     S
C463   H514    1.140   .     S
C464   H515    1.140   .     S
C465   C466    1.407   .     D
C465   H516    1.140   .     S
C466   C467    1.403   .     S
C466   H517    1.140   .     S
C467   C468    1.393   .     S
C467   C470    1.463   .     D
C468   C469    1.378   .     D
C468   H518    1.140   .     S
C469   H519    1.140   .     S
C470   H520    1.140   .     S
C471   C472    1.406   .     D
C471   H521    1.140   .     S
C472   C473    1.403   .     S
C472   H522    1.140   .     S
C473   C474    1.393   .     S
C474   C475    1.380   .     D
C474   H523    1.140   .     S
C475   H524    1.140   .     S
C476   C477    1.400   .     D
C476   C478    1.403   .     S
C477   H525    1.140   .     S
C478   H526    1.140   .     S
C479   C347    1.395   1_565 D
C479   H527    1.140   .     S
C480   C348    1.393   1_565 S
C480   H528    1.140   .     S
