data_571
_audit_creation_date              2023-09-08
_audit_creation_method            'Materials Studio'
_symmetry_space_group_name_H-M    'P1'
_symmetry_Int_Tables_number       1
_symmetry_cell_setting            triclinic
loop_
_symmetry_equiv_pos_as_xyz
  x,y,z
_cell_length_a                    52.2000
_cell_length_b                    52.2000
_cell_length_c                    6.5000
_cell_angle_alpha                 90.0000
_cell_angle_beta                  90.0000
_cell_angle_gamma                 120.0000
loop_
_atom_site_label
_atom_site_type_symbol
_atom_site_fract_x
_atom_site_fract_y
_atom_site_fract_z
_atom_site_U_iso_or_equiv
_atom_site_adp_type
_atom_site_occupancy
C1     C     0.91869   0.94657   0.03257   0.00000  Uiso   1.00
N2     N     0.69911   0.86431   0.19775   0.00000  Uiso   1.00
C3     C     0.72868   0.87772   0.17325   0.00000  Uiso   1.00
C4     C     0.74326   0.89757   0.34831   0.00000  Uiso   1.00
C5     C     0.72211   0.89562   0.47048   0.00000  Uiso   1.00
C6     C     0.82287   0.93458  -0.02196   0.00000  Uiso   1.00
C7     C     0.79196   0.91915  -0.02825   0.00000  Uiso   1.00
C8     C     0.94501   0.99950   0.02709   0.00000  Uiso   1.00
C9     C     0.97268   0.00019   0.03029   0.00000  Uiso   1.00
C10    C     0.41467   0.71983  -0.02451   0.00000  Uiso   1.00
N11    N     0.63425   0.80175  -0.18296   0.00000  Uiso   1.00
C12    C     0.63922   0.79163  -0.36051   0.00000  Uiso   1.00
C13    C     0.60468   0.78835  -0.15846   0.00000  Uiso   1.00
C14    C     0.59009   0.76856  -0.33366   0.00000  Uiso   1.00
C15    C     0.61123   0.77054  -0.45610   0.00000  Uiso   1.00
C16    C     0.51103   0.77682  -0.05774   0.00000  Uiso   1.00
C17    C     0.54196   0.79208  -0.05462   0.00000  Uiso   1.00
O18    O     0.44296   0.74415  -0.03320   0.00000  Uiso   1.00
C19    C     0.38814   0.66695   0.00187   0.00000  Uiso   1.00
C20    C     0.36058   0.66637  -0.01234   0.00000  Uiso   1.00
C21    C     0.41445   0.69373  -0.00381   0.00000  Uiso   1.00
C22    C     0.63879   0.84661   0.36936   0.00000  Uiso   1.00
C23    C     0.60460   0.81394   0.16853   0.00000  Uiso   1.00
C24    C     0.59045   0.82133   0.31893   0.00000  Uiso   1.00
C25    C     0.61213   0.84201   0.44535   0.00000  Uiso   1.00
C26    C     0.51046   0.73189   0.04544   0.00000  Uiso   1.00
C27    C     0.54138   0.74727   0.05116   0.00000  Uiso   1.00
C28    C     0.38859   0.72073  -0.03115   0.00000  Uiso   1.00
C29    C     0.36081   0.69399  -0.01758   0.00000  Uiso   1.00
C30    C     0.91881   0.97270   0.02715   0.00000  Uiso   1.00
N31    N     0.69927   0.83696  -0.18936   0.00000  Uiso   1.00
C32    C     0.69457   0.81958  -0.35532   0.00000  Uiso   1.00
C33    C     0.72877   0.85218  -0.15415   0.00000  Uiso   1.00
C34    C     0.74292   0.84500  -0.30596   0.00000  Uiso   1.00
C35    C     0.72123   0.82436  -0.43249   0.00000  Uiso   1.00
C36    C     0.82246   0.88918   0.06397   0.00000  Uiso   1.00
C37    C     0.79154   0.87385   0.06107   0.00000  Uiso   1.00
O38    O     0.89068   0.96914   0.02187   0.00000  Uiso   1.00
C39    C     0.94477   0.94574   0.03369   0.00000  Uiso   1.00
C40    C     0.66630   0.86659   0.45638   0.00000  Uiso   1.00
C41    C     0.66704   0.79959  -0.44224   0.00000  Uiso   1.00
C42    C     0.83828   0.91965   0.02311   0.00000  Uiso   1.00
B43    B     0.87286   0.93684   0.02740   0.00000  Uiso   1.00
C44    C     0.59004   0.79359   0.00548   0.00000  Uiso   1.00
C45    C     0.49511   0.74661  -0.00813   0.00000  Uiso   1.00
C46    C     0.55728   0.77744   0.00119   0.00000  Uiso   1.00
B47    B     0.46050   0.72948  -0.01209   0.00000  Uiso   1.00
C48    C     0.69413   0.87449   0.37502   0.00000  Uiso   1.00
O49    O     0.89047   0.92213   0.03494   0.00000  Uiso   1.00
N50    N     0.63409   0.82905   0.20439   0.00000  Uiso   1.00
O51    O     0.44256   0.69728   0.00734   0.00000  Uiso   1.00
C52    C     0.74334   0.87249   0.00923   0.00000  Uiso   1.00
C53    C     0.77612   0.88871   0.01338   0.00000  Uiso   1.00
C54    C     0.97257   0.97261   0.03118   0.00000  Uiso   1.00
H55    H     0.76674   0.91106   0.37744   0.00000  Uiso   1.00
H56    H     0.72533   0.90718   0.61483   0.00000  Uiso   1.00
H57    H     0.83465   0.95810  -0.05417   0.00000  Uiso   1.00
H58    H     0.78033   0.93089  -0.06487   0.00000  Uiso   1.00
H59    H     0.94266   0.01880   0.02252   0.00000  Uiso   1.00
H60    H     0.56660   0.75508  -0.36257   0.00000  Uiso   1.00
H61    H     0.60800   0.75904  -0.60068   0.00000  Uiso   1.00
H62    H     0.49963   0.78859  -0.10041   0.00000  Uiso   1.00
H63    H     0.55399   0.81533  -0.09485   0.00000  Uiso   1.00
H64    H     0.39011   0.64753   0.02080   0.00000  Uiso   1.00
H65    H     0.56694   0.81279   0.33649   0.00000  Uiso   1.00
H66    H     0.60873   0.85250   0.57799   0.00000  Uiso   1.00
H67    H     0.49863   0.70860   0.08452   0.00000  Uiso   1.00
H68    H     0.55296   0.73570   0.09424   0.00000  Uiso   1.00
H69    H     0.39090   0.74228  -0.04980   0.00000  Uiso   1.00
H70    H     0.68336   0.83980  -0.11547   0.00000  Uiso   1.00
H71    H     0.76643   0.85370  -0.32475   0.00000  Uiso   1.00
H72    H     0.72463   0.81403  -0.56609   0.00000  Uiso   1.00
H73    H     0.83392   0.87723   0.09985   0.00000  Uiso   1.00
H74    H     0.77957   0.85039   0.09492   0.00000  Uiso   1.00
H75    H     0.94225   0.92402   0.03789   0.00000  Uiso   1.00
H76    H     0.66607   0.87765   0.59694   0.00000  Uiso   1.00
H77    H     0.66727   0.78863  -0.58331   0.00000  Uiso   1.00
H78    H     0.64996   0.82598   0.13199   0.00000  Uiso   1.00
C79    C     0.05343   0.97212   0.03257   0.00000  Uiso   1.00
N80    N     0.13569   0.83480   0.19775   0.00000  Uiso   1.00
C81    C     0.12228   0.85096   0.17325   0.00000  Uiso   1.00
C82    C     0.10243   0.84569   0.34831   0.00000  Uiso   1.00
C83    C     0.10438   0.82649   0.47048   0.00000  Uiso   1.00
C84    C     0.06542   0.88828  -0.02196   0.00000  Uiso   1.00
C85    C     0.08085   0.87281  -0.02825   0.00000  Uiso   1.00
C86    C     0.00050   0.94550   0.02709   0.00000  Uiso   1.00
C87    C     0.99981   0.97249   0.03029   0.00000  Uiso   1.00
C88    C     0.28017   0.69484  -0.02451   0.00000  Uiso   1.00
N89    N     0.19825   0.83250  -0.18296   0.00000  Uiso   1.00
C90    C     0.20837   0.84758  -0.36051   0.00000  Uiso   1.00
C91    C     0.21165   0.81633  -0.15846   0.00000  Uiso   1.00
C92    C     0.23144   0.82153  -0.33366   0.00000  Uiso   1.00
C93    C     0.22946   0.84068  -0.45610   0.00000  Uiso   1.00
C94    C     0.22318   0.73422  -0.05774   0.00000  Uiso   1.00
C95    C     0.20792   0.74987  -0.05462   0.00000  Uiso   1.00
O96    O     0.25585   0.69881  -0.03320   0.00000  Uiso   1.00
C97    C     0.33305   0.72119   0.00187   0.00000  Uiso   1.00
C98    C     0.33363   0.69421  -0.01234   0.00000  Uiso   1.00
C99    C     0.30627   0.72072  -0.00381   0.00000  Uiso   1.00
C100   C     0.15339   0.79218   0.36936   0.00000  Uiso   1.00
C101   C     0.18606   0.79066   0.16853   0.00000  Uiso   1.00
C102   C     0.17867   0.76911   0.31893   0.00000  Uiso   1.00
C103   C     0.15799   0.77012   0.44535   0.00000  Uiso   1.00
C104   C     0.26811   0.77857   0.04544   0.00000  Uiso   1.00
C105   C     0.25273   0.79411   0.05116   0.00000  Uiso   1.00
C106   C     0.27927   0.66785  -0.03115   0.00000  Uiso   1.00
C107   C     0.30601   0.66682  -0.01758   0.00000  Uiso   1.00
C108   C     0.02730   0.94611   0.02715   0.00000  Uiso   1.00
N109   N     0.16304   0.86231  -0.18936   0.00000  Uiso   1.00
C110   C     0.18043   0.87499  -0.35532   0.00000  Uiso   1.00
C111   C     0.14783   0.87660  -0.15415   0.00000  Uiso   1.00
C112   C     0.15500   0.89793  -0.30596   0.00000  Uiso   1.00
C113   C     0.17564   0.89688  -0.43249   0.00000  Uiso   1.00
C114   C     0.11082   0.93328   0.06397   0.00000  Uiso   1.00
C115   C     0.12615   0.91768   0.06107   0.00000  Uiso   1.00
O116   O     0.03086   0.92154   0.02187   0.00000  Uiso   1.00
C117   C     0.05426   0.99903   0.03369   0.00000  Uiso   1.00
C118   C     0.13341   0.79972   0.45638   0.00000  Uiso   1.00
C119   C     0.20041   0.86745  -0.44224   0.00000  Uiso   1.00
C120   C     0.08035   0.91864   0.02311   0.00000  Uiso   1.00
B121   B     0.06316   0.93602   0.02740   0.00000  Uiso   1.00
C122   C     0.20641   0.79645   0.00548   0.00000  Uiso   1.00
C123   C     0.25339   0.74850  -0.00813   0.00000  Uiso   1.00
C124   C     0.22256   0.77985   0.00119   0.00000  Uiso   1.00
B125   B     0.27052   0.73102  -0.01209   0.00000  Uiso   1.00
C126   C     0.12551   0.81965   0.37502   0.00000  Uiso   1.00
O127   O     0.07787   0.96833   0.03494   0.00000  Uiso   1.00
N128   N     0.17095   0.80504   0.20439   0.00000  Uiso   1.00
O129   O     0.30272   0.74528   0.00734   0.00000  Uiso   1.00
C130   C     0.12751   0.87085   0.00923   0.00000  Uiso   1.00
C131   C     0.11129   0.88741   0.01338   0.00000  Uiso   1.00
C132   C     0.02739   0.99996   0.03118   0.00000  Uiso   1.00
H133   H     0.08894   0.85568   0.37744   0.00000  Uiso   1.00
H134   H     0.09282   0.81816   0.61483   0.00000  Uiso   1.00
H135   H     0.04190   0.87655  -0.05417   0.00000  Uiso   1.00
H136   H     0.06911   0.84944  -0.06487   0.00000  Uiso   1.00
H137   H     0.98120   0.92385   0.02252   0.00000  Uiso   1.00
H138   H     0.24492   0.81153  -0.36257   0.00000  Uiso   1.00
H139   H     0.24096   0.84896  -0.60068   0.00000  Uiso   1.00
H140   H     0.21141   0.71105  -0.10041   0.00000  Uiso   1.00
H141   H     0.18467   0.73866  -0.09485   0.00000  Uiso   1.00
H142   H     0.35247   0.74258   0.02080   0.00000  Uiso   1.00
H143   H     0.18721   0.75415   0.33649   0.00000  Uiso   1.00
H144   H     0.14750   0.75623   0.57799   0.00000  Uiso   1.00
H145   H     0.29141   0.79003   0.08452   0.00000  Uiso   1.00
H146   H     0.26430   0.81726   0.09424   0.00000  Uiso   1.00
H147   H     0.25772   0.64862  -0.04980   0.00000  Uiso   1.00
H148   H     0.16020   0.84356  -0.11547   0.00000  Uiso   1.00
H149   H     0.14631   0.91274  -0.32475   0.00000  Uiso   1.00
H150   H     0.18597   0.91060  -0.56609   0.00000  Uiso   1.00
H151   H     0.12277   0.95668   0.09985   0.00000  Uiso   1.00
H152   H     0.14961   0.92918   0.09492   0.00000  Uiso   1.00
H153   H     0.07598   0.01823   0.03789   0.00000  Uiso   1.00
H154   H     0.12235   0.78842   0.59694   0.00000  Uiso   1.00
H155   H     0.21137   0.87864  -0.58331   0.00000  Uiso   1.00
H156   H     0.17402   0.82398   0.13199   0.00000  Uiso   1.00
C157   C     0.02788   0.08131   0.03257   0.00000  Uiso   1.00
N158   N     0.16520   0.30089   0.19775   0.00000  Uiso   1.00
C159   C     0.14904   0.27132   0.17325   0.00000  Uiso   1.00
C160   C     0.15431   0.25674   0.34831   0.00000  Uiso   1.00
C161   C     0.17351   0.27789   0.47048   0.00000  Uiso   1.00
C162   C     0.11172   0.17713  -0.02196   0.00000  Uiso   1.00
C163   C     0.12719   0.20804  -0.02825   0.00000  Uiso   1.00
C164   C     0.05450   0.05499   0.02709   0.00000  Uiso   1.00
C165   C     0.02751   0.02732   0.03029   0.00000  Uiso   1.00
C166   C     0.30516   0.58533  -0.02451   0.00000  Uiso   1.00
N167   N     0.16750   0.36575  -0.18296   0.00000  Uiso   1.00
C168   C     0.15242   0.36078  -0.36051   0.00000  Uiso   1.00
C169   C     0.18367   0.39532  -0.15846   0.00000  Uiso   1.00
C170   C     0.17847   0.40991  -0.33366   0.00000  Uiso   1.00
C171   C     0.15932   0.38877  -0.45610   0.00000  Uiso   1.00
C172   C     0.26578   0.48897  -0.05774   0.00000  Uiso   1.00
C173   C     0.25013   0.45804  -0.05462   0.00000  Uiso   1.00
O174   O     0.30119   0.55704  -0.03320   0.00000  Uiso   1.00
C175   C     0.27881   0.61186   0.00187   0.00000  Uiso   1.00
C176   C     0.30579   0.63942  -0.01234   0.00000  Uiso   1.00
C177   C     0.27929   0.58555  -0.00381   0.00000  Uiso   1.00
C178   C     0.20782   0.36121   0.36936   0.00000  Uiso   1.00
C179   C     0.20934   0.39540   0.16853   0.00000  Uiso   1.00
C180   C     0.23089   0.40955   0.31893   0.00000  Uiso   1.00
C181   C     0.22988   0.38787   0.44535   0.00000  Uiso   1.00
C182   C     0.22143   0.48954   0.04544   0.00000  Uiso   1.00
C183   C     0.20589   0.45862   0.05116   0.00000  Uiso   1.00
C184   C     0.33215   0.61141  -0.03115   0.00000  Uiso   1.00
C185   C     0.33318   0.63919  -0.01758   0.00000  Uiso   1.00
C186   C     0.05389   0.08119   0.02715   0.00000  Uiso   1.00
N187   N     0.13769   0.30073  -0.18936   0.00000  Uiso   1.00
C188   C     0.12501   0.30543  -0.35532   0.00000  Uiso   1.00
C189   C     0.12340   0.27123  -0.15415   0.00000  Uiso   1.00
C190   C     0.10208   0.25708  -0.30596   0.00000  Uiso   1.00
C191   C     0.10312   0.27877  -0.43249   0.00000  Uiso   1.00
C192   C     0.06672   0.17754   0.06397   0.00000  Uiso   1.00
C193   C     0.08232   0.20846   0.06107   0.00000  Uiso   1.00
O194   O     0.07846   0.10932   0.02187   0.00000  Uiso   1.00
C195   C     0.00097   0.05523   0.03369   0.00000  Uiso   1.00
C196   C     0.20028   0.33370   0.45638   0.00000  Uiso   1.00
C197   C     0.13255   0.33296  -0.44224   0.00000  Uiso   1.00
C198   C     0.08136   0.16172   0.02311   0.00000  Uiso   1.00
B199   B     0.06398   0.12714   0.02740   0.00000  Uiso   1.00
C200   C     0.20355   0.40996   0.00548   0.00000  Uiso   1.00
C201   C     0.25150   0.50489  -0.00813   0.00000  Uiso   1.00
C202   C     0.22016   0.44272   0.00119   0.00000  Uiso   1.00
B203   B     0.26898   0.53950  -0.01209   0.00000  Uiso   1.00
C204   C     0.18035   0.30587   0.37502   0.00000  Uiso   1.00
O205   O     0.03167   0.10953   0.03494   0.00000  Uiso   1.00
N206   N     0.19496   0.36591   0.20439   0.00000  Uiso   1.00
O207   O     0.25472   0.55744   0.00734   0.00000  Uiso   1.00
C208   C     0.12915   0.25666   0.00923   0.00000  Uiso   1.00
C209   C     0.11259   0.22388   0.01338   0.00000  Uiso   1.00
C210   C     0.00004   0.02744   0.03118   0.00000  Uiso   1.00
H211   H     0.14432   0.23326   0.37744   0.00000  Uiso   1.00
H212   H     0.18184   0.27467   0.61483   0.00000  Uiso   1.00
H213   H     0.12345   0.16535  -0.05417   0.00000  Uiso   1.00
H214   H     0.15056   0.21967  -0.06487   0.00000  Uiso   1.00
H215   H     0.07615   0.05734   0.02252   0.00000  Uiso   1.00
H216   H     0.18847   0.43340  -0.36257   0.00000  Uiso   1.00
H217   H     0.15104   0.39200  -0.60068   0.00000  Uiso   1.00
H218   H     0.28895   0.50037  -0.10041   0.00000  Uiso   1.00
H219   H     0.26134   0.44601  -0.09485   0.00000  Uiso   1.00
H220   H     0.25742   0.60989   0.02080   0.00000  Uiso   1.00
H221   H     0.24585   0.43306   0.33649   0.00000  Uiso   1.00
H222   H     0.24377   0.39127   0.57799   0.00000  Uiso   1.00
H223   H     0.20997   0.50137   0.08452   0.00000  Uiso   1.00
H224   H     0.18274   0.44704   0.09424   0.00000  Uiso   1.00
H225   H     0.35138   0.60910  -0.04980   0.00000  Uiso   1.00
H226   H     0.15644   0.31664  -0.11547   0.00000  Uiso   1.00
H227   H     0.08726   0.23357  -0.32475   0.00000  Uiso   1.00
H228   H     0.08940   0.27537  -0.56609   0.00000  Uiso   1.00
H229   H     0.04332   0.16608   0.09985   0.00000  Uiso   1.00
H230   H     0.07082   0.22043   0.09492   0.00000  Uiso   1.00
H231   H     0.98177   0.05775   0.03789   0.00000  Uiso   1.00
H232   H     0.21158   0.33393   0.59694   0.00000  Uiso   1.00
H233   H     0.12136   0.33273  -0.58331   0.00000  Uiso   1.00
H234   H     0.17602   0.35004   0.13199   0.00000  Uiso   1.00
C235   C     0.08131   0.05343   0.53257   0.00000  Uiso   1.00
N236   N     0.30089   0.13569   0.69775   0.00000  Uiso   1.00
C237   C     0.27132   0.12228   0.67325   0.00000  Uiso   1.00
C238   C     0.25674   0.10243   0.84831   0.00000  Uiso   1.00
C239   C     0.27789   0.10438   0.97048   0.00000  Uiso   1.00
C240   C     0.17713   0.06542   0.47804   0.00000  Uiso   1.00
C241   C     0.20804   0.08085   0.47175   0.00000  Uiso   1.00
C242   C     0.05499   0.00050   0.52709   0.00000  Uiso   1.00
C243   C     0.02732   0.99981   0.53029   0.00000  Uiso   1.00
C244   C     0.58533   0.28017   0.47549   0.00000  Uiso   1.00
N245   N     0.36575   0.19825   0.31704   0.00000  Uiso   1.00
C246   C     0.36078   0.20837   0.13949   0.00000  Uiso   1.00
C247   C     0.39532   0.21165   0.34154   0.00000  Uiso   1.00
C248   C     0.40991   0.23144   0.16634   0.00000  Uiso   1.00
C249   C     0.38877   0.22946   0.04390   0.00000  Uiso   1.00
C250   C     0.48897   0.22319   0.44226   0.00000  Uiso   1.00
C251   C     0.45804   0.20792   0.44538   0.00000  Uiso   1.00
O252   O     0.55704   0.25585   0.46680   0.00000  Uiso   1.00
C253   C     0.61186   0.33305   0.50187   0.00000  Uiso   1.00
C254   C     0.63942   0.33363   0.48766   0.00000  Uiso   1.00
C255   C     0.58555   0.30627   0.49619   0.00000  Uiso   1.00
C256   C     0.36121   0.15340   0.86936   0.00000  Uiso   1.00
C257   C     0.39540   0.18606   0.66853   0.00000  Uiso   1.00
C258   C     0.40955   0.17867   0.81893   0.00000  Uiso   1.00
C259   C     0.38787   0.15799   0.94535   0.00000  Uiso   1.00
C260   C     0.48954   0.26811   0.54544   0.00000  Uiso   1.00
C261   C     0.45862   0.25273   0.55116   0.00000  Uiso   1.00
C262   C     0.61141   0.27927   0.46885   0.00000  Uiso   1.00
C263   C     0.63919   0.30601   0.48242   0.00000  Uiso   1.00
C264   C     0.08119   0.02730   0.52715   0.00000  Uiso   1.00
N265   N     0.30073   0.16304   0.31064   0.00000  Uiso   1.00
C266   C     0.30543   0.18043   0.14468   0.00000  Uiso   1.00
C267   C     0.27123   0.14783   0.34585   0.00000  Uiso   1.00
C268   C     0.25708   0.15500   0.19404   0.00000  Uiso   1.00
C269   C     0.27876   0.17564   0.06751   0.00000  Uiso   1.00
C270   C     0.17754   0.11082   0.56397   0.00000  Uiso   1.00
C271   C     0.20846   0.12615   0.56107   0.00000  Uiso   1.00
O272   O     0.10932   0.03086   0.52187   0.00000  Uiso   1.00
C273   C     0.05523   0.05426   0.53369   0.00000  Uiso   1.00
C274   C     0.33370   0.13341   0.95638   0.00000  Uiso   1.00
C275   C     0.33296   0.20041   0.05776   0.00000  Uiso   1.00
C276   C     0.16172   0.08035   0.52311   0.00000  Uiso   1.00
B277   B     0.12714   0.06316   0.52740   0.00000  Uiso   1.00
C278   C     0.40996   0.20641   0.50548   0.00000  Uiso   1.00
C279   C     0.50489   0.25339   0.49187   0.00000  Uiso   1.00
C280   C     0.44272   0.22257   0.50119   0.00000  Uiso   1.00
B281   B     0.53950   0.27052   0.48791   0.00000  Uiso   1.00
C282   C     0.30587   0.12551   0.87502   0.00000  Uiso   1.00
O283   O     0.10953   0.07787   0.53494   0.00000  Uiso   1.00
N284   N     0.36591   0.17095   0.70439   0.00000  Uiso   1.00
O285   O     0.55744   0.30272   0.50734   0.00000  Uiso   1.00
C286   C     0.25666   0.12751   0.50923   0.00000  Uiso   1.00
C287   C     0.22388   0.11129   0.51338   0.00000  Uiso   1.00
C288   C     0.02744   0.02739   0.53118   0.00000  Uiso   1.00
H289   H     0.23326   0.08894   0.87744   0.00000  Uiso   1.00
H290   H     0.27466   0.09282   1.11483   0.00000  Uiso   1.00
H291   H     0.16535   0.04190   0.44583   0.00000  Uiso   1.00
H292   H     0.21967   0.06911   0.43513   0.00000  Uiso   1.00
H293   H     0.05734   0.98120   0.52252   0.00000  Uiso   1.00
H294   H     0.43340   0.24492   0.13743   0.00000  Uiso   1.00
H295   H     0.39200   0.24096  -0.10068   0.00000  Uiso   1.00
H296   H     0.50036   0.21141   0.39959   0.00000  Uiso   1.00
H297   H     0.44601   0.18467   0.40515   0.00000  Uiso   1.00
H298   H     0.60989   0.35247   0.52080   0.00000  Uiso   1.00
H299   H     0.43306   0.18721   0.83649   0.00000  Uiso   1.00
H300   H     0.39127   0.14750   1.07799   0.00000  Uiso   1.00
H301   H     0.50137   0.29141   0.58452   0.00000  Uiso   1.00
H302   H     0.44704   0.26430   0.59424   0.00000  Uiso   1.00
H303   H     0.60910   0.25772   0.45020   0.00000  Uiso   1.00
H304   H     0.31664   0.16020   0.38453   0.00000  Uiso   1.00
H305   H     0.23357   0.14631   0.17525   0.00000  Uiso   1.00
H306   H     0.27537   0.18597  -0.06609   0.00000  Uiso   1.00
H307   H     0.16608   0.12277   0.59985   0.00000  Uiso   1.00
H308   H     0.22043   0.14961   0.59492   0.00000  Uiso   1.00
H309   H     0.05775   0.07598   0.53789   0.00000  Uiso   1.00
H310   H     0.33393   0.12235   1.09694   0.00000  Uiso   1.00
H311   H     0.33273   0.21137  -0.08331   0.00000  Uiso   1.00
H312   H     0.35004   0.17402   0.63199   0.00000  Uiso   1.00
C313   C     0.94657   0.02788   0.53257   0.00000  Uiso   1.00
N314   N     0.86431   0.16520   0.69775   0.00000  Uiso   1.00
C315   C     0.87772   0.14904   0.67325   0.00000  Uiso   1.00
C316   C     0.89757   0.15431   0.84831   0.00000  Uiso   1.00
C317   C     0.89562   0.17351   0.97048   0.00000  Uiso   1.00
C318   C     0.93458   0.11172   0.47804   0.00000  Uiso   1.00
C319   C     0.91915   0.12719   0.47175   0.00000  Uiso   1.00
C320   C     0.99950   0.05450   0.52709   0.00000  Uiso   1.00
C321   C     0.00019   0.02751   0.53029   0.00000  Uiso   1.00
C322   C     0.71983   0.30516   0.47549   0.00000  Uiso   1.00
N323   N     0.80175   0.16750   0.31704   0.00000  Uiso   1.00
C324   C     0.79163   0.15242   0.13949   0.00000  Uiso   1.00
C325   C     0.78835   0.18367   0.34154   0.00000  Uiso   1.00
C326   C     0.76856   0.17847   0.16634   0.00000  Uiso   1.00
C327   C     0.77054   0.15932   0.04390   0.00000  Uiso   1.00
C328   C     0.77682   0.26578   0.44226   0.00000  Uiso   1.00
C329   C     0.79208   0.25013   0.44538   0.00000  Uiso   1.00
O330   O     0.74415   0.30119   0.46680   0.00000  Uiso   1.00
C331   C     0.66695   0.27881   0.50187   0.00000  Uiso   1.00
C332   C     0.66637   0.30579   0.48766   0.00000  Uiso   1.00
C333   C     0.69373   0.27929   0.49619   0.00000  Uiso   1.00
C334   C     0.84660   0.20782   0.86936   0.00000  Uiso   1.00
C335   C     0.81394   0.20934   0.66853   0.00000  Uiso   1.00
C336   C     0.82133   0.23089   0.81893   0.00000  Uiso   1.00
C337   C     0.84201   0.22988   0.94535   0.00000  Uiso   1.00
C338   C     0.73189   0.22143   0.54544   0.00000  Uiso   1.00
C339   C     0.74727   0.20589   0.55116   0.00000  Uiso   1.00
C340   C     0.72073   0.33215   0.46885   0.00000  Uiso   1.00
C341   C     0.69399   0.33318   0.48242   0.00000  Uiso   1.00
C342   C     0.97270   0.05389   0.52715   0.00000  Uiso   1.00
N343   N     0.83696   0.13769   0.31064   0.00000  Uiso   1.00
C344   C     0.81958   0.12501   0.14468   0.00000  Uiso   1.00
C345   C     0.85218   0.12340   0.34585   0.00000  Uiso   1.00
C346   C     0.84500   0.10207   0.19404   0.00000  Uiso   1.00
C347   C     0.82436   0.10312   0.06751   0.00000  Uiso   1.00
C348   C     0.88918   0.06672   0.56397   0.00000  Uiso   1.00
C349   C     0.87385   0.08232   0.56107   0.00000  Uiso   1.00
O350   O     0.96914   0.07846   0.52187   0.00000  Uiso   1.00
C351   C     0.94574   0.00097   0.53369   0.00000  Uiso   1.00
C352   C     0.86659   0.20028   0.95638   0.00000  Uiso   1.00
C353   C     0.79959   0.13255   0.05776   0.00000  Uiso   1.00
C354   C     0.91965   0.08136   0.52311   0.00000  Uiso   1.00
B355   B     0.93684   0.06398   0.52740   0.00000  Uiso   1.00
C356   C     0.79359   0.20355   0.50548   0.00000  Uiso   1.00
C357   C     0.74661   0.25150   0.49187   0.00000  Uiso   1.00
C358   C     0.77744   0.22015   0.50119   0.00000  Uiso   1.00
B359   B     0.72948   0.26898   0.48791   0.00000  Uiso   1.00
C360   C     0.87449   0.18035   0.87502   0.00000  Uiso   1.00
O361   O     0.92213   0.03167   0.53494   0.00000  Uiso   1.00
N362   N     0.82905   0.19496   0.70439   0.00000  Uiso   1.00
O363   O     0.69728   0.25472   0.50734   0.00000  Uiso   1.00
C364   C     0.87249   0.12915   0.50923   0.00000  Uiso   1.00
C365   C     0.88871   0.11259   0.51338   0.00000  Uiso   1.00
C366   C     0.97261   0.00004   0.53118   0.00000  Uiso   1.00
H367   H     0.91106   0.14432   0.87744   0.00000  Uiso   1.00
H368   H     0.90718   0.18184   1.11483   0.00000  Uiso   1.00
H369   H     0.95810   0.12345   0.44583   0.00000  Uiso   1.00
H370   H     0.93089   0.15056   0.43513   0.00000  Uiso   1.00
H371   H     0.01880   0.07615   0.52252   0.00000  Uiso   1.00
H372   H     0.75508   0.18847   0.13743   0.00000  Uiso   1.00
H373   H     0.75904   0.15104  -0.10068   0.00000  Uiso   1.00
H374   H     0.78859   0.28895   0.39959   0.00000  Uiso   1.00
H375   H     0.81533   0.26135   0.40515   0.00000  Uiso   1.00
H376   H     0.64753   0.25742   0.52080   0.00000  Uiso   1.00
H377   H     0.81279   0.24585   0.83649   0.00000  Uiso   1.00
H378   H     0.85250   0.24377   1.07799   0.00000  Uiso   1.00
H379   H     0.70860   0.20997   0.58452   0.00000  Uiso   1.00
H380   H     0.73570   0.18274   0.59424   0.00000  Uiso   1.00
H381   H     0.74228   0.35138   0.45020   0.00000  Uiso   1.00
H382   H     0.83980   0.15644   0.38453   0.00000  Uiso   1.00
H383   H     0.85370   0.08726   0.17525   0.00000  Uiso   1.00
H384   H     0.81403   0.08940  -0.06609   0.00000  Uiso   1.00
H385   H     0.87724   0.04332   0.59985   0.00000  Uiso   1.00
H386   H     0.85039   0.07082   0.59492   0.00000  Uiso   1.00
H387   H     0.92402   0.98177   0.53789   0.00000  Uiso   1.00
H388   H     0.87765   0.21158   1.09694   0.00000  Uiso   1.00
H389   H     0.78863   0.12136  -0.08331   0.00000  Uiso   1.00
H390   H     0.82598   0.17602   0.63199   0.00000  Uiso   1.00
C391   C     0.97212   0.91869   0.53257   0.00000  Uiso   1.00
N392   N     0.83480   0.69911   0.69775   0.00000  Uiso   1.00
C393   C     0.85096   0.72868   0.67325   0.00000  Uiso   1.00
C394   C     0.84569   0.74326   0.84831   0.00000  Uiso   1.00
C395   C     0.82649   0.72211   0.97048   0.00000  Uiso   1.00
C396   C     0.88828   0.82287   0.47804   0.00000  Uiso   1.00
C397   C     0.87281   0.79196   0.47175   0.00000  Uiso   1.00
C398   C     0.94550   0.94501   0.52709   0.00000  Uiso   1.00
C399   C     0.97249   0.97268   0.53029   0.00000  Uiso   1.00
C400   C     0.69484   0.41467   0.47549   0.00000  Uiso   1.00
N401   N     0.83250   0.63425   0.31704   0.00000  Uiso   1.00
C402   C     0.84758   0.63922   0.13949   0.00000  Uiso   1.00
C403   C     0.81633   0.60468   0.34154   0.00000  Uiso   1.00
C404   C     0.82153   0.59009   0.16634   0.00000  Uiso   1.00
C405   C     0.84068   0.61123   0.04390   0.00000  Uiso   1.00
C406   C     0.73422   0.51103   0.44226   0.00000  Uiso   1.00
C407   C     0.74987   0.54196   0.44538   0.00000  Uiso   1.00
O408   O     0.69881   0.44296   0.46680   0.00000  Uiso   1.00
C409   C     0.72119   0.38814   0.50187   0.00000  Uiso   1.00
C410   C     0.69421   0.36058   0.48766   0.00000  Uiso   1.00
C411   C     0.72071   0.41445   0.49619   0.00000  Uiso   1.00
C412   C     0.79218   0.63879   0.86936   0.00000  Uiso   1.00
C413   C     0.79066   0.60460   0.66853   0.00000  Uiso   1.00
C414   C     0.76911   0.59045   0.81893   0.00000  Uiso   1.00
C415   C     0.77012   0.61213   0.94535   0.00000  Uiso   1.00
C416   C     0.77857   0.51047   0.54544   0.00000  Uiso   1.00
C417   C     0.79411   0.54138   0.55116   0.00000  Uiso   1.00
C418   C     0.66785   0.38859   0.46885   0.00000  Uiso   1.00
C419   C     0.66682   0.36081   0.48242   0.00000  Uiso   1.00
C420   C     0.94611   0.91881   0.52715   0.00000  Uiso   1.00
N421   N     0.86231   0.69927   0.31064   0.00000  Uiso   1.00
C422   C     0.87499   0.69457   0.14468   0.00000  Uiso   1.00
C423   C     0.87660   0.72877   0.34585   0.00000  Uiso   1.00
C424   C     0.89793   0.74292   0.19404   0.00000  Uiso   1.00
C425   C     0.89688   0.72123   0.06751   0.00000  Uiso   1.00
C426   C     0.93328   0.82246   0.56397   0.00000  Uiso   1.00
C427   C     0.91768   0.79154   0.56107   0.00000  Uiso   1.00
O428   O     0.92154   0.89068   0.52187   0.00000  Uiso   1.00
C429   C     0.99903   0.94477   0.53369   0.00000  Uiso   1.00
C430   C     0.79972   0.66630   0.95638   0.00000  Uiso   1.00
C431   C     0.86745   0.66704   0.05776   0.00000  Uiso   1.00
C432   C     0.91864   0.83828   0.52311   0.00000  Uiso   1.00
B433   B     0.93602   0.87286   0.52740   0.00000  Uiso   1.00
C434   C     0.79645   0.59004   0.50548   0.00000  Uiso   1.00
C435   C     0.74850   0.49511   0.49187   0.00000  Uiso   1.00
C436   C     0.77985   0.55728   0.50119   0.00000  Uiso   1.00
B437   B     0.73102   0.46050   0.48791   0.00000  Uiso   1.00
C438   C     0.81965   0.69413   0.87502   0.00000  Uiso   1.00
O439   O     0.96833   0.89047   0.53494   0.00000  Uiso   1.00
N440   N     0.80504   0.63409   0.70439   0.00000  Uiso   1.00
O441   O     0.74528   0.44256   0.50734   0.00000  Uiso   1.00
C442   C     0.87085   0.74334   0.50923   0.00000  Uiso   1.00
C443   C     0.88741   0.77612   0.51338   0.00000  Uiso   1.00
C444   C     0.99996   0.97257   0.53118   0.00000  Uiso   1.00
H445   H     0.85568   0.76674   0.87744   0.00000  Uiso   1.00
H446   H     0.81816   0.72534   1.11483   0.00000  Uiso   1.00
H447   H     0.87655   0.83465   0.44583   0.00000  Uiso   1.00
H448   H     0.84944   0.78033   0.43513   0.00000  Uiso   1.00
H449   H     0.92386   0.94266   0.52252   0.00000  Uiso   1.00
H450   H     0.81153   0.56660   0.13743   0.00000  Uiso   1.00
H451   H     0.84896   0.60800  -0.10068   0.00000  Uiso   1.00
H452   H     0.71105   0.49963   0.39959   0.00000  Uiso   1.00
H453   H     0.73866   0.55399   0.40515   0.00000  Uiso   1.00
H454   H     0.74258   0.39011   0.52080   0.00000  Uiso   1.00
H455   H     0.75415   0.56694   0.83649   0.00000  Uiso   1.00
H456   H     0.75623   0.60873   1.07799   0.00000  Uiso   1.00
H457   H     0.79003   0.49863   0.58452   0.00000  Uiso   1.00
H458   H     0.81726   0.55296   0.59424   0.00000  Uiso   1.00
H459   H     0.64862   0.39090   0.45020   0.00000  Uiso   1.00
H460   H     0.84356   0.68336   0.38453   0.00000  Uiso   1.00
H461   H     0.91274   0.76643   0.17525   0.00000  Uiso   1.00
H462   H     0.91060   0.72463  -0.06609   0.00000  Uiso   1.00
H463   H     0.95668   0.83392   0.59985   0.00000  Uiso   1.00
H464   H     0.92918   0.77957   0.59492   0.00000  Uiso   1.00
H465   H     0.01823   0.94225   0.53789   0.00000  Uiso   1.00
H466   H     0.78842   0.66607   1.09694   0.00000  Uiso   1.00
H467   H     0.87864   0.66727  -0.08331   0.00000  Uiso   1.00
H468   H     0.82398   0.64996   0.63199   0.00000  Uiso   1.00
loop_
_geom_bond_atom_site_label_1
_geom_bond_atom_site_label_2
_geom_bond_distance
_geom_bond_site_symmetry_2
_ccdc_geom_bond_type
C1     C30     1.361   .     D
C1     C39     1.384   .     S
C1     O49     1.385   .     S
N2     C3      1.348   .     S
N2     C48     1.347   .     D
C3     C4      1.469   .     S
C3     C52     1.416   .     D
C4     C5      1.322   .     D
C4     H55     1.082   .     S
C5     C48     1.457   .     S
C5     H56     1.082   .     S
C6     C7      1.398   .     S
C6     C42     1.403   .     D
C6     H57     1.084   .     S
C7     C53     1.403   .     D
C7     H58     1.083   .     S
C8     C9      1.427   1_565 D
C8     C30     1.384   .     S
C8     H59     1.074   1_565 S
C9     C8      1.427   1_545 D
C9     C54     1.437   1_545 S
C9     C210    1.425   1_655 S
C10    O18     1.386   .     S
C10    C21     1.363   .     D
C10    C28     1.386   .     S
N11    C12     1.347   .     S
N11    C13     1.348   .     D
C12    C15     1.457   .     S
C12    C41     1.400   .     D
C13    C14     1.469   .     S
C13    C44     1.415   .     S
C14    C15     1.322   .     D
C14    H60     1.082   .     S
C15    H61     1.082   .     S
C16    C17     1.398   .     D
C16    C45     1.404   .     S
C16    H62     1.083   .     S
C17    C46     1.403   .     S
C17    H63     1.083   .     S
O18    B47     1.464   .     S
C19    C20     1.427   .     D
C19    C21     1.386   .     S
C19    H64     1.076   .     S
C20    C29     1.436   .     S
C20    C185    1.425   .     S
C21    O51     1.386   .     S
C22    C25     1.380   .     S
C22    C40     1.405   .     D
C22    N50     1.351   .     S
C23    C24     1.391   .     S
C23    C44     1.422   .     D
C23    N50     1.353   .     S
C24    C25     1.378   .     D
C24    H65     1.082   .     S
C25    H66     1.082   .     S
C26    C27     1.398   .     S
C26    C45     1.403   .     D
C26    H67     1.083   .     S
C27    C46     1.402   .     D
C27    H68     1.083   .     S
C28    C29     1.427   .     D
C28    H69     1.076   .     S
C29    C98     1.425   .     S
C30    O38     1.385   .     S
N31    C32     1.351   .     S
N31    C33     1.353   .     S
N31    H70     1.032   .     S
C32    C35     1.380   .     D
C32    C41     1.405   .     S
C33    C34     1.392   .     D
C33    C52     1.423   .     S
C34    C35     1.378   .     S
C34    H71     1.082   .     S
C35    H72     1.082   .     S
C36    C37     1.398   .     D
C36    C42     1.403   .     S
C36    H73     1.083   .     S
C37    C53     1.403   .     S
C37    H74     1.083   .     S
O38    B43     1.463   .     S
C39    C54     1.427   .     D
C39    H75     1.074   .     S
C40    C48     1.400   .     S
C40    H76     1.084   .     S
C41    H77     1.084   .     S
C42    B43     1.563   .     S
B43    O49     1.463   .     S
C44    C46     1.481   .     S
C45    B47     1.565   .     S
B47    O51     1.464   .     S
N50    H78     1.033   .     S
C52    C53     1.482   .     S
C54    C9      1.437   1_565 S
C54    C87     1.425   .     S
H59    C8      1.074   1_545 S
C79    C108    1.361   .     S
C79    C117    1.384   .     D
C79    O127    1.385   .     S
N80    C81     1.348   .     S
N80    C126    1.347   .     D
C81    C82     1.469   .     S
C81    C130    1.416   .     D
C82    C83     1.322   .     D
C82    H133    1.082   .     S
C83    C126    1.457   .     S
C83    H134    1.082   .     S
C84    C85     1.398   .     S
C84    C120    1.403   .     D
C84    H135    1.084   .     S
C85    C131    1.403   .     D
C85    H136    1.083   .     S
C86    C87     1.427   1_455 S
C86    C108    1.384   .     D
C86    H137    1.074   1_455 S
C87    C86     1.427   1_655 S
C87    C132    1.437   1_655 D
C88    O96     1.386   .     S
C88    C99     1.363   .     D
C88    C106    1.386   .     S
N89    C90     1.347   .     S
N89    C91     1.348   .     D
C90    C93     1.457   .     S
C90    C119    1.400   .     D
C91    C92     1.469   .     S
C91    C122    1.415   .     S
C92    C93     1.322   .     D
C92    H138    1.082   .     S
C93    H139    1.082   .     S
C94    C95     1.398   .     D
C94    C123    1.404   .     S
C94    H140    1.083   .     S
C95    C124    1.403   .     S
C95    H141    1.083   .     S
O96    B125    1.464   .     S
C97    C98     1.427   .     D
C97    C99     1.386   .     S
C97    H142    1.076   .     S
C98    C107    1.436   .     S
C99    O129    1.386   .     S
C100   C103    1.380   .     S
C100   C118    1.405   .     D
C100   N128    1.351   .     S
C101   C102    1.391   .     S
C101   C122    1.422   .     D
C101   N128    1.353   .     S
C102   C103    1.378   .     D
C102   H143    1.082   .     S
C103   H144    1.082   .     S
C104   C105    1.398   .     S
C104   C123    1.403   .     D
C104   H145    1.084   .     S
C105   C124    1.402   .     D
C105   H146    1.083   .     S
C106   C107    1.427   .     D
C106   H147    1.076   .     S
C107   C176    1.425   .     S
C108   O116    1.385   .     S
N109   C110    1.351   .     S
N109   C111    1.354   .     S
N109   H148    1.032   .     S
C110   C113    1.380   .     D
C110   C119    1.405   .     S
C111   C112    1.392   .     D
C111   C130    1.423   .     S
C112   C113    1.378   .     S
C112   H149    1.082   .     S
C113   H150    1.083   .     S
C114   C115    1.398   .     D
C114   C120    1.403   .     S
C114   H151    1.084   .     S
C115   C131    1.403   .     S
C115   H152    1.083   .     S
O116   B121    1.463   .     S
C117   C132    1.427   .     S
C117   H153    1.074   1_565 S
C118   C126    1.400   .     S
C118   H154    1.084   .     S
C119   H155    1.084   .     S
C120   B121    1.563   .     S
B121   O127    1.463   .     S
C122   C124    1.481   .     S
C123   B125    1.565   .     S
B125   O129    1.464   .     S
N128   H156    1.033   .     S
C130   C131    1.482   .     S
C132   C87     1.437   1_455 D
C132   C165    1.425   1_565 S
H137   C86     1.074   1_655 S
H153   C117    1.074   1_545 S
C157   C186    1.361   .     S
C157   C195    1.384   .     D
C157   O205    1.385   .     S
N158   C159    1.348   .     S
N158   C204    1.347   .     D
C159   C160    1.469   .     S
C159   C208    1.416   .     D
C160   C161    1.322   .     D
C160   H211    1.082   .     S
C161   C204    1.457   .     S
C161   H212    1.082   .     S
C162   C163    1.398   .     S
C162   C198    1.403   .     D
C162   H213    1.084   .     S
C163   C209    1.403   .     D
C163   H214    1.083   .     S
C164   C165    1.427   .     S
C164   C186    1.384   .     D
C164   H215    1.074   .     S
C165   C132    1.425   1_545 S
C165   C210    1.437   .     D
C166   O174    1.386   .     S
C166   C177    1.363   .     D
C166   C184    1.386   .     S
N167   C168    1.347   .     S
N167   C169    1.348   .     D
C168   C171    1.457   .     S
C168   C197    1.400   .     D
C169   C170    1.469   .     S
C169   C200    1.415   .     S
C170   C171    1.322   .     D
C170   H216    1.082   .     S
C171   H217    1.082   .     S
C172   C173    1.398   .     D
C172   C201    1.404   .     S
C172   H218    1.083   .     S
C173   C202    1.403   .     S
C173   H219    1.083   .     S
O174   B203    1.464   .     S
C175   C176    1.427   .     D
C175   C177    1.386   .     S
C175   H220    1.076   .     S
C176   C185    1.436   .     S
C177   O207    1.386   .     S
C178   C181    1.380   .     S
C178   C196    1.405   .     D
C178   N206    1.351   .     S
C179   C180    1.391   .     S
C179   C200    1.422   .     D
C179   N206    1.353   .     S
C180   C181    1.378   .     D
C180   H221    1.082   .     S
C181   H222    1.082   .     S
C182   C183    1.398   .     S
C182   C201    1.403   .     D
C182   H223    1.083   .     S
C183   C202    1.402   .     D
C183   H224    1.083   .     S
C184   C185    1.427   .     D
C184   H225    1.076   .     S
C186   O194    1.385   .     S
N187   C188    1.351   .     S
N187   C189    1.353   .     S
N187   H226    1.032   .     S
C188   C191    1.380   .     D
C188   C197    1.405   .     S
C189   C190    1.392   .     D
C189   C208    1.423   .     S
C190   C191    1.378   .     S
C190   H227    1.082   .     S
C191   H228    1.083   .     S
C192   C193    1.398   .     D
C192   C198    1.403   .     S
C192   H229    1.084   .     S
C193   C209    1.403   .     S
C193   H230    1.083   .     S
O194   B199    1.463   .     S
C195   C210    1.427   .     S
C195   H231    1.074   1_455 S
C196   C204    1.400   .     S
C196   H232    1.084   .     S
C197   H233    1.084   .     S
C198   B199    1.563   .     S
B199   O205    1.463   .     S
C200   C202    1.481   .     S
C201   B203    1.565   .     S
B203   O207    1.464   .     S
N206   H234    1.033   .     S
C208   C209    1.482   .     S
C210   C9      1.425   1_455 S
H231   C195    1.074   1_655 S
C235   C264    1.361   .     S
C235   C273    1.384   .     D
C235   O283    1.385   .     S
N236   C237    1.348   .     D
N236   C282    1.347   .     S
C237   C238    1.469   .     S
C237   C286    1.416   .     S
C238   C239    1.322   .     D
C238   H289    1.082   .     S
C239   C282    1.457   .     S
C239   H290    1.082   .     S
C240   C241    1.398   .     S
C240   C276    1.403   .     D
C240   H291    1.084   .     S
C241   C287    1.403   .     D
C241   H292    1.083   .     S
C242   C243    1.427   1_545 S
C242   C264    1.384   .     D
C242   H293    1.074   1_545 S
C243   C242    1.427   1_565 S
C243   C288    1.437   1_565 S
C243   C444    1.425   1_455 D
C244   O252    1.386   .     S
C244   C255    1.363   .     D
C244   C262    1.386   .     S
N245   C246    1.347   .     D
N245   C247    1.348   .     S
C246   C249    1.457   .     S
C246   C275    1.400   .     S
C247   C248    1.469   .     S
C247   C278    1.415   .     D
C248   C249    1.322   .     D
C248   H294    1.082   .     S
C249   H295    1.082   .     S
C250   C251    1.398   .     S
C250   C279    1.404   .     D
C250   H296    1.083   .     S
C251   C280    1.403   .     D
C251   H297    1.083   .     S
O252   B281    1.464   .     S
C253   C254    1.427   .     D
C253   C255    1.386   .     S
C253   H298    1.076   .     S
C254   C263    1.436   .     S
C254   C419    1.425   .     S
C255   O285    1.386   .     S
C256   C259    1.380   .     D
C256   C274    1.405   .     S
C256   N284    1.351   .     S
C257   C258    1.391   .     D
C257   C278    1.422   .     S
C257   N284    1.353   .     S
C258   C259    1.378   .     S
C258   H299    1.082   .     S
C259   H300    1.082   .     S
C260   C261    1.398   .     D
C260   C279    1.403   .     S
C260   H301    1.084   .     S
C261   C280    1.402   .     S
C261   H302    1.083   .     S
C262   C263    1.427   .     D
C262   H303    1.076   .     S
C263   C332    1.425   .     S
C264   O272    1.385   .     S
N265   C266    1.351   .     S
N265   C267    1.353   .     S
N265   H304    1.032   .     S
C266   C269    1.380   .     S
C266   C275    1.405   .     D
C267   C268    1.392   .     S
C267   C286    1.423   .     D
C268   C269    1.378   .     D
C268   H305    1.082   .     S
C269   H306    1.082   .     S
C270   C271    1.398   .     D
C270   C276    1.403   .     S
C270   H307    1.083   .     S
C271   C287    1.403   .     S
C271   H308    1.083   .     S
O272   B277    1.463   .     S
C273   C288    1.427   .     S
C273   H309    1.074   .     S
C274   C282    1.400   .     D
C274   H310    1.084   .     S
C275   H311    1.084   .     S
C276   B277    1.563   .     S
B277   O283    1.463   .     S
C278   C280    1.481   .     S
C279   B281    1.565   .     S
B281   O285    1.464   .     S
N284   H312    1.033   .     S
C286   C287    1.482   .     S
C288   C243    1.437   1_545 S
C288   C321    1.425   .     D
H293   C242    1.074   1_565 S
C313   C342    1.361   .     S
C313   C351    1.384   .     D
C313   O361    1.385   .     S
N314   C315    1.348   .     S
N314   C360    1.347   .     D
C315   C316    1.469   .     S
C315   C364    1.416   .     D
C316   C317    1.322   .     D
C316   H367    1.082   .     S
C317   C360    1.457   .     S
C317   H368    1.082   .     S
C318   C319    1.398   .     D
C318   C354    1.403   .     S
C318   H369    1.084   .     S
C319   C365    1.403   .     S
C319   H370    1.083   .     S
C320   C321    1.427   1_655 S
C320   C342    1.384   .     D
C320   H371    1.074   1_655 S
C321   C320    1.427   1_455 S
C321   C366    1.437   1_455 S
C322   O330    1.386   .     S
C322   C333    1.363   .     S
C322   C340    1.386   .     D
N323   C324    1.347   .     S
N323   C325    1.348   .     D
C324   C327    1.457   .     S
C324   C353    1.400   .     D
C325   C326    1.469   .     S
C325   C356    1.415   .     S
C326   C327    1.322   .     D
C326   H372    1.082   .     S
C327   H373    1.082   .     S
C328   C329    1.398   .     D
C328   C357    1.404   .     S
C328   H374    1.083   .     S
C329   C358    1.403   .     S
C329   H375    1.083   .     S
O330   B359    1.464   .     S
C331   C332    1.427   .     S
C331   C333    1.386   .     D
C331   H376    1.076   .     S
C332   C341    1.436   .     D
C333   O363    1.386   .     S
C334   C337    1.380   .     S
C334   C352    1.405   .     D
C334   N362    1.351   .     S
C335   C336    1.391   .     S
C335   C356    1.422   .     D
C335   N362    1.353   .     S
C336   C337    1.378   .     D
C336   H377    1.082   .     S
C337   H378    1.082   .     S
C338   C339    1.398   .     S
C338   C357    1.403   .     D
C338   H379    1.083   .     S
C339   C358    1.402   .     D
C339   H380    1.083   .     S
C340   C341    1.427   .     S
C340   H381    1.076   .     S
C341   C410    1.425   .     S
C342   O350    1.385   .     S
N343   C344    1.351   .     S
N343   C345    1.354   .     S
N343   H382    1.032   .     S
C344   C347    1.380   .     D
C344   C353    1.405   .     S
C345   C346    1.392   .     D
C345   C364    1.423   .     S
C346   C347    1.378   .     S
C346   H383    1.082   .     S
C347   H384    1.083   .     S
C348   C349    1.398   .     S
C348   C354    1.403   .     D
C348   H385    1.084   .     S
C349   C365    1.403   .     D
C349   H386    1.083   .     S
O350   B355    1.463   .     S
C351   C366    1.427   .     S
C351   H387    1.074   1_545 S
C352   C360    1.400   .     S
C352   H388    1.084   .     S
C353   H389    1.084   .     S
C354   B355    1.563   .     S
B355   O361    1.463   .     S
C356   C358    1.481   .     S
C357   B359    1.565   .     S
B359   O363    1.464   .     S
N362   H390    1.033   .     S
C364   C365    1.482   .     S
C366   C321    1.437   1_655 S
C366   C399    1.425   1_545 D
H371   C320    1.074   1_455 S
H387   C351    1.074   1_565 S
C391   C420    1.361   .     S
C391   C429    1.384   .     D
C391   O439    1.385   .     S
N392   C393    1.348   .     S
N392   C438    1.347   .     D
C393   C394    1.469   .     S
C393   C442    1.416   .     D
C394   C395    1.322   .     D
C394   H445    1.082   .     S
C395   C438    1.457   .     S
C395   H446    1.082   .     S
C396   C397    1.398   .     D
C396   C432    1.403   .     S
C396   H447    1.084   .     S
C397   C443    1.403   .     S
C397   H448    1.083   .     S
C398   C399    1.427   .     S
C398   C420    1.384   .     D
C398   H449    1.074   .     S
C399   C366    1.425   1_565 D
C399   C444    1.437   .     S
C400   O408    1.386   .     S
C400   C411    1.363   .     D
C400   C418    1.386   .     S
N401   C402    1.347   .     S
N401   C403    1.348   .     D
C402   C405    1.457   .     S
C402   C431    1.400   .     D
C403   C404    1.469   .     S
C403   C434    1.415   .     S
C404   C405    1.322   .     D
C404   H450    1.082   .     S
C405   H451    1.082   .     S
C406   C407    1.398   .     D
C406   C435    1.404   .     S
C406   H452    1.083   .     S
C407   C436    1.403   .     S
C407   H453    1.083   .     S
O408   B437    1.464   .     S
C409   C410    1.427   .     D
C409   C411    1.386   .     S
C409   H454    1.076   .     S
C410   C419    1.436   .     S
C411   O441    1.386   .     S
C412   C415    1.380   .     S
C412   C430    1.405   .     D
C412   N440    1.351   .     S
C413   C414    1.391   .     S
C413   C434    1.422   .     D
C413   N440    1.353   .     S
C414   C415    1.378   .     D
C414   H455    1.082   .     S
C415   H456    1.082   .     S
C416   C417    1.398   .     S
C416   C435    1.403   .     D
C416   H457    1.083   .     S
C417   C436    1.402   .     D
C417   H458    1.083   .     S
C418   C419    1.427   .     D
C418   H459    1.076   .     S
C420   O428    1.385   .     S
N421   C422    1.351   .     S
N421   C423    1.353   .     S
N421   H460    1.032   .     S
C422   C425    1.380   .     D
C422   C431    1.405   .     S
C423   C424    1.392   .     D
C423   C442    1.423   .     S
C424   C425    1.378   .     S
C424   H461    1.082   .     S
C425   H462    1.083   .     S
C426   C427    1.398   .     S
C426   C432    1.403   .     D
C426   H463    1.084   .     S
C427   C443    1.403   .     D
C427   H464    1.083   .     S
O428   B433    1.463   .     S
C429   C444    1.427   .     S
C429   H465    1.074   1_655 S
C430   C438    1.400   .     S
C430   H466    1.084   .     S
C431   H467    1.084   .     S
C432   B433    1.563   .     S
B433   O439    1.463   .     S
C434   C436    1.481   .     S
C435   B437    1.565   .     S
B437   O441    1.464   .     S
N440   H468    1.033   .     S
C442   C443    1.482   .     S
C444   C243    1.425   1_655 D
H465   C429    1.074   1_455 S
