data_609
_audit_creation_date              2023-09-08
_audit_creation_method            'Materials Studio'
_symmetry_space_group_name_H-M    'P1'
_symmetry_Int_Tables_number       1
_symmetry_cell_setting            triclinic
loop_
_symmetry_equiv_pos_as_xyz
  x,y,z
_cell_length_a                    50.3000
_cell_length_b                    50.3000
_cell_length_c                    3.9000
_cell_angle_alpha                 90.0000
_cell_angle_beta                  90.0000
_cell_angle_gamma                 90.0000
loop_
_atom_site_label
_atom_site_type_symbol
_atom_site_fract_x
_atom_site_fract_y
_atom_site_fract_z
_atom_site_U_iso_or_equiv
_atom_site_adp_type
_atom_site_occupancy
C1     C    -0.52708  -0.35995   0.30593   0.00000  Uiso   1.00
C2     C    -0.54630  -0.34074   0.30549   0.00000  Uiso   1.00
C3     C    -0.53960  -0.38464   0.40736   0.00000  Uiso   1.00
C4     C    -0.57100  -0.35325   0.40669   0.00000  Uiso   1.00
N5     N    -0.56648  -0.38012   0.44521   0.00000  Uiso   1.00
C6     C    -0.53963  -0.43248   0.57023   0.00000  Uiso   1.00
C7     C    -0.52713  -0.45717   0.67239   0.00000  Uiso   1.00
C8     C    -0.54634  -0.47639   0.67146   0.00000  Uiso   1.00
C9     C    -0.57101  -0.46389   0.56893   0.00000  Uiso   1.00
N10    N    -0.56649  -0.43701   0.53077   0.00000  Uiso   1.00
C11    C    -0.61883  -0.46389   0.40462   0.00000  Uiso   1.00
C12    C    -0.64350  -0.47640   0.30208   0.00000  Uiso   1.00
C13    C    -0.66272  -0.45718   0.30172   0.00000  Uiso   1.00
C14    C    -0.65023  -0.43249   0.40398   0.00000  Uiso   1.00
N15    N    -0.62336  -0.43702   0.44313   0.00000  Uiso   1.00
C16    C    -0.65026  -0.38466   0.56708   0.00000  Uiso   1.00
C17    C    -0.66279  -0.35997   0.66867   0.00000  Uiso   1.00
C18    C    -0.64357  -0.34076   0.66982   0.00000  Uiso   1.00
C19    C    -0.61886  -0.35326   0.56862   0.00000  Uiso   1.00
N20    N    -0.62338  -0.38013   0.52962   0.00000  Uiso   1.00
Zn21   Zn   -0.59493  -0.40857   0.48718   0.00000  Uiso   1.00
C22    C    -0.66384  -0.40858   0.48513   0.00000  Uiso   1.00
C23    C    -0.59492  -0.47748   0.48667   0.00000  Uiso   1.00
C24    C    -0.52602  -0.40856   0.48916   0.00000  Uiso   1.00
C25    C    -0.59493  -0.33966   0.48777   0.00000  Uiso   1.00
H26    H    -0.68362  -0.46032   0.23462   0.00000  Uiso   1.00
H27    H    -0.64662  -0.49731   0.23526   0.00000  Uiso   1.00
H28    H    -0.54321  -0.49731   0.73785   0.00000  Uiso   1.00
H29    H    -0.50624  -0.46030   0.73990   0.00000  Uiso   1.00
H30    H    -0.50616  -0.35680   0.23987   0.00000  Uiso   1.00
H31    H    -0.54316  -0.31982   0.23903   0.00000  Uiso   1.00
H32    H    -0.64671  -0.31985   0.73682   0.00000  Uiso   1.00
H33    H    -0.68373  -0.35682   0.73421   0.00000  Uiso   1.00
C34    C    -0.49633  -0.40856   0.48995   0.00000  Uiso   1.00
C35    C    -0.48171  -0.42898   0.32590   0.00000  Uiso   1.00
C36    C    -0.48178  -0.38813   0.65475   0.00000  Uiso   1.00
C37    C    -0.45402  -0.42896   0.33041   0.00000  Uiso   1.00
H38    H    -0.49211  -0.44479   0.18495   0.00000  Uiso   1.00
C39    C    -0.45408  -0.38813   0.65177   0.00000  Uiso   1.00
H40    H    -0.49223  -0.37233   0.79505   0.00000  Uiso   1.00
C41    C    -0.43982  -0.40854   0.49144   0.00000  Uiso   1.00
H42    H    -0.44213  -0.44440   0.20310   0.00000  Uiso   1.00
H43    H    -0.44226  -0.37267   0.77975   0.00000  Uiso   1.00
B44    B    -0.41008  -0.40854   0.49190   0.00000  Uiso   1.00
O45    O    -0.39440  -0.42900   0.35982   0.00000  Uiso   1.00
O46    O    -0.39440  -0.38810   0.62428   0.00000  Uiso   1.00
C47    C    -0.36821  -0.42111   0.41159   0.00000  Uiso   1.00
C48    C    -0.36821  -0.39601   0.57280   0.00000  Uiso   1.00
C49    C    -0.34493  -0.43487   0.32293   0.00000  Uiso   1.00
C50    C    -0.34493  -0.38225   0.66152   0.00000  Uiso   1.00
C51    C    -0.32165  -0.42111   0.41159   0.00000  Uiso   1.00
H52    H    -0.34493  -0.45432   0.19595   0.00000  Uiso   1.00
C53    C    -0.32165  -0.39601   0.57282   0.00000  Uiso   1.00
H54    H    -0.34492  -0.36280   0.78844   0.00000  Uiso   1.00
O55    O    -0.29546  -0.42901   0.35982   0.00000  Uiso   1.00
O56    O    -0.29545  -0.38811   0.62434   0.00000  Uiso   1.00
B57    B    -0.27978  -0.40856   0.49193   0.00000  Uiso   1.00
C58    C    -0.25004  -0.40856   0.49146   0.00000  Uiso   1.00
C59    C    -0.23584  -0.42896   0.32998   0.00000  Uiso   1.00
C60    C    -0.23578  -0.38817   0.65221   0.00000  Uiso   1.00
C61    C    -0.20814  -0.42898   0.32539   0.00000  Uiso   1.00
H62    H    -0.24772  -0.44439   0.20234   0.00000  Uiso   1.00
C63    C    -0.20808  -0.38817   0.65521   0.00000  Uiso   1.00
H64    H    -0.24760  -0.37273   0.78049   0.00000  Uiso   1.00
C65    C    -0.19353  -0.40858   0.48993   0.00000  Uiso   1.00
H66    H    -0.19775  -0.44476   0.18400   0.00000  Uiso   1.00
H67    H    -0.19763  -0.37239   0.79590   0.00000  Uiso   1.00
C68    C    -0.59491  -0.50718   0.48657   0.00000  Uiso   1.00
C69    C    -0.61536  -0.52177   0.65036   0.00000  Uiso   1.00
C70    C    -0.57445  -0.52175   0.32269   0.00000  Uiso   1.00
C71    C    -0.61533  -0.54947   0.64654   0.00000  Uiso   1.00
H72    H    -0.63120  -0.51136   0.79041   0.00000  Uiso   1.00
C73    C    -0.57446  -0.54945   0.32628   0.00000  Uiso   1.00
H74    H    -0.55862  -0.51132   0.18264   0.00000  Uiso   1.00
C75    C    -0.59489  -0.56368   0.48634   0.00000  Uiso   1.00
H76    H    -0.63081  -0.56133   0.77362   0.00000  Uiso   1.00
H77    H    -0.55898  -0.56129   0.19905   0.00000  Uiso   1.00
B78    B    -0.59488  -0.59342   0.48603   0.00000  Uiso   1.00
O79    O    -0.61533  -0.60912   0.61813   0.00000  Uiso   1.00
O80    O    -0.57443  -0.60909   0.35359   0.00000  Uiso   1.00
C81    C    -0.60743  -0.63530   0.56621   0.00000  Uiso   1.00
C82    C    -0.58233  -0.63529   0.40498   0.00000  Uiso   1.00
C83    C    -0.62118  -0.65859   0.65475   0.00000  Uiso   1.00
C84    C    -0.56856  -0.65856   0.31603   0.00000  Uiso   1.00
C85    C    -0.60741  -0.68186   0.56582   0.00000  Uiso   1.00
H86    H    -0.64062  -0.65860   0.78180   0.00000  Uiso   1.00
C87    C    -0.58231  -0.68184   0.40457   0.00000  Uiso   1.00
H88    H    -0.54912  -0.65854   0.18898   0.00000  Uiso   1.00
O89    O    -0.61530  -0.70806   0.61734   0.00000  Uiso   1.00
O90    O    -0.57441  -0.70803   0.35272   0.00000  Uiso   1.00
B91    B    -0.59485  -0.72373   0.48495   0.00000  Uiso   1.00
C92    C    -0.59484  -0.75347   0.48493   0.00000  Uiso   1.00
C93    C    -0.61526  -0.76767   0.64585   0.00000  Uiso   1.00
C94    C    -0.57445  -0.76771   0.32413   0.00000  Uiso   1.00
C95    C    -0.61529  -0.79537   0.64987   0.00000  Uiso   1.00
H96    H    -0.63070  -0.75579   0.77346   0.00000  Uiso   1.00
C97    C    -0.57446  -0.79541   0.32052   0.00000  Uiso   1.00
H98    H    -0.55899  -0.75588   0.19631   0.00000  Uiso   1.00
C99    C    -0.59488  -0.80997   0.48528   0.00000  Uiso   1.00
H100   H    -0.63109  -0.80577   0.79077   0.00000  Uiso   1.00
H101   H    -0.55867  -0.80584   0.17969   0.00000  Uiso   1.00
C102   C    -0.69353  -0.40858   0.48428   0.00000  Uiso   1.00
C103   C    -0.70808  -0.38816   0.31918   0.00000  Uiso   1.00
C104   C    -0.70815  -0.42899   0.64864   0.00000  Uiso   1.00
C105   C    -0.73578  -0.38816   0.32218   0.00000  Uiso   1.00
H106   H    -0.69763  -0.37237   0.17867   0.00000  Uiso   1.00
C107   C    -0.73584  -0.42896   0.64413   0.00000  Uiso   1.00
H108   H    -0.69775  -0.44478   0.78985   0.00000  Uiso   1.00
C109   C    -0.75004  -0.40856   0.48282   0.00000  Uiso   1.00
H110   H    -0.74760  -0.37271   0.19400   0.00000  Uiso   1.00
H111   H    -0.74773  -0.44440   0.77167   0.00000  Uiso   1.00
B112   B    -0.77978  -0.40855   0.48234   0.00000  Uiso   1.00
O113   O    -0.79545  -0.38810   0.34998   0.00000  Uiso   1.00
O114   O    -0.79546  -0.42901   0.61444   0.00000  Uiso   1.00
C115   C    -0.82165  -0.39600   0.40149   0.00000  Uiso   1.00
C116   C    -0.82165  -0.42110   0.56267   0.00000  Uiso   1.00
C117   C    -0.84492  -0.38224   0.31280   0.00000  Uiso   1.00
C118   C    -0.84493  -0.43486   0.65134   0.00000  Uiso   1.00
C119   C    -0.86821  -0.39599   0.40149   0.00000  Uiso   1.00
H120   H    -0.84492  -0.36279   0.18590   0.00000  Uiso   1.00
C121   C    -0.86821  -0.42110   0.56267   0.00000  Uiso   1.00
H122   H    -0.84494  -0.45431   0.77828   0.00000  Uiso   1.00
O123   O    -0.89440  -0.38809   0.35000   0.00000  Uiso   1.00
O124   O    -0.89440  -0.42899   0.61441   0.00000  Uiso   1.00
B125   B    -0.91008  -0.40853   0.48234   0.00000  Uiso   1.00
C126   C    -0.93982  -0.40853   0.48277   0.00000  Uiso   1.00
C127   C    -0.95408  -0.38811   0.32264   0.00000  Uiso   1.00
C128   C    -0.95402  -0.42896   0.64359   0.00000  Uiso   1.00
C129   C    -0.98178  -0.38811   0.31964   0.00000  Uiso   1.00
H130   H    -0.94226  -0.37264   0.19485   0.00000  Uiso   1.00
C131   C    -0.98171  -0.42899   0.64805   0.00000  Uiso   1.00
H132   H    -0.94213  -0.44441   0.77075   0.00000  Uiso   1.00
C133   C    -0.99632  -0.40855   0.48421   0.00000  Uiso   1.00
H134   H    -0.99223  -0.37230   0.17957   0.00000  Uiso   1.00
H135   H    -0.99211  -0.44481   0.78877   0.00000  Uiso   1.00
C136   C    -0.59494  -0.30997   0.48793   0.00000  Uiso   1.00
C137   C    -0.57453  -0.29539   0.65267   0.00000  Uiso   1.00
C138   C    -0.61536  -0.29539   0.32334   0.00000  Uiso   1.00
C139   C    -0.57455  -0.26769   0.64908   0.00000  Uiso   1.00
H140   H    -0.55873  -0.30581   0.79346   0.00000  Uiso   1.00
C141   C    -0.61536  -0.26769   0.32739   0.00000  Uiso   1.00
H142   H    -0.63115  -0.30581   0.18241   0.00000  Uiso   1.00
C143   C    -0.59496  -0.25347   0.48839   0.00000  Uiso   1.00
H144   H    -0.55910  -0.25584   0.77693   0.00000  Uiso   1.00
H145   H    -0.63082  -0.25584   0.19977   0.00000  Uiso   1.00
B146   B    -0.59498  -0.22373   0.48872   0.00000  Uiso   1.00
O147   O    -0.57454  -0.20804   0.62116   0.00000  Uiso   1.00
O148   O    -0.61544  -0.20805   0.35659   0.00000  Uiso   1.00
C149   C    -0.58246  -0.18185   0.56972   0.00000  Uiso   1.00
C150   C    -0.60755  -0.18185   0.40846   0.00000  Uiso   1.00
C151   C    -0.56871  -0.15857   0.65854   0.00000  Uiso   1.00
C152   C    -0.62132  -0.15858   0.31985   0.00000  Uiso   1.00
C153   C    -0.58247  -0.13529   0.56987   0.00000  Uiso   1.00
H154   H    -0.54926  -0.15856   0.78554   0.00000  Uiso   1.00
C155   C    -0.60757  -0.13530   0.40864   0.00000  Uiso   1.00
H156   H    -0.64077  -0.15858   0.19277   0.00000  Uiso   1.00
O157   O    -0.57457  -0.10910   0.62144   0.00000  Uiso   1.00
O158   O    -0.61548  -0.10911   0.35695   0.00000  Uiso   1.00
B159   B    -0.59502  -0.09342   0.48910   0.00000  Uiso   1.00
C160   C    -0.59501  -0.06368   0.48885   0.00000  Uiso   1.00
C161   C    -0.57457  -0.04946   0.64885   0.00000  Uiso   1.00
C162   C    -0.61545  -0.04945   0.32859   0.00000  Uiso   1.00
C163   C    -0.57453  -0.02176   0.65231   0.00000  Uiso   1.00
H164   H    -0.55910  -0.06132   0.77610   0.00000  Uiso   1.00
C165   C    -0.61545  -0.02176   0.32467   0.00000  Uiso   1.00
H166   H    -0.63094  -0.06130   0.20157   0.00000  Uiso   1.00
C167   C    -0.59498  -0.00718   0.48839   0.00000  Uiso   1.00
H168   H    -0.55869  -0.01134   0.79234   0.00000  Uiso   1.00
H169   H    -0.63128  -0.01133   0.18457   0.00000  Uiso   1.00
C170   C    -0.16384  -0.40857   0.48908   0.00000  Uiso   1.00
C171   C    -0.15027  -0.38464   0.40744   0.00000  Uiso   1.00
C172   C    -0.15023  -0.43250   0.56985   0.00000  Uiso   1.00
C173   C    -0.16279  -0.35995   0.30623   0.00000  Uiso   1.00
N174   N    -0.12338  -0.38012   0.44503   0.00000  Uiso   1.00
C175   C    -0.16272  -0.45719   0.67172   0.00000  Uiso   1.00
N176   N    -0.12336  -0.43702   0.53049   0.00000  Uiso   1.00
C177   C    -0.14357  -0.34074   0.30549   0.00000  Uiso   1.00
H178   H    -0.18372  -0.35680   0.24064   0.00000  Uiso   1.00
C179   C    -0.11887  -0.35325   0.40649   0.00000  Uiso   1.00
C180   C    -0.14350  -0.47641   0.67085   0.00000  Uiso   1.00
H181   H    -0.18362  -0.46034   0.73895   0.00000  Uiso   1.00
C182   C    -0.11883  -0.46389   0.56849   0.00000  Uiso   1.00
H183   H    -0.14672  -0.31982   0.23893   0.00000  Uiso   1.00
C184   C    -0.09493  -0.33966   0.48752   0.00000  Uiso   1.00
H185   H    -0.14663  -0.49733   0.73718   0.00000  Uiso   1.00
C186   C    -0.09492  -0.47748   0.48621   0.00000  Uiso   1.00
C187   C    -0.07101  -0.35325   0.56839   0.00000  Uiso   1.00
C188   C    -0.07102  -0.46387   0.40421   0.00000  Uiso   1.00
C189   C    -0.04631  -0.34075   0.66980   0.00000  Uiso   1.00
N190   N    -0.06648  -0.38012   0.52941   0.00000  Uiso   1.00
C191   C    -0.04635  -0.47637   0.30149   0.00000  Uiso   1.00
N192   N    -0.06649  -0.43700   0.44282   0.00000  Uiso   1.00
C193   C    -0.02708  -0.35996   0.66895   0.00000  Uiso   1.00
H194   H    -0.04316  -0.31984   0.73669   0.00000  Uiso   1.00
C195   C    -0.03960  -0.38464   0.56713   0.00000  Uiso   1.00
C196   C    -0.02713  -0.45714   0.30103   0.00000  Uiso   1.00
H197   H    -0.04321  -0.49728   0.23464   0.00000  Uiso   1.00
C198   C    -0.03962  -0.43247   0.40354   0.00000  Uiso   1.00
H199   H    -0.00616  -0.35681   0.73493   0.00000  Uiso   1.00
C200   C    -0.02602  -0.40855   0.48498   0.00000  Uiso   1.00
H201   H    -0.00623  -0.46028   0.23357   0.00000  Uiso   1.00
Zn202  Zn   -0.09493  -0.40856   0.48695   0.00000  Uiso   1.00
C203   C    -0.59490  -0.83966   0.48557   0.00000  Uiso   1.00
C204   C    -0.57097  -0.85326   0.56677   0.00000  Uiso   1.00
C205   C    -0.61883  -0.85325   0.40485   0.00000  Uiso   1.00
C206   C    -0.54627  -0.84076   0.66790   0.00000  Uiso   1.00
N207   N    -0.56647  -0.88014   0.52849   0.00000  Uiso   1.00
C208   C    -0.64353  -0.84074   0.30362   0.00000  Uiso   1.00
N209   N    -0.62337  -0.88012   0.44418   0.00000  Uiso   1.00
C210   C    -0.52706  -0.85998   0.66767   0.00000  Uiso   1.00
H211   H    -0.54311  -0.81984   0.73421   0.00000  Uiso   1.00
C212   C    -0.53959  -0.88467   0.56639   0.00000  Uiso   1.00
C213   C    -0.66277  -0.85994   0.30510   0.00000  Uiso   1.00
H214   H    -0.64666  -0.81984   0.23634   0.00000  Uiso   1.00
C215   C    -0.65026  -0.88462   0.40690   0.00000  Uiso   1.00
H216   H    -0.50614  -0.85684   0.73372   0.00000  Uiso   1.00
C217   C    -0.52602  -0.90860   0.48475   0.00000  Uiso   1.00
H218   H    -0.68370  -0.85678   0.23967   0.00000  Uiso   1.00
C219   C    -0.66384  -0.90853   0.48908   0.00000  Uiso   1.00
C220   C    -0.53964  -0.93252   0.40393   0.00000  Uiso   1.00
C221   C    -0.65024  -0.93245   0.57041   0.00000  Uiso   1.00
C222   C    -0.52716  -0.95722   0.30203   0.00000  Uiso   1.00
N223   N    -0.56651  -0.93703   0.44352   0.00000  Uiso   1.00
C224   C    -0.66275  -0.95713   0.67287   0.00000  Uiso   1.00
N225   N    -0.62338  -0.93700   0.53128   0.00000  Uiso   1.00
C226   C    -0.54639  -0.97643   0.30328   0.00000  Uiso   1.00
H227   H    -0.50627  -0.96037   0.23441   0.00000  Uiso   1.00
C228   C    -0.57105  -0.96391   0.40572   0.00000  Uiso   1.00
C229   C    -0.64354  -0.97635   0.67269   0.00000  Uiso   1.00
H230   H    -0.68365  -0.96026   0.74000   0.00000  Uiso   1.00
C231   C    -0.61886  -0.96387   0.57005   0.00000  Uiso   1.00
H232   H    -0.54326  -0.99736   0.23721   0.00000  Uiso   1.00
C233   C    -0.59496  -0.97748   0.48810   0.00000  Uiso   1.00
H234   H    -0.64668  -0.99726   0.73969   0.00000  Uiso   1.00
Zn235  Zn   -0.59493  -0.90857   0.48685   0.00000  Uiso   1.00
C236   C    -0.09491  -0.50717   0.48585   0.00000  Uiso   1.00
C237   C    -0.11535  -0.52175   0.32185   0.00000  Uiso   1.00
C238   C    -0.07444  -0.52176   0.64954   0.00000  Uiso   1.00
C239   C    -0.11532  -0.54945   0.32518   0.00000  Uiso   1.00
H240   H    -0.13120  -0.51133   0.18195   0.00000  Uiso   1.00
C241   C    -0.07445  -0.54945   0.64549   0.00000  Uiso   1.00
H242   H    -0.05861  -0.51134   0.78980   0.00000  Uiso   1.00
C243   C    -0.09488  -0.56368   0.48518   0.00000  Uiso   1.00
H244   H    -0.13080  -0.56130   0.19790   0.00000  Uiso   1.00
H245   H    -0.05896  -0.56131   0.77252   0.00000  Uiso   1.00
B246   B    -0.09487  -0.59342   0.48498   0.00000  Uiso   1.00
O247   O    -0.11532  -0.60910   0.35269   0.00000  Uiso   1.00
O248   O    -0.07442  -0.60910   0.61721   0.00000  Uiso   1.00
C249   C    -0.10743  -0.63529   0.40434   0.00000  Uiso   1.00
C250   C    -0.08233  -0.63529   0.56559   0.00000  Uiso   1.00
C251   C    -0.12119  -0.65857   0.31569   0.00000  Uiso   1.00
C252   C    -0.06857  -0.65857   0.65439   0.00000  Uiso   1.00
C253   C    -0.10743  -0.68185   0.40452   0.00000  Uiso   1.00
H254   H    -0.14063  -0.65857   0.18867   0.00000  Uiso   1.00
C255   C    -0.08234  -0.68185   0.56577   0.00000  Uiso   1.00
H256   H    -0.04913  -0.65857   0.78144   0.00000  Uiso   1.00
O257   O    -0.11534  -0.70804   0.35303   0.00000  Uiso   1.00
O258   O    -0.07444  -0.70804   0.61759   0.00000  Uiso   1.00
B259   B    -0.09490  -0.72372   0.48541   0.00000  Uiso   1.00
C260   C    -0.09491  -0.75346   0.48572   0.00000  Uiso   1.00
C261   C    -0.11532  -0.76769   0.32503   0.00000  Uiso   1.00
C262   C    -0.07451  -0.76768   0.64677   0.00000  Uiso   1.00
C263   C    -0.11534  -0.79539   0.32157   0.00000  Uiso   1.00
H264   H    -0.13076  -0.75584   0.19716   0.00000  Uiso   1.00
C265   C    -0.07451  -0.79538   0.65095   0.00000  Uiso   1.00
H266   H    -0.05906  -0.75582   0.77436   0.00000  Uiso   1.00
C267   C    -0.09493  -0.80996   0.48641   0.00000  Uiso   1.00
H268   H    -0.13114  -0.80581   0.18090   0.00000  Uiso   1.00
H269   H    -0.05872  -0.80580   0.79200   0.00000  Uiso   1.00
C270   C    -0.09493  -0.30996   0.48782   0.00000  Uiso   1.00
C271   C    -0.11534  -0.29539   0.65267   0.00000  Uiso   1.00
C272   C    -0.07451  -0.29538   0.32328   0.00000  Uiso   1.00
C273   C    -0.11532  -0.26769   0.64921   0.00000  Uiso   1.00
H274   H    -0.13114  -0.30581   0.79334   0.00000  Uiso   1.00
C275   C    -0.07451  -0.26768   0.32746   0.00000  Uiso   1.00
H276   H    -0.05872  -0.30580   0.18223   0.00000  Uiso   1.00
C277   C    -0.09491  -0.25346   0.48852   0.00000  Uiso   1.00
H278   H    -0.13077  -0.25584   0.77708   0.00000  Uiso   1.00
H279   H    -0.05906  -0.25582   0.19987   0.00000  Uiso   1.00
B280   B    -0.09490  -0.22372   0.48882   0.00000  Uiso   1.00
O281   O    -0.11534  -0.20804   0.62123   0.00000  Uiso   1.00
O282   O    -0.07444  -0.20804   0.35667   0.00000  Uiso   1.00
C283   C    -0.10744  -0.18185   0.56975   0.00000  Uiso   1.00
C284   C    -0.08234  -0.18185   0.40849   0.00000  Uiso   1.00
C285   C    -0.12119  -0.15857   0.65857   0.00000  Uiso   1.00
C286   C    -0.06857  -0.15857   0.31987   0.00000  Uiso   1.00
C287   C    -0.10743  -0.13529   0.56993   0.00000  Uiso   1.00
H288   H    -0.14064  -0.15857   0.78559   0.00000  Uiso   1.00
C289   C    -0.08233  -0.13529   0.40867   0.00000  Uiso   1.00
H290   H    -0.04913  -0.15857   0.19282   0.00000  Uiso   1.00
O291   O    -0.11533  -0.10910   0.62154   0.00000  Uiso   1.00
O292   O    -0.07443  -0.10910   0.35708   0.00000  Uiso   1.00
B293   B    -0.09488  -0.09342   0.48928   0.00000  Uiso   1.00
C294   C    -0.09488  -0.06368   0.48910   0.00000  Uiso   1.00
C295   C    -0.11533  -0.04945   0.64908   0.00000  Uiso   1.00
C296   C    -0.07445  -0.04945   0.32877   0.00000  Uiso   1.00
C297   C    -0.11536  -0.02175   0.65241   0.00000  Uiso   1.00
H298   H    -0.13080  -0.06130   0.77636   0.00000  Uiso   1.00
C299   C    -0.07445  -0.02176   0.32472   0.00000  Uiso   1.00
H300   H    -0.05897  -0.06131   0.20175   0.00000  Uiso   1.00
C301   C    -0.09491  -0.00717   0.48841   0.00000  Uiso   1.00
H302   H    -0.13120  -0.01133   0.79231   0.00000  Uiso   1.00
H303   H    -0.05862  -0.01134   0.18446   0.00000  Uiso   1.00
C304   C    -0.09494  -0.83966   0.48672   0.00000  Uiso   1.00
C305   C    -0.11887  -0.85325   0.56775   0.00000  Uiso   1.00
C306   C    -0.07101  -0.85325   0.40585   0.00000  Uiso   1.00
C307   C    -0.14357  -0.84074   0.66872   0.00000  Uiso   1.00
N308   N    -0.12339  -0.88012   0.52918   0.00000  Uiso   1.00
C309   C    -0.04631  -0.84075   0.30444   0.00000  Uiso   1.00
N310   N    -0.06649  -0.88012   0.44485   0.00000  Uiso   1.00
C311   C    -0.16280  -0.85995   0.66795   0.00000  Uiso   1.00
H312   H    -0.14672  -0.81982   0.73531   0.00000  Uiso   1.00
C313   C    -0.15027  -0.88464   0.56672   0.00000  Uiso   1.00
C314   C    -0.02709  -0.85996   0.30534   0.00000  Uiso   1.00
H315   H    -0.04317  -0.81984   0.23752   0.00000  Uiso   1.00
C316   C    -0.03960  -0.88464   0.40716   0.00000  Uiso   1.00
H317   H    -0.18373  -0.85679   0.73354   0.00000  Uiso   1.00
C318   C    -0.16384  -0.90857   0.48510   0.00000  Uiso   1.00
H319   H    -0.00616  -0.85681   0.23936   0.00000  Uiso   1.00
C320   C    -0.02602  -0.90856   0.48934   0.00000  Uiso   1.00
C321   C    -0.15023  -0.93249   0.40434   0.00000  Uiso   1.00
C322   C    -0.03963  -0.93247   0.57075   0.00000  Uiso   1.00
C323   C    -0.16272  -0.95719   0.30249   0.00000  Uiso   1.00
N324   N    -0.12337  -0.93702   0.44372   0.00000  Uiso   1.00
C325   C    -0.02714  -0.95715   0.67326   0.00000  Uiso   1.00
N326   N    -0.06649  -0.93700   0.53144   0.00000  Uiso   1.00
C327   C    -0.14350  -0.97641   0.30341   0.00000  Uiso   1.00
H328   H    -0.18362  -0.96034   0.23523   0.00000  Uiso   1.00
C329   C    -0.11883  -0.96389   0.40577   0.00000  Uiso   1.00
C330   C    -0.04635  -0.97637   0.67277   0.00000  Uiso   1.00
H331   H    -0.00624  -0.96028   0.74072   0.00000  Uiso   1.00
C332   C    -0.07102  -0.96387   0.57005   0.00000  Uiso   1.00
H333   H    -0.14663  -0.99733   0.23713   0.00000  Uiso   1.00
C334   C    -0.09493  -0.97748   0.48805   0.00000  Uiso   1.00
H335   H    -0.04322  -0.99728   0.73959   0.00000  Uiso   1.00
C336   C    -0.49633  -0.90861   0.48395   0.00000  Uiso   1.00
C337   C    -0.48172  -0.92903   0.64816   0.00000  Uiso   1.00
C338   C    -0.48178  -0.88819   0.31905   0.00000  Uiso   1.00
C339   C    -0.45403  -0.92901   0.64372   0.00000  Uiso   1.00
H340   H    -0.49212  -0.94483   0.78918   0.00000  Uiso   1.00
C341   C    -0.45408  -0.88819   0.32216   0.00000  Uiso   1.00
H342   H    -0.49223  -0.87239   0.17862   0.00000  Uiso   1.00
C343   C    -0.43983  -0.90860   0.48262   0.00000  Uiso   1.00
H344   H    -0.44215  -0.94445   0.77116   0.00000  Uiso   1.00
H345   H    -0.44225  -0.87273   0.19416   0.00000  Uiso   1.00
B346   B    -0.41009  -0.90859   0.48223   0.00000  Uiso   1.00
O347   O    -0.39440  -0.92904   0.61439   0.00000  Uiso   1.00
O348   O    -0.39441  -0.88814   0.34990   0.00000  Uiso   1.00
C349   C    -0.36821  -0.92114   0.56264   0.00000  Uiso   1.00
C350   C    -0.36821  -0.89604   0.40144   0.00000  Uiso   1.00
C351   C    -0.34493  -0.93489   0.65136   0.00000  Uiso   1.00
C352   C    -0.34494  -0.88227   0.31272   0.00000  Uiso   1.00
C353   C    -0.32165  -0.92113   0.56269   0.00000  Uiso   1.00
H354   H    -0.34492  -0.95434   0.77834   0.00000  Uiso   1.00
C355   C    -0.32166  -0.89603   0.40144   0.00000  Uiso   1.00
H356   H    -0.34494  -0.86282   0.18582   0.00000  Uiso   1.00
O357   O    -0.29546  -0.92902   0.61446   0.00000  Uiso   1.00
O358   O    -0.29546  -0.88812   0.34993   0.00000  Uiso   1.00
B359   B    -0.27978  -0.90856   0.48234   0.00000  Uiso   1.00
C360   C    -0.25004  -0.90856   0.48277   0.00000  Uiso   1.00
C361   C    -0.23584  -0.92895   0.64423   0.00000  Uiso   1.00
C362   C    -0.23579  -0.88817   0.32200   0.00000  Uiso   1.00
C363   C    -0.20815  -0.92898   0.64880   0.00000  Uiso   1.00
H364   H    -0.24773  -0.94438   0.77190   0.00000  Uiso   1.00
C365   C    -0.20809  -0.88816   0.31898   0.00000  Uiso   1.00
H366   H    -0.24760  -0.87272   0.19369   0.00000  Uiso   1.00
C367   C    -0.19354  -0.90857   0.48426   0.00000  Uiso   1.00
H368   H    -0.19775  -0.94476   0.79018   0.00000  Uiso   1.00
H369   H    -0.19763  -0.87238   0.17826   0.00000  Uiso   1.00
C370   C    -0.69354  -0.90853   0.48990   0.00000  Uiso   1.00
C371   C    -0.70815  -0.92894   0.32569   0.00000  Uiso   1.00
C372   C    -0.70808  -0.88810   0.65490   0.00000  Uiso   1.00
C373   C    -0.73585  -0.92891   0.33023   0.00000  Uiso   1.00
H374   H    -0.69776  -0.94474   0.18457   0.00000  Uiso   1.00
C375   C    -0.73578  -0.88810   0.65198   0.00000  Uiso   1.00
H376   H    -0.69763  -0.87231   0.79528   0.00000  Uiso   1.00
C377   C    -0.75004  -0.90850   0.49149   0.00000  Uiso   1.00
H378   H    -0.74774  -0.94435   0.20282   0.00000  Uiso   1.00
H379   H    -0.74760  -0.87265   0.78010   0.00000  Uiso   1.00
B380   B    -0.77978  -0.90851   0.49200   0.00000  Uiso   1.00
O381   O    -0.79546  -0.92897   0.35990   0.00000  Uiso   1.00
O382   O    -0.79546  -0.88806   0.62436   0.00000  Uiso   1.00
C383   C    -0.82165  -0.92108   0.41167   0.00000  Uiso   1.00
C384   C    -0.82166  -0.89597   0.57287   0.00000  Uiso   1.00
C385   C    -0.84493  -0.93484   0.32303   0.00000  Uiso   1.00
C386   C    -0.84494  -0.88222   0.66154   0.00000  Uiso   1.00
C387   C    -0.86821  -0.92108   0.41167   0.00000  Uiso   1.00
H388   H    -0.84492  -0.95429   0.19608   0.00000  Uiso   1.00
C389   C    -0.86822  -0.89598   0.57285   0.00000  Uiso   1.00
H390   H    -0.84494  -0.86277   0.78841   0.00000  Uiso   1.00
O391   O    -0.89440  -0.92899   0.35993   0.00000  Uiso   1.00
O392   O    -0.89441  -0.88808   0.62431   0.00000  Uiso   1.00
B393   B    -0.91009  -0.90853   0.49198   0.00000  Uiso   1.00
C394   C    -0.93983  -0.90853   0.49152   0.00000  Uiso   1.00
C395   C    -0.95402  -0.92896   0.33069   0.00000  Uiso   1.00
C396   C    -0.95408  -0.88812   0.65164   0.00000  Uiso   1.00
C397   C    -0.98172  -0.92899   0.32626   0.00000  Uiso   1.00
H398   H    -0.94214  -0.94442   0.20352   0.00000  Uiso   1.00
C399   C    -0.98178  -0.88811   0.65464   0.00000  Uiso   1.00
H400   H    -0.94226  -0.87265   0.77944   0.00000  Uiso   1.00
C401   C    -0.99633  -0.90856   0.49010   0.00000  Uiso   1.00
H402   H    -0.99212  -0.94481   0.18552   0.00000  Uiso   1.00
H403   H    -0.99223  -0.87230   0.79472   0.00000  Uiso   1.00
Zn404  Zn   -0.09494  -0.90857   0.48728   0.00000  Uiso   1.00
loop_
_geom_bond_atom_site_label_1
_geom_bond_atom_site_label_2
_geom_bond_distance
_geom_bond_site_symmetry_2
_ccdc_geom_bond_type
C1     C2      1.367   .     D
C1     C3      1.448   .     S
C1     H30     1.095   .     S
C2     C4      1.448   .     S
C2     H31     1.095   .     S
C3     N5      1.379   .     D
C3     C24     1.420   .     S
C4     N5      1.379   .     S
C4     C25     1.420   .     D
N5     Zn21    2.030   .     S
C6     C7      1.448   .     S
C6     N10     1.379   .     S
C6     C24     1.420   .     D
C7     C8      1.367   .     D
C7     H29     1.095   .     S
C8     C9      1.447   .     S
C8     H28     1.095   .     S
C9     N10     1.379   .     D
C9     C23     1.420   .     S
N10    Zn21    2.030   .     S
C11    C12     1.448   .     S
C11    N15     1.379   .     S
C11    C23     1.420   .     D
C12    C13     1.367   .     D
C12    H27     1.095   .     S
C13    C14     1.448   .     S
C13    H26     1.095   .     S
C14    N15     1.379   .     D
C14    C22     1.420   .     S
N15    Zn21    2.030   .     S
C16    C17     1.448   .     S
C16    N20     1.379   .     S
C16    C22     1.420   .     D
C17    C18     1.367   .     D
C17    H33     1.095   .     S
C18    C19     1.448   .     S
C18    H32     1.095   .     S
C19    N20     1.379   .     D
C19    C25     1.420   .     S
N20    Zn21    2.030   .     S
C22    C102    1.493   .     S
C23    C68     1.494   .     S
C24    C34     1.493   .     S
C25    C136    1.493   .     S
C34    C35     1.416   .     D
C34    C36     1.416   .     S
C35    C37     1.393   .     S
C35    H38     1.099   .     S
C36    C39     1.393   .     D
C36    H40     1.099   .     S
C37    C41     1.400   .     D
C37    H42     1.099   .     S
C39    C41     1.400   .     S
C39    H43     1.099   .     S
C41    B44     1.496   .     S
B44    O45     1.395   .     S
B44    O46     1.395   .     S
O45    C47     1.391   .     S
O46    C48     1.391   .     S
C47    C48     1.410   .     D
C47    C49     1.403   .     S
C48    C50     1.404   .     S
C49    C51     1.403   .     D
C49    H52     1.097   .     S
C50    C53     1.404   .     D
C50    H54     1.096   .     S
C51    C53     1.410   .     S
C51    O55     1.391   .     S
C53    O56     1.391   .     S
O55    B57     1.395   .     S
O56    B57     1.395   .     S
B57    C58     1.496   .     S
C58    C59     1.400   .     S
C58    C60     1.400   .     D
C59    C61     1.393   .     D
C59    H62     1.099   .     S
C60    C63     1.393   .     S
C60    H64     1.099   .     S
C61    C65     1.416   .     S
C61    H66     1.099   .     S
C63    C65     1.416   .     D
C63    H67     1.099   .     S
C65    C170    1.493   .     S
C68    C69     1.416   .     D
C68    C70     1.416   .     S
C69    C71     1.393   .     S
C69    H72     1.099   .     S
C70    C73     1.393   .     D
C70    H74     1.099   .     S
C71    C75     1.399   .     D
C71    H76     1.099   .     S
C73    C75     1.399   .     S
C73    H77     1.099   .     S
C75    B78     1.496   .     S
B78    O79     1.395   .     S
B78    O80     1.395   .     S
O79    C81     1.390   .     S
O80    C82     1.391   .     S
C81    C82     1.410   .     D
C81    C83     1.404   .     S
C82    C84     1.404   .     S
C83    C85     1.404   .     D
C83    H86     1.096   .     S
C84    C87     1.403   .     D
C84    H88     1.096   .     S
C85    C87     1.410   .     S
C85    O89     1.391   .     S
C87    O90     1.391   .     S
O89    B91     1.395   .     S
O90    B91     1.395   .     S
B91    C92     1.496   .     S
C92    C93     1.400   .     S
C92    C94     1.399   .     D
C93    C95     1.393   .     D
C93    H96     1.099   .     S
C94    C97     1.393   .     S
C94    H98     1.099   .     S
C95    C99     1.416   .     S
C95    H100    1.099   .     S
C97    C99     1.416   .     D
C97    H101    1.099   .     S
C99    C203    1.493   .     S
C102   C103    1.416   .     S
C102   C104    1.416   .     D
C103   C105    1.393   .     D
C103   H106    1.099   .     S
C104   C107    1.393   .     S
C104   H108    1.099   .     S
C105   C109    1.400   .     S
C105   H110    1.099   .     S
C107   C109    1.400   .     D
C107   H111    1.099   .     S
C109   B112    1.496   .     S
B112   O113    1.395   .     S
B112   O114    1.395   .     S
O113   C115    1.391   .     S
O114   C116    1.391   .     S
C115   C116    1.410   .     D
C115   C117    1.403   .     S
C116   C118    1.404   .     S
C117   C119    1.404   .     D
C117   H120    1.096   .     S
C118   C121    1.404   .     D
C118   H122    1.096   .     S
C119   C121    1.411   .     S
C119   O123    1.391   .     S
C121   O124    1.391   .     S
O123   B125    1.395   .     S
O124   B125    1.395   .     S
B125   C126    1.496   .     S
C126   C127    1.400   .     D
C126   C128    1.400   .     S
C127   C129    1.393   .     S
C127   H130    1.099   .     S
C128   C131    1.393   .     D
C128   H132    1.099   .     S
C129   C133    1.416   .     D
C129   H134    1.099   .     S
C131   C133    1.416   .     S
C131   H135    1.099   .     S
C133   C200    1.494   1_455 S
C136   C137    1.416   .     D
C136   C138    1.416   .     S
C137   C139    1.393   .     S
C137   H140    1.099   .     S
C138   C141    1.393   .     D
C138   H142    1.099   .     S
C139   C143    1.399   .     D
C139   H144    1.099   .     S
C141   C143    1.400   .     S
C141   H145    1.099   .     S
C143   B146    1.496   .     S
B146   O147    1.395   .     S
B146   O148    1.395   .     S
O147   C149    1.391   .     S
O148   C150    1.391   .     S
C149   C150    1.410   .     D
C149   C151    1.403   .     S
C150   C152    1.403   .     S
C151   C153    1.404   .     D
C151   H154    1.097   .     S
C152   C155    1.403   .     D
C152   H156    1.097   .     S
C153   C155    1.410   .     S
C153   O157    1.391   .     S
C155   O158    1.391   .     S
O157   B159    1.395   .     S
O158   B159    1.396   .     S
B159   C160    1.496   .     S
C160   C161    1.399   .     S
C160   C162    1.400   .     D
C161   C163    1.393   .     D
C161   H164    1.099   .     S
C162   C165    1.393   .     S
C162   H166    1.099   .     S
C163   C167    1.416   .     S
C163   H168    1.099   .     S
C165   C167    1.416   .     D
C165   H169    1.099   .     S
C167   C233    1.494   1_565 S
C170   C171    1.420   .     D
C170   C172    1.420   .     S
C171   C173    1.447   .     S
C171   N174    1.379   .     S
C172   C175    1.447   .     S
C172   N176    1.379   .     D
C173   C177    1.367   .     D
C173   H178    1.095   .     S
N174   C179    1.379   .     D
N174   Zn202   2.030   .     S
C175   C180    1.367   .     D
C175   H181    1.095   .     S
N176   C182    1.379   .     S
N176   Zn202   2.031   .     S
C177   C179    1.447   .     S
C177   H183    1.095   .     S
C179   C184    1.420   .     S
C180   C182    1.448   .     S
C180   H185    1.095   .     S
C182   C186    1.420   .     D
C184   C187    1.419   .     D
C184   C270    1.494   .     S
C186   C188    1.420   .     S
C186   C236    1.493   .     S
C187   C189    1.448   .     S
C187   N190    1.379   .     S
C188   C191    1.448   .     S
C188   N192    1.379   .     D
C189   C193    1.367   .     D
C189   H194    1.095   .     S
N190   C195    1.379   .     D
N190   Zn202   2.030   .     S
C191   C196    1.368   .     D
C191   H197    1.095   .     S
N192   C198    1.379   .     S
N192   Zn202   2.030   .     S
C193   C195    1.448   .     S
C193   H199    1.095   .     S
C195   C200    1.420   .     S
C196   C198    1.447   .     S
C196   H201    1.095   .     S
C198   C200    1.420   .     D
C200   C133    1.494   1_655 S
C203   C204    1.420   .     D
C203   C205    1.420   .     S
C204   C206    1.447   .     S
C204   N207    1.379   .     S
C205   C208    1.448   .     S
C205   N209    1.379   .     D
C206   C210    1.367   .     D
C206   H211    1.095   .     S
N207   C212    1.379   .     D
N207   Zn235   2.030   .     S
C208   C213    1.367   .     D
C208   H214    1.095   .     S
N209   C215    1.379   .     S
N209   Zn235   2.030   .     S
C210   C212    1.448   .     S
C210   H216    1.095   .     S
C212   C217    1.420   .     S
C213   C215    1.447   .     S
C213   H218    1.095   .     S
C215   C219    1.420   .     D
C217   C220    1.420   .     D
C217   C336    1.493   .     S
C219   C221    1.420   .     S
C219   C370    1.494   .     S
C220   C222    1.448   .     S
C220   N223    1.379   .     S
C221   C224    1.448   .     S
C221   N225    1.379   .     D
C222   C226    1.367   .     D
C222   H227    1.095   .     S
N223   C228    1.379   .     D
N223   Zn235   2.030   .     S
C224   C229    1.367   .     D
C224   H230    1.095   .     S
N225   C231    1.379   .     S
N225   Zn235   2.030   .     S
C226   C228    1.447   .     S
C226   H232    1.095   .     S
C228   C233    1.420   .     S
C229   C231    1.448   .     S
C229   H234    1.095   .     S
C231   C233    1.420   .     D
C233   C167    1.494   1_545 S
C236   C237    1.416   .     D
C236   C238    1.416   .     S
C237   C239    1.393   .     S
C237   H240    1.099   .     S
C238   C241    1.393   .     D
C238   H242    1.099   .     S
C239   C243    1.400   .     D
C239   H244    1.099   .     S
C241   C243    1.400   .     S
C241   H245    1.099   .     S
C243   B246    1.496   .     S
B246   O247    1.395   .     S
B246   O248    1.395   .     S
O247   C249    1.391   .     S
O248   C250    1.391   .     S
C249   C250    1.410   .     D
C249   C251    1.403   .     S
C250   C252    1.404   .     S
C251   C253    1.404   .     D
C251   H254    1.096   .     S
C252   C255    1.404   .     D
C252   H256    1.096   .     S
C253   C255    1.410   .     S
C253   O257    1.391   .     S
C255   O258    1.391   .     S
O257   B259    1.395   .     S
O258   B259    1.395   .     S
B259   C260    1.496   .     S
C260   C261    1.400   .     S
C260   C262    1.400   .     D
C261   C263    1.393   .     D
C261   H264    1.099   .     S
C262   C265    1.393   .     S
C262   H266    1.099   .     S
C263   C267    1.416   .     S
C263   H268    1.099   .     S
C265   C267    1.416   .     D
C265   H269    1.099   .     S
C267   C304    1.494   .     S
C270   C271    1.416   .     D
C270   C272    1.416   .     S
C271   C273    1.393   .     S
C271   H274    1.099   .     S
C272   C275    1.393   .     D
C272   H276    1.099   .     S
C273   C277    1.400   .     D
C273   H278    1.099   .     S
C275   C277    1.400   .     S
C275   H279    1.099   .     S
C277   B280    1.496   .     S
B280   O281    1.395   .     S
B280   O282    1.395   .     S
O281   C283    1.391   .     S
O282   C284    1.391   .     S
C283   C284    1.411   .     D
C283   C285    1.403   .     S
C284   C286    1.404   .     S
C285   C287    1.403   .     D
C285   H288    1.097   .     S
C286   C289    1.404   .     D
C286   H290    1.096   .     S
C287   C289    1.411   .     S
C287   O291    1.391   .     S
C289   O292    1.391   .     S
O291   B293    1.395   .     S
O292   B293    1.395   .     S
B293   C294    1.496   .     S
C294   C295    1.400   .     D
C294   C296    1.400   .     S
C295   C297    1.393   .     S
C295   H298    1.099   .     S
C296   C299    1.393   .     D
C296   H300    1.099   .     S
C297   C301    1.416   .     D
C297   H302    1.099   .     S
C299   C301    1.416   .     S
C299   H303    1.099   .     S
C301   C334    1.493   1_565 S
C304   C305    1.420   .     D
C304   C306    1.420   .     S
C305   C307    1.447   .     S
C305   N308    1.379   .     S
C306   C309    1.448   .     S
C306   N310    1.379   .     D
C307   C311    1.367   .     D
C307   H312    1.095   .     S
N308   C313    1.379   .     D
N308   Zn404   2.030   .     S
C309   C314    1.367   .     D
C309   H315    1.095   .     S
N310   C316    1.379   .     S
N310   Zn404   2.031   .     S
C311   C313    1.448   .     S
C311   H317    1.095   .     S
C313   C318    1.420   .     S
C314   C316    1.447   .     S
C314   H319    1.095   .     S
C316   C320    1.420   .     D
C318   C321    1.420   .     D
C318   C367    1.494   .     S
C320   C322    1.420   .     S
C320   C401    1.493   1_655 S
C321   C323    1.448   .     S
C321   N324    1.379   .     S
C322   C325    1.448   .     S
C322   N326    1.379   .     D
C323   C327    1.367   .     D
C323   H328    1.095   .     S
N324   C329    1.379   .     D
N324   Zn404   2.030   .     S
C325   C330    1.367   .     D
C325   H331    1.095   .     S
N326   C332    1.379   .     S
N326   Zn404   2.030   .     S
C327   C329    1.448   .     S
C327   H333    1.095   .     S
C329   C334    1.420   .     S
C330   C332    1.448   .     S
C330   H335    1.095   .     S
C332   C334    1.420   .     D
C334   C301    1.493   1_545 S
C336   C337    1.416   .     D
C336   C338    1.416   .     S
C337   C339    1.393   .     S
C337   H340    1.099   .     S
C338   C341    1.393   .     D
C338   H342    1.099   .     S
C339   C343    1.400   .     D
C339   H344    1.099   .     S
C341   C343    1.400   .     S
C341   H345    1.099   .     S
C343   B346    1.496   .     S
B346   O347    1.395   .     S
B346   O348    1.395   .     S
O347   C349    1.391   .     S
O348   C350    1.391   .     S
C349   C350    1.410   .     D
C349   C351    1.403   .     S
C350   C352    1.403   .     S
C351   C353    1.404   .     D
C351   H354    1.097   .     S
C352   C355    1.404   .     D
C352   H356    1.096   .     S
C353   C355    1.410   .     S
C353   O357    1.391   .     S
C355   O358    1.391   .     S
O357   B359    1.395   .     S
O358   B359    1.395   .     S
B359   C360    1.496   .     S
C360   C361    1.399   .     D
C360   C362    1.400   .     S
C361   C363    1.393   .     S
C361   H364    1.099   .     S
C362   C365    1.393   .     D
C362   H366    1.099   .     S
C363   C367    1.416   .     D
C363   H368    1.099   .     S
C365   C367    1.416   .     S
C365   H369    1.099   .     S
C370   C371    1.416   .     D
C370   C372    1.416   .     S
C371   C373    1.393   .     S
C371   H374    1.099   .     S
C372   C375    1.393   .     D
C372   H376    1.099   .     S
C373   C377    1.400   .     D
C373   H378    1.099   .     S
C375   C377    1.400   .     S
C375   H379    1.099   .     S
C377   B380    1.496   .     S
B380   O381    1.395   .     S
B380   O382    1.395   .     S
O381   C383    1.391   .     S
O382   C384    1.391   .     S
C383   C384    1.411   .     D
C383   C385    1.403   .     S
C384   C386    1.403   .     S
C385   C387    1.403   .     D
C385   H388    1.096   .     S
C386   C389    1.404   .     D
C386   H390    1.096   .     S
C387   C389    1.410   .     S
C387   O391    1.391   .     S
C389   O392    1.391   .     S
O391   B393    1.395   .     S
O392   B393    1.395   .     S
B393   C394    1.496   .     S
C394   C395    1.400   .     D
C394   C396    1.399   .     S
C395   C397    1.393   .     S
C395   H398    1.099   .     S
C396   C399    1.393   .     D
C396   H400    1.099   .     S
C397   C401    1.416   .     D
C397   H402    1.099   .     S
C399   C401    1.416   .     S
C399   H403    1.099   .     S
C401   C320    1.493   1_455 S
