data_646
_audit_creation_date              2023-09-08
_audit_creation_method            'Materials Studio'
_symmetry_space_group_name_H-M    'P1'
_symmetry_Int_Tables_number       1
_symmetry_cell_setting            triclinic
loop_
_symmetry_equiv_pos_as_xyz
  x,y,z
_cell_length_a                    3.5200
_cell_length_b                    102.5900
_cell_length_c                    59.2300
_cell_angle_alpha                 90.0000
_cell_angle_beta                  90.0000
_cell_angle_gamma                 90.0000
loop_
_atom_site_label
_atom_site_type_symbol
_atom_site_fract_x
_atom_site_fract_y
_atom_site_fract_z
_atom_site_U_iso_or_equiv
_atom_site_adp_type
_atom_site_occupancy
C1     C     0.00000   0.17340   0.89520   0.00000  Uiso   1.00
C2     C     0.00000   0.18050   0.91700   0.00000  Uiso   1.00
C3     C     0.00000   0.21620   0.06130   0.00000  Uiso   1.00
C4     C     0.00000   0.26470   0.20670   0.00000  Uiso   1.00
C5     C     0.00000   0.31890   0.33250   0.00000  Uiso   1.00
C6     C     0.00000   0.32630   0.35400   0.00000  Uiso   1.00
C7     C     0.00000   0.20260   0.02010   0.00000  Uiso   1.00
C8     C     0.00000   0.19380   0.95860   0.00000  Uiso   1.00
C9     C     0.00000   0.18030   0.87480   0.00000  Uiso   1.00
C10    C     0.00000   0.17350   0.93750   0.00000  Uiso   1.00
C11    C     0.00000   0.20260   0.06100   0.00000  Uiso   1.00
C12    C     0.00000   0.25800   0.22740   0.00000  Uiso   1.00
C13    C     0.00000   0.30520   0.33270   0.00000  Uiso   1.00
C14    C     0.00000   0.20080   0.93830   0.00000  Uiso   1.00
C15    C     0.00000   0.21620   0.02020   0.00000  Uiso   1.00
C16    C     0.00000   0.22300   0.04060   0.00000  Uiso   1.00
C17    C     0.00000   0.19410   0.91770   0.00000  Uiso   1.00
C18    C     0.00000   0.29820   0.31250   0.00000  Uiso   1.00
C19    C     0.00000   0.26480   0.24780   0.00000  Uiso   1.00
C20    C     0.00000   0.27840   0.20690   0.00000  Uiso   1.00
C21    C     0.00000   0.32540   0.31170   0.00000  Uiso   1.00
C22    C     0.00000   0.18010   0.95810   0.00000  Uiso   1.00
C23    C     0.00000   0.19580   0.04050   0.00000  Uiso   1.00
C24    C     0.00000   0.30480   0.29170   0.00000  Uiso   1.00
C25    C     0.00000   0.27840   0.24780   0.00000  Uiso   1.00
C26    C     0.00000   0.31840   0.29150   0.00000  Uiso   1.00
C27    C     0.00000   0.28520   0.22730   0.00000  Uiso   1.00
C28    C     0.00000   0.34700   0.37410   0.00000  Uiso   1.00
C29    C     0.00000   0.36140   0.37380   0.00000  Uiso   1.00
C30    C     0.00000   0.45150   0.35710   0.00000  Uiso   1.00
C31    C     0.00000   0.42410   0.35630   0.00000  Uiso   1.00
C32    C     0.00000   0.38890   0.37330   0.00000  Uiso   1.00
C33    C     0.00000   0.33990   0.35390   0.00000  Uiso   1.00
C34    C     0.00000   0.36860   0.39410   0.00000  Uiso   1.00
C35    C     0.00000   0.44440   0.37730   0.00000  Uiso   1.00
C36    C     0.00000   0.38190   0.35290   0.00000  Uiso   1.00
C37    C     0.00000   0.43120   0.33610   0.00000  Uiso   1.00
C38    C     0.00000   0.36830   0.35320   0.00000  Uiso   1.00
C39    C     0.00000   0.44480   0.33650   0.00000  Uiso   1.00
C40    C     0.00000   0.38220   0.39380   0.00000  Uiso   1.00
C41    C     0.00000   0.43080   0.37690   0.00000  Uiso   1.00
C42    C     0.00000   0.15980   0.89460   0.00000  Uiso   1.00
N43    N     0.00000   0.20090   0.97950   0.00000  Uiso   1.00
C44    C     0.00000   0.19510   0.99900   0.00000  Uiso   1.00
N45    N     0.00000   0.29790   0.27070   0.00000  Uiso   1.00
C46    C     0.00000   0.28530   0.26950   0.00000  Uiso   1.00
N47    N     0.00000   0.40290   0.37360   0.00000  Uiso   1.00
C48    C     0.00000   0.40980   0.35530   0.00000  Uiso   1.00
C49    C     0.00000   0.25740   0.18520   0.00000  Uiso   1.00
C50    C     0.00000   0.26400   0.16430   0.00000  Uiso   1.00
N51    N     0.00000   0.25720   0.14460   0.00000  Uiso   1.00
C52    C     0.00000   0.24390   0.14420   0.00000  Uiso   1.00
C53    C     0.00000   0.23690   0.16480   0.00000  Uiso   1.00
C54    C     0.00000   0.24370   0.18510   0.00000  Uiso   1.00
C55    C     0.00000   0.22330   0.16470   0.00000  Uiso   1.00
C56    C     0.00000   0.21650   0.14430   0.00000  Uiso   1.00
C57    C     0.00000   0.22330   0.12390   0.00000  Uiso   1.00
C58    C     0.00000   0.23710   0.12370   0.00000  Uiso   1.00
N59    N     0.00000   0.24350   0.10360   0.00000  Uiso   1.00
C60    C     0.00000   0.23710   0.08360   0.00000  Uiso   1.00
C61    C     0.00000   0.22340   0.08300   0.00000  Uiso   1.00
C62    C     0.00000   0.21660   0.10350   0.00000  Uiso   1.00
C63    C     0.00000   0.46600   0.35750   0.00000  Uiso   1.00
C64    C     0.00000   0.47310   0.33740   0.00000  Uiso   1.00
N65    N     0.00000   0.48640   0.33770   0.00000  Uiso   1.00
C66    C     0.00000   0.49320   0.35750   0.00000  Uiso   1.00
C67    C     0.00000   0.48640   0.37820   0.00000  Uiso   1.00
C68    C     0.00000   0.47280   0.37800   0.00000  Uiso   1.00
C69    C     0.00000   0.49320   0.39860   0.00000  Uiso   1.00
C70    C     0.00000   0.67340   0.39520   0.00000  Uiso   1.00
C71    C     0.00000   0.68050   0.41700   0.00000  Uiso   1.00
C72    C     0.00000   0.71620   0.56130   0.00000  Uiso   1.00
C73    C     0.00000   0.76470   0.70670   0.00000  Uiso   1.00
C74    C     0.00000   0.81890   0.83250   0.00000  Uiso   1.00
C75    C     0.00000   0.82630   0.85400   0.00000  Uiso   1.00
C76    C     0.00000   0.70260   0.52010   0.00000  Uiso   1.00
C77    C     0.00000   0.69380   0.45860   0.00000  Uiso   1.00
C78    C     0.00000   0.68030   0.37480   0.00000  Uiso   1.00
C79    C     0.00000   0.67350   0.43750   0.00000  Uiso   1.00
C80    C     0.00000   0.70260   0.56100   0.00000  Uiso   1.00
C81    C     0.00000   0.75800   0.72740   0.00000  Uiso   1.00
C82    C     0.00000   0.80520   0.83270   0.00000  Uiso   1.00
C83    C     0.00000   0.70080   0.43830   0.00000  Uiso   1.00
C84    C     0.00000   0.71620   0.52020   0.00000  Uiso   1.00
C85    C     0.00000   0.72300   0.54060   0.00000  Uiso   1.00
C86    C     0.00000   0.69410   0.41770   0.00000  Uiso   1.00
C87    C     0.00000   0.79820   0.81250   0.00000  Uiso   1.00
C88    C     0.00000   0.76480   0.74780   0.00000  Uiso   1.00
C89    C     0.00000   0.77840   0.70690   0.00000  Uiso   1.00
C90    C     0.00000   0.82540   0.81170   0.00000  Uiso   1.00
C91    C     0.00000   0.68010   0.45810   0.00000  Uiso   1.00
C92    C     0.00000   0.69580   0.54050   0.00000  Uiso   1.00
C93    C     0.00000   0.80480   0.79170   0.00000  Uiso   1.00
C94    C     0.00000   0.77840   0.74780   0.00000  Uiso   1.00
C95    C     0.00000   0.81840   0.79150   0.00000  Uiso   1.00
C96    C     0.00000   0.78520   0.72730   0.00000  Uiso   1.00
C97    C     0.00000   0.84700   0.87410   0.00000  Uiso   1.00
C98    C     0.00000   0.86140   0.87380   0.00000  Uiso   1.00
C99    C     0.00000   0.95150   0.85710   0.00000  Uiso   1.00
C100   C     0.00000   0.92410   0.85630   0.00000  Uiso   1.00
C101   C     0.00000   0.88890   0.87330   0.00000  Uiso   1.00
C102   C     0.00000   0.83990   0.85390   0.00000  Uiso   1.00
C103   C     0.00000   0.86860   0.89410   0.00000  Uiso   1.00
C104   C     0.00000   0.94440   0.87730   0.00000  Uiso   1.00
C105   C     0.00000   0.88190   0.85290   0.00000  Uiso   1.00
C106   C     0.00000   0.93120   0.83610   0.00000  Uiso   1.00
C107   C     0.00000   0.86830   0.85320   0.00000  Uiso   1.00
C108   C     0.00000   0.94480   0.83650   0.00000  Uiso   1.00
C109   C     0.00000   0.88220   0.89380   0.00000  Uiso   1.00
C110   C     0.00000   0.93080   0.87690   0.00000  Uiso   1.00
C111   C     0.00000   0.65980   0.39460   0.00000  Uiso   1.00
N112   N     0.00000   0.70090   0.47950   0.00000  Uiso   1.00
C113   C     0.00000   0.69510   0.49900   0.00000  Uiso   1.00
N114   N     0.00000   0.79790   0.77070   0.00000  Uiso   1.00
C115   C     0.00000   0.78530   0.76950   0.00000  Uiso   1.00
N116   N     0.00000   0.90290   0.87360   0.00000  Uiso   1.00
C117   C     0.00000   0.90980   0.85530   0.00000  Uiso   1.00
C118   C     0.00000   0.75740   0.68520   0.00000  Uiso   1.00
C119   C     0.00000   0.76400   0.66430   0.00000  Uiso   1.00
N120   N     0.00000   0.75720   0.64460   0.00000  Uiso   1.00
C121   C     0.00000   0.74390   0.64420   0.00000  Uiso   1.00
C122   C     0.00000   0.73690   0.66480   0.00000  Uiso   1.00
C123   C     0.00000   0.74370   0.68510   0.00000  Uiso   1.00
C124   C     0.00000   0.72330   0.66470   0.00000  Uiso   1.00
C125   C     0.00000   0.71650   0.64430   0.00000  Uiso   1.00
C126   C     0.00000   0.72330   0.62390   0.00000  Uiso   1.00
C127   C     0.00000   0.73710   0.62370   0.00000  Uiso   1.00
N128   N     0.00000   0.74350   0.60360   0.00000  Uiso   1.00
C129   C     0.00000   0.73710   0.58360   0.00000  Uiso   1.00
C130   C     0.00000   0.72340   0.58300   0.00000  Uiso   1.00
C131   C     0.00000   0.71660   0.60350   0.00000  Uiso   1.00
C132   C     0.00000   0.96600   0.85750   0.00000  Uiso   1.00
C133   C     0.00000   0.97310   0.83740   0.00000  Uiso   1.00
N134   N     0.00000   0.98640   0.83770   0.00000  Uiso   1.00
C135   C     0.00000   0.99320   0.85750   0.00000  Uiso   1.00
C136   C     0.00000   0.98640   0.87820   0.00000  Uiso   1.00
C137   C     0.00000   0.97280   0.87800   0.00000  Uiso   1.00
C138   C     0.00000   0.99320   0.89860   0.00000  Uiso   1.00
C139   C     0.00000   0.82660   0.89520   0.00000  Uiso   1.00
C140   C     0.00000   0.81950   0.91700   0.00000  Uiso   1.00
C141   C     0.00000   0.78380   0.06130   0.00000  Uiso   1.00
C142   C     0.00000   0.73530   0.20670   0.00000  Uiso   1.00
C143   C     0.00000   0.68110   0.33250   0.00000  Uiso   1.00
C144   C     0.00000   0.67370   0.35400   0.00000  Uiso   1.00
C145   C     0.00000   0.79740   0.02010   0.00000  Uiso   1.00
C146   C     0.00000   0.80620   0.95860   0.00000  Uiso   1.00
C147   C     0.00000   0.81970   0.87480   0.00000  Uiso   1.00
C148   C     0.00000   0.82650   0.93750   0.00000  Uiso   1.00
C149   C     0.00000   0.79740   0.06100   0.00000  Uiso   1.00
C150   C     0.00000   0.74200   0.22740   0.00000  Uiso   1.00
C151   C     0.00000   0.69480   0.33270   0.00000  Uiso   1.00
C152   C     0.00000   0.79920   0.93830   0.00000  Uiso   1.00
C153   C     0.00000   0.78380   0.02020   0.00000  Uiso   1.00
C154   C     0.00000   0.77700   0.04060   0.00000  Uiso   1.00
C155   C     0.00000   0.80590   0.91770   0.00000  Uiso   1.00
C156   C     0.00000   0.70180   0.31250   0.00000  Uiso   1.00
C157   C     0.00000   0.73520   0.24780   0.00000  Uiso   1.00
C158   C     0.00000   0.72160   0.20690   0.00000  Uiso   1.00
C159   C     0.00000   0.67460   0.31170   0.00000  Uiso   1.00
C160   C     0.00000   0.81990   0.95810   0.00000  Uiso   1.00
C161   C     0.00000   0.80420   0.04050   0.00000  Uiso   1.00
C162   C     0.00000   0.69520   0.29170   0.00000  Uiso   1.00
C163   C     0.00000   0.72160   0.24780   0.00000  Uiso   1.00
C164   C     0.00000   0.68160   0.29150   0.00000  Uiso   1.00
C165   C     0.00000   0.71480   0.22730   0.00000  Uiso   1.00
C166   C     0.00000   0.65300   0.37410   0.00000  Uiso   1.00
C167   C     0.00000   0.63860   0.37380   0.00000  Uiso   1.00
C168   C     0.00000   0.54850   0.35710   0.00000  Uiso   1.00
C169   C     0.00000   0.57590   0.35630   0.00000  Uiso   1.00
C170   C     0.00000   0.61110   0.37330   0.00000  Uiso   1.00
C171   C     0.00000   0.66010   0.35390   0.00000  Uiso   1.00
C172   C     0.00000   0.63140   0.39410   0.00000  Uiso   1.00
C173   C     0.00000   0.55560   0.37730   0.00000  Uiso   1.00
C174   C     0.00000   0.61810   0.35290   0.00000  Uiso   1.00
C175   C     0.00000   0.56880   0.33610   0.00000  Uiso   1.00
C176   C     0.00000   0.63170   0.35320   0.00000  Uiso   1.00
C177   C     0.00000   0.55520   0.33650   0.00000  Uiso   1.00
C178   C     0.00000   0.61780   0.39380   0.00000  Uiso   1.00
C179   C     0.00000   0.56920   0.37690   0.00000  Uiso   1.00
C180   C     0.00000   0.84020   0.89460   0.00000  Uiso   1.00
N181   N     0.00000   0.79910   0.97950   0.00000  Uiso   1.00
C182   C     0.00000   0.80490   0.99900   0.00000  Uiso   1.00
N183   N     0.00000   0.70210   0.27070   0.00000  Uiso   1.00
C184   C     0.00000   0.71470   0.26950   0.00000  Uiso   1.00
N185   N     0.00000   0.59710   0.37360   0.00000  Uiso   1.00
C186   C     0.00000   0.59020   0.35530   0.00000  Uiso   1.00
C187   C     0.00000   0.74260   0.18520   0.00000  Uiso   1.00
C188   C     0.00000   0.73600   0.16430   0.00000  Uiso   1.00
N189   N     0.00000   0.74280   0.14460   0.00000  Uiso   1.00
C190   C     0.00000   0.75610   0.14420   0.00000  Uiso   1.00
C191   C     0.00000   0.76310   0.16480   0.00000  Uiso   1.00
C192   C     0.00000   0.75630   0.18510   0.00000  Uiso   1.00
C193   C     0.00000   0.77670   0.16470   0.00000  Uiso   1.00
C194   C     0.00000   0.78350   0.14430   0.00000  Uiso   1.00
C195   C     0.00000   0.77670   0.12390   0.00000  Uiso   1.00
C196   C     0.00000   0.76290   0.12370   0.00000  Uiso   1.00
N197   N     0.00000   0.75650   0.10360   0.00000  Uiso   1.00
C198   C     0.00000   0.76290   0.08360   0.00000  Uiso   1.00
C199   C     0.00000   0.77660   0.08300   0.00000  Uiso   1.00
C200   C     0.00000   0.78340   0.10350   0.00000  Uiso   1.00
C201   C     0.00000   0.53400   0.35750   0.00000  Uiso   1.00
C202   C     0.00000   0.52690   0.33740   0.00000  Uiso   1.00
N203   N     0.00000   0.51360   0.33770   0.00000  Uiso   1.00
C204   C     0.00000   0.50680   0.35750   0.00000  Uiso   1.00
C205   C     0.00000   0.51360   0.37820   0.00000  Uiso   1.00
C206   C     0.00000   0.52720   0.37800   0.00000  Uiso   1.00
C207   C     0.00000   0.50680   0.39860   0.00000  Uiso   1.00
C208   C     0.00000   0.32660   0.39520   0.00000  Uiso   1.00
C209   C     0.00000   0.31950   0.41700   0.00000  Uiso   1.00
C210   C     0.00000   0.28380   0.56130   0.00000  Uiso   1.00
C211   C     0.00000   0.23530   0.70670   0.00000  Uiso   1.00
C212   C     0.00000   0.18110   0.83250   0.00000  Uiso   1.00
C213   C     0.00000   0.17370   0.85400   0.00000  Uiso   1.00
C214   C     0.00000   0.29740   0.52010   0.00000  Uiso   1.00
C215   C     0.00000   0.30620   0.45860   0.00000  Uiso   1.00
C216   C     0.00000   0.31970   0.37480   0.00000  Uiso   1.00
C217   C     0.00000   0.32650   0.43750   0.00000  Uiso   1.00
C218   C     0.00000   0.29740   0.56100   0.00000  Uiso   1.00
C219   C     0.00000   0.24200   0.72740   0.00000  Uiso   1.00
C220   C     0.00000   0.19480   0.83270   0.00000  Uiso   1.00
C221   C     0.00000   0.29920   0.43830   0.00000  Uiso   1.00
C222   C     0.00000   0.28380   0.52020   0.00000  Uiso   1.00
C223   C     0.00000   0.27700   0.54060   0.00000  Uiso   1.00
C224   C     0.00000   0.30590   0.41770   0.00000  Uiso   1.00
C225   C     0.00000   0.20180   0.81250   0.00000  Uiso   1.00
C226   C     0.00000   0.23520   0.74780   0.00000  Uiso   1.00
C227   C     0.00000   0.22160   0.70690   0.00000  Uiso   1.00
C228   C     0.00000   0.17460   0.81170   0.00000  Uiso   1.00
C229   C     0.00000   0.31990   0.45810   0.00000  Uiso   1.00
C230   C     0.00000   0.30420   0.54050   0.00000  Uiso   1.00
C231   C     0.00000   0.19520   0.79170   0.00000  Uiso   1.00
C232   C     0.00000   0.22160   0.74780   0.00000  Uiso   1.00
C233   C     0.00000   0.18160   0.79150   0.00000  Uiso   1.00
C234   C     0.00000   0.21480   0.72730   0.00000  Uiso   1.00
C235   C     0.00000   0.15300   0.87410   0.00000  Uiso   1.00
C236   C     0.00000   0.13860   0.87380   0.00000  Uiso   1.00
C237   C     0.00000   0.04850   0.85710   0.00000  Uiso   1.00
C238   C     0.00000   0.07590   0.85630   0.00000  Uiso   1.00
C239   C     0.00000   0.11110   0.87330   0.00000  Uiso   1.00
C240   C     0.00000   0.16010   0.85390   0.00000  Uiso   1.00
C241   C     0.00000   0.13140   0.89410   0.00000  Uiso   1.00
C242   C     0.00000   0.05560   0.87730   0.00000  Uiso   1.00
C243   C     0.00000   0.11810   0.85290   0.00000  Uiso   1.00
C244   C     0.00000   0.06880   0.83610   0.00000  Uiso   1.00
C245   C     0.00000   0.13170   0.85320   0.00000  Uiso   1.00
C246   C     0.00000   0.05520   0.83650   0.00000  Uiso   1.00
C247   C     0.00000   0.11780   0.89380   0.00000  Uiso   1.00
C248   C     0.00000   0.06920   0.87690   0.00000  Uiso   1.00
C249   C     0.00000   0.34020   0.39460   0.00000  Uiso   1.00
N250   N     0.00000   0.29910   0.47950   0.00000  Uiso   1.00
C251   C     0.00000   0.30490   0.49900   0.00000  Uiso   1.00
N252   N     0.00000   0.20210   0.77070   0.00000  Uiso   1.00
C253   C     0.00000   0.21470   0.76950   0.00000  Uiso   1.00
N254   N     0.00000   0.09710   0.87360   0.00000  Uiso   1.00
C255   C     0.00000   0.09020   0.85530   0.00000  Uiso   1.00
C256   C     0.00000   0.24260   0.68520   0.00000  Uiso   1.00
C257   C     0.00000   0.23600   0.66430   0.00000  Uiso   1.00
N258   N     0.00000   0.24280   0.64460   0.00000  Uiso   1.00
C259   C     0.00000   0.25610   0.64420   0.00000  Uiso   1.00
C260   C     0.00000   0.26310   0.66480   0.00000  Uiso   1.00
C261   C     0.00000   0.25630   0.68510   0.00000  Uiso   1.00
C262   C     0.00000   0.27670   0.66470   0.00000  Uiso   1.00
C263   C     0.00000   0.28350   0.64430   0.00000  Uiso   1.00
C264   C     0.00000   0.27670   0.62390   0.00000  Uiso   1.00
C265   C     0.00000   0.26290   0.62370   0.00000  Uiso   1.00
N266   N     0.00000   0.25650   0.60360   0.00000  Uiso   1.00
C267   C     0.00000   0.26290   0.58360   0.00000  Uiso   1.00
C268   C     0.00000   0.27660   0.58300   0.00000  Uiso   1.00
C269   C     0.00000   0.28340   0.60350   0.00000  Uiso   1.00
C270   C     0.00000   0.03400   0.85750   0.00000  Uiso   1.00
C271   C     0.00000   0.02690   0.83740   0.00000  Uiso   1.00
N272   N     0.00000   0.01360   0.83770   0.00000  Uiso   1.00
C273   C     0.00000   0.00680   0.85750   0.00000  Uiso   1.00
C274   C     0.00000   0.01360   0.87820   0.00000  Uiso   1.00
C275   C     0.00000   0.02720   0.87800   0.00000  Uiso   1.00
C276   C     0.00000   0.00680   0.89860   0.00000  Uiso   1.00
H277   H     0.00000   0.19141   0.87492   0.00000  Uiso   1.00
H278   H     0.00000   0.16239   0.93730   0.00000  Uiso   1.00
H279   H     0.00000   0.19692   0.07754   0.00000  Uiso   1.00
H280   H     0.00000   0.24689   0.22764   0.00000  Uiso   1.00
H281   H     0.00000   0.29973   0.34945   0.00000  Uiso   1.00
H282   H     0.00000   0.21191   0.93858   0.00000  Uiso   1.00
H283   H     0.00000   0.22180   0.00357   0.00000  Uiso   1.00
H284   H     0.00000   0.23411   0.04048   0.00000  Uiso   1.00
H285   H     0.00000   0.19994   0.90132   0.00000  Uiso   1.00
H286   H     0.00000   0.28709   0.31283   0.00000  Uiso   1.00
H287   H     0.00000   0.25924   0.26447   0.00000  Uiso   1.00
H288   H     0.00000   0.28404   0.19031   0.00000  Uiso   1.00
H289   H     0.00000   0.33651   0.31117   0.00000  Uiso   1.00
H290   H     0.00000   0.17434   0.97456   0.00000  Uiso   1.00
H291   H     0.00000   0.18469   0.04046   0.00000  Uiso   1.00
H292   H     0.00000   0.32379   0.27467   0.00000  Uiso   1.00
H293   H     0.00000   0.29631   0.22726   0.00000  Uiso   1.00
H294   H     0.00000   0.34542   0.33719   0.00000  Uiso   1.00
H295   H     0.00000   0.36331   0.41102   0.00000  Uiso   1.00
H296   H     0.00000   0.44973   0.39419   0.00000  Uiso   1.00
H297   H     0.00000   0.38733   0.33611   0.00000  Uiso   1.00
H298   H     0.00000   0.42587   0.31921   0.00000  Uiso   1.00
H299   H     0.00000   0.36262   0.33666   0.00000  Uiso   1.00
H300   H     0.00000   0.45052   0.32000   0.00000  Uiso   1.00
H301   H     0.00000   0.38788   0.41034   0.00000  Uiso   1.00
H302   H     0.00000   0.42508   0.39340   0.00000  Uiso   1.00
H303   H     0.00000   0.15400   0.91102   0.00000  Uiso   1.00
H304   H     0.00000   0.18400   0.99992   0.00000  Uiso   1.00
H305   H     0.00000   0.27922   0.28561   0.00000  Uiso   1.00
H306   H     0.00000   0.40464   0.33826   0.00000  Uiso   1.00
H307   H     0.00000   0.27511   0.16386   0.00000  Uiso   1.00
H308   H     0.00000   0.23810   0.20173   0.00000  Uiso   1.00
H309   H     0.00000   0.21770   0.18133   0.00000  Uiso   1.00
H310   H     0.00000   0.20539   0.14430   0.00000  Uiso   1.00
H311   H     0.00000   0.24282   0.06710   0.00000  Uiso   1.00
H312   H     0.00000   0.20549   0.10338   0.00000  Uiso   1.00
H313   H     0.00000   0.46779   0.32049   0.00000  Uiso   1.00
H314   H     0.00000   0.46716   0.39459   0.00000  Uiso   1.00
H315   H     0.00000   0.48764   0.41527   0.00000  Uiso   1.00
H316   H     0.00000   0.69141   0.37492   0.00000  Uiso   1.00
H317   H     0.00000   0.66239   0.43730   0.00000  Uiso   1.00
H318   H     0.00000   0.69692   0.57754   0.00000  Uiso   1.00
H319   H     0.00000   0.74689   0.72764   0.00000  Uiso   1.00
H320   H     0.00000   0.79973   0.84945   0.00000  Uiso   1.00
H321   H     0.00000   0.71191   0.43858   0.00000  Uiso   1.00
H322   H     0.00000   0.72180   0.50357   0.00000  Uiso   1.00
H323   H     0.00000   0.73411   0.54048   0.00000  Uiso   1.00
H324   H     0.00000   0.69994   0.40132   0.00000  Uiso   1.00
H325   H     0.00000   0.78709   0.81283   0.00000  Uiso   1.00
H326   H     0.00000   0.75924   0.76447   0.00000  Uiso   1.00
H327   H     0.00000   0.78404   0.69031   0.00000  Uiso   1.00
H328   H     0.00000   0.83651   0.81117   0.00000  Uiso   1.00
H329   H     0.00000   0.67434   0.47456   0.00000  Uiso   1.00
H330   H     0.00000   0.68469   0.54046   0.00000  Uiso   1.00
H331   H     0.00000   0.82379   0.77467   0.00000  Uiso   1.00
H332   H     0.00000   0.79631   0.72726   0.00000  Uiso   1.00
H333   H     0.00000   0.84542   0.83719   0.00000  Uiso   1.00
H334   H     0.00000   0.86331   0.91102   0.00000  Uiso   1.00
H335   H     0.00000   0.94973   0.89419   0.00000  Uiso   1.00
H336   H     0.00000   0.88733   0.83611   0.00000  Uiso   1.00
H337   H     0.00000   0.92587   0.81921   0.00000  Uiso   1.00
H338   H     0.00000   0.86262   0.83666   0.00000  Uiso   1.00
H339   H     0.00000   0.95052   0.82000   0.00000  Uiso   1.00
H340   H     0.00000   0.88788   0.91034   0.00000  Uiso   1.00
H341   H     0.00000   0.92508   0.89340   0.00000  Uiso   1.00
H342   H     0.00000   0.65400   0.41102   0.00000  Uiso   1.00
H343   H     0.00000   0.68400   0.49992   0.00000  Uiso   1.00
H344   H     0.00000   0.77922   0.78561   0.00000  Uiso   1.00
H345   H     0.00000   0.90464   0.83826   0.00000  Uiso   1.00
H346   H     0.00000   0.77511   0.66386   0.00000  Uiso   1.00
H347   H     0.00000   0.73810   0.70173   0.00000  Uiso   1.00
H348   H     0.00000   0.71770   0.68133   0.00000  Uiso   1.00
H349   H     0.00000   0.70539   0.64430   0.00000  Uiso   1.00
H350   H     0.00000   0.74282   0.56710   0.00000  Uiso   1.00
H351   H     0.00000   0.70549   0.60338   0.00000  Uiso   1.00
H352   H     0.00000   0.96779   0.82049   0.00000  Uiso   1.00
H353   H     0.00000   0.96716   0.89459   0.00000  Uiso   1.00
H354   H     0.00000   0.98764   0.91527   0.00000  Uiso   1.00
H355   H     0.00000   0.80859   0.87492   0.00000  Uiso   1.00
H356   H     0.00000   0.83761   0.93730   0.00000  Uiso   1.00
H357   H     0.00000   0.80308   0.07754   0.00000  Uiso   1.00
H358   H     0.00000   0.75311   0.22764   0.00000  Uiso   1.00
H359   H     0.00000   0.70027   0.34945   0.00000  Uiso   1.00
H360   H     0.00000   0.78809   0.93858   0.00000  Uiso   1.00
H361   H     0.00000   0.77820   0.00357   0.00000  Uiso   1.00
H362   H     0.00000   0.76589   0.04048   0.00000  Uiso   1.00
H363   H     0.00000   0.80006   0.90132   0.00000  Uiso   1.00
H364   H     0.00000   0.71291   0.31283   0.00000  Uiso   1.00
H365   H     0.00000   0.74076   0.26447   0.00000  Uiso   1.00
H366   H     0.00000   0.71596   0.19031   0.00000  Uiso   1.00
H367   H     0.00000   0.66349   0.31117   0.00000  Uiso   1.00
H368   H     0.00000   0.82566   0.97456   0.00000  Uiso   1.00
H369   H     0.00000   0.81531   0.04046   0.00000  Uiso   1.00
H370   H     0.00000   0.67621   0.27467   0.00000  Uiso   1.00
H371   H     0.00000   0.70369   0.22726   0.00000  Uiso   1.00
H372   H     0.00000   0.65458   0.33719   0.00000  Uiso   1.00
H373   H     0.00000   0.63669   0.41102   0.00000  Uiso   1.00
H374   H     0.00000   0.55027   0.39419   0.00000  Uiso   1.00
H375   H     0.00000   0.61267   0.33611   0.00000  Uiso   1.00
H376   H     0.00000   0.57413   0.31921   0.00000  Uiso   1.00
H377   H     0.00000   0.63738   0.33666   0.00000  Uiso   1.00
H378   H     0.00000   0.54948   0.32000   0.00000  Uiso   1.00
H379   H     0.00000   0.61212   0.41034   0.00000  Uiso   1.00
H380   H     0.00000   0.57492   0.39340   0.00000  Uiso   1.00
H381   H     0.00000   0.84600   0.91102   0.00000  Uiso   1.00
H382   H     0.00000   0.81600   0.99992   0.00000  Uiso   1.00
H383   H     0.00000   0.72078   0.28561   0.00000  Uiso   1.00
H384   H     0.00000   0.59536   0.33826   0.00000  Uiso   1.00
H385   H     0.00000   0.72489   0.16386   0.00000  Uiso   1.00
H386   H     0.00000   0.76190   0.20173   0.00000  Uiso   1.00
H387   H     0.00000   0.78230   0.18133   0.00000  Uiso   1.00
H388   H     0.00000   0.79461   0.14430   0.00000  Uiso   1.00
H389   H     0.00000   0.75718   0.06710   0.00000  Uiso   1.00
H390   H     0.00000   0.79451   0.10338   0.00000  Uiso   1.00
H391   H     0.00000   0.53221   0.32049   0.00000  Uiso   1.00
H392   H     0.00000   0.53284   0.39459   0.00000  Uiso   1.00
H393   H     0.00000   0.51236   0.41527   0.00000  Uiso   1.00
H394   H     0.00000   0.30859   0.37492   0.00000  Uiso   1.00
H395   H     0.00000   0.33761   0.43730   0.00000  Uiso   1.00
H396   H     0.00000   0.30308   0.57754   0.00000  Uiso   1.00
H397   H     0.00000   0.25311   0.72764   0.00000  Uiso   1.00
H398   H     0.00000   0.20027   0.84945   0.00000  Uiso   1.00
H399   H     0.00000   0.28809   0.43858   0.00000  Uiso   1.00
H400   H     0.00000   0.27820   0.50357   0.00000  Uiso   1.00
H401   H     0.00000   0.26589   0.54048   0.00000  Uiso   1.00
H402   H     0.00000   0.30006   0.40132   0.00000  Uiso   1.00
H403   H     0.00000   0.21291   0.81283   0.00000  Uiso   1.00
H404   H     0.00000   0.24076   0.76447   0.00000  Uiso   1.00
H405   H     0.00000   0.21596   0.69031   0.00000  Uiso   1.00
H406   H     0.00000   0.16349   0.81117   0.00000  Uiso   1.00
H407   H     0.00000   0.32566   0.47456   0.00000  Uiso   1.00
H408   H     0.00000   0.31531   0.54046   0.00000  Uiso   1.00
H409   H     0.00000   0.17621   0.77467   0.00000  Uiso   1.00
H410   H     0.00000   0.20369   0.72726   0.00000  Uiso   1.00
H411   H     0.00000   0.15458   0.83719   0.00000  Uiso   1.00
H412   H     0.00000   0.13669   0.91102   0.00000  Uiso   1.00
H413   H     0.00000   0.05027   0.89419   0.00000  Uiso   1.00
H414   H     0.00000   0.11267   0.83611   0.00000  Uiso   1.00
H415   H     0.00000   0.07413   0.81921   0.00000  Uiso   1.00
H416   H     0.00000   0.13738   0.83666   0.00000  Uiso   1.00
H417   H     0.00000   0.04948   0.82000   0.00000  Uiso   1.00
H418   H     0.00000   0.11212   0.91034   0.00000  Uiso   1.00
H419   H     0.00000   0.07492   0.89340   0.00000  Uiso   1.00
H420   H     0.00000   0.34600   0.41102   0.00000  Uiso   1.00
H421   H     0.00000   0.31600   0.49992   0.00000  Uiso   1.00
H422   H     0.00000   0.22078   0.78561   0.00000  Uiso   1.00
H423   H     0.00000   0.09536   0.83826   0.00000  Uiso   1.00
H424   H     0.00000   0.22489   0.66386   0.00000  Uiso   1.00
H425   H     0.00000   0.26190   0.70173   0.00000  Uiso   1.00
H426   H     0.00000   0.28230   0.68133   0.00000  Uiso   1.00
H427   H     0.00000   0.29461   0.64430   0.00000  Uiso   1.00
H428   H     0.00000   0.25718   0.56710   0.00000  Uiso   1.00
H429   H     0.00000   0.29451   0.60338   0.00000  Uiso   1.00
H430   H     0.00000   0.03221   0.82049   0.00000  Uiso   1.00
H431   H     0.00000   0.03284   0.89459   0.00000  Uiso   1.00
H432   H     0.00000   0.01236   0.91527   0.00000  Uiso   1.00
loop_
_geom_bond_atom_site_label_1
_geom_bond_atom_site_label_2
_geom_bond_distance
_geom_bond_site_symmetry_2
_ccdc_geom_bond_type
C1     C2      1.482   .     S
C1     C9      1.400   .     S
C1     C42     1.396   .     D
C2     C10     1.411   .     S
C2     C17     1.396   .     D
C3     C11     1.395   .     D
C3     C16     1.411   .     S
C3     C61     1.482   .     S
C4     C12     1.406   .     S
C4     C20     1.406   .     D
C4     C49     1.477   .     S
C5     C6      1.483   .     S
C5     C13     1.406   .     S
C5     C21     1.401   .     D
C6     C33     1.395   .     S
C6     C216    1.406   .     D
C7     C15     1.395   .     S
C7     C23     1.395   .     D
C7     C44     1.468   1_554 S
C8     C14     1.401   .     D
C8     C22     1.406   .     S
C8     N43     1.436   .     S
C9     C213    1.406   .     D
C9     H277    1.140   .     S
C10    C22     1.395   .     D
C10    H278    1.140   .     S
C11    C23     1.400   .     S
C11    H279    1.140   .     S
C12    C19     1.395   .     D
C12    H280    1.140   .     S
C13    C18     1.395   .     D
C13    H281    1.140   .     S
C14    C17     1.400   .     S
C14    H282    1.140   .     S
C15    C16     1.395   .     D
C15    H283    1.140   .     S
C16    H284    1.140   .     S
C17    H285    1.140   .     S
C18    C24     1.406   .     S
C18    H286    1.140   .     S
C19    C25     1.395   .     S
C19    H287    1.140   .     S
C20    C27     1.395   .     S
C20    H288    1.140   .     S
C21    C26     1.395   .     S
C21    H289    1.140   .     S
C22    H290    1.140   .     S
C23    H291    1.140   .     S
C24    C26     1.395   .     D
C24    N45     1.431   .     S
C25    C27     1.400   .     D
C25    C46     1.467   .     S
C26    H292    1.140   .     S
C27    H293    1.140   .     S
C28    C29     1.477   .     S
C28    C33     1.401   .     D
C28    C249    1.400   .     S
C29    C34     1.411   .     D
C29    C38     1.411   .     S
C30    C35     1.401   .     S
C30    C39     1.400   .     D
C30    C63     1.488   .     S
C31    C37     1.401   .     D
C31    C41     1.400   .     S
C31    C48     1.468   .     S
C32    C36     1.406   .     S
C32    C40     1.395   .     D
C32    N47     1.436   .     S
C33    H294    1.140   .     S
C34    C40     1.395   .     S
C34    H295    1.140   .     S
C35    C41     1.395   .     D
C35    H296    1.140   .     S
C36    C38     1.395   .     D
C36    H297    1.140   .     S
C37    C39     1.395   .     S
C37    H298    1.140   .     S
C38    H299    1.140   .     S
C39    H300    1.140   .     S
C40    H301    1.140   .     S
C41    H302    1.140   .     S
C42    C235    1.400   .     S
C42    H303    1.140   .     S
N43    C44     1.299   .     D
C44    H304    1.140   .     S
C44    C7      1.468   1_556 S
N45    C46     1.295   .     D
C46    H305    1.140   .     S
N47    C48     1.295   .     D
C48    H306    1.140   .     S
C49    C50     1.411   .     S
C49    C54     1.405   .     D
C50    N51     1.359   .     D
C50    H307    1.140   .     S
N51    C52     1.365   .     S
C52    C53     1.416   .     D
C52    C58     1.400   .     S
C53    C54     1.390   .     S
C53    C55     1.395   .     S
C54    H308    1.140   .     S
C55    C56     1.395   .     D
C55    H309    1.140   .     S
C56    C57     1.395   .     S
C56    H310    1.140   .     S
C57    C58     1.416   .     D
C57    C62     1.390   .     S
C58    N59     1.360   .     S
N59    C60     1.354   .     D
C60    C61     1.406   .     S
C60    H311    1.140   .     S
C61    C62     1.400   .     D
C62    H312    1.140   .     S
C63    C64     1.396   .     D
C63    C68     1.400   .     S
C64    N65     1.365   .     S
C64    H313    1.140   .     S
N65    C66     1.365   .     D
C66    C67     1.411   .     S
C66    C204    1.395   .     S
C67    C68     1.395   .     D
C67    C69     1.395   .     S
C68    H314    1.140   .     S
C69    C207    1.395   .     D
C69    H315    1.140   .     S
C70    C71     1.482   .     S
C70    C78     1.400   .     S
C70    C111    1.396   .     D
C71    C79     1.411   .     D
C71    C86     1.396   .     S
C72    C80     1.395   .     S
C72    C85     1.411   .     D
C72    C130    1.482   .     S
C73    C81     1.406   .     S
C73    C89     1.406   .     D
C73    C118    1.477   .     S
C74    C75     1.483   .     S
C74    C82     1.406   .     S
C74    C90     1.401   .     D
C75    C102    1.395   .     D
C75    C147    1.406   .     S
C76    C84     1.395   .     D
C76    C92     1.395   .     S
C76    C113    1.468   .     S
C77    C83     1.401   .     S
C77    C91     1.406   .     D
C77    N112    1.436   .     S
C78    C144    1.406   .     D
C78    H316    1.140   .     S
C79    C91     1.395   .     S
C79    H317    1.140   .     S
C80    C92     1.400   .     D
C80    H318    1.140   .     S
C81    C88     1.395   .     D
C81    H319    1.140   .     S
C82    C87     1.395   .     D
C82    H320    1.140   .     S
C83    C86     1.400   .     D
C83    H321    1.140   .     S
C84    C85     1.395   .     S
C84    H322    1.140   .     S
C85    H323    1.140   .     S
C86    H324    1.140   .     S
C87    C93     1.406   .     S
C87    H325    1.140   .     S
C88    C94     1.395   .     S
C88    H326    1.140   .     S
C89    C96     1.395   .     S
C89    H327    1.140   .     S
C90    C95     1.395   .     S
C90    H328    1.140   .     S
C91    H329    1.140   .     S
C92    H330    1.140   .     S
C93    C95     1.395   .     D
C93    N114    1.431   .     S
C94    C96     1.400   .     D
C94    C115    1.467   .     S
C95    H331    1.140   .     S
C96    H332    1.140   .     S
C97    C98     1.477   .     S
C97    C102    1.401   .     S
C97    C180    1.400   .     D
C98    C103    1.411   .     S
C98    C107    1.411   .     D
C99    C104    1.401   .     D
C99    C108    1.400   .     S
C99    C132    1.488   .     S
C100   C106    1.401   .     S
C100   C110    1.400   .     D
C100   C117    1.468   .     S
C101   C105    1.406   .     D
C101   C109    1.395   .     S
C101   N116    1.436   .     S
C102   H333    1.140   .     S
C103   C109    1.395   .     D
C103   H334    1.140   .     S
C104   C110    1.395   .     S
C104   H335    1.140   .     S
C105   C107    1.395   .     S
C105   H336    1.140   .     S
C106   C108    1.395   .     D
C106   H337    1.140   .     S
C107   H338    1.140   .     S
C108   H339    1.140   .     S
C109   H340    1.140   .     S
C110   H341    1.140   .     S
C111   C166    1.400   .     S
C111   H342    1.140   .     S
N112   C113    1.299   .     D
C113   H343    1.140   .     S
N114   C115    1.295   .     D
C115   H344    1.140   .     S
N116   C117    1.295   .     D
C117   H345    1.140   .     S
C118   C119    1.411   .     S
C118   C123    1.405   .     D
C119   N120    1.359   .     D
C119   H346    1.140   .     S
N120   C121    1.365   .     S
C121   C122    1.416   .     S
C121   C127    1.400   .     D
C122   C123    1.390   .     S
C122   C124    1.395   .     D
C123   H347    1.140   .     S
C124   C125    1.395   .     S
C124   H348    1.140   .     S
C125   C126    1.395   .     D
C125   H349    1.140   .     S
C126   C127    1.416   .     S
C126   C131    1.390   .     S
C127   N128    1.360   .     S
N128   C129    1.354   .     D
C129   C130    1.406   .     S
C129   H350    1.140   .     S
C130   C131    1.400   .     D
C131   H351    1.140   .     S
C132   C133    1.396   .     S
C132   C137    1.400   .     D
C133   N134    1.365   .     D
C133   H352    1.140   .     S
N134   C135    1.365   .     S
C135   C136    1.411   .     S
C135   C273    1.395   1_565 D
C136   C137    1.395   .     S
C136   C138    1.395   .     D
C137   H353    1.140   .     S
C138   H354    1.140   .     S
C138   C276    1.395   1_565 S
C139   C140    1.482   .     S
C139   C147    1.400   .     D
C139   C180    1.396   .     S
C140   C148    1.411   .     D
C140   C155    1.396   .     S
C141   C149    1.395   .     S
C141   C154    1.411   .     D
C141   C199    1.482   .     S
C142   C150    1.406   .     D
C142   C158    1.406   .     S
C142   C187    1.477   .     S
C143   C144    1.483   .     S
C143   C151    1.406   .     D
C143   C159    1.401   .     S
C144   C171    1.395   .     S
C145   C153    1.395   .     D
C145   C161    1.395   .     S
C145   C182    1.468   1_554 S
C146   C152    1.401   .     S
C146   C160    1.406   .     D
C146   N181    1.436   .     S
C147   H355    1.140   .     S
C148   C160    1.395   .     S
C148   H356    1.140   .     S
C149   C161    1.400   .     D
C149   H357    1.140   .     S
C150   C157    1.395   .     S
C150   H358    1.140   .     S
C151   C156    1.395   .     S
C151   H359    1.140   .     S
C152   C155    1.400   .     D
C152   H360    1.140   .     S
C153   C154    1.395   .     S
C153   H361    1.140   .     S
C154   H362    1.140   .     S
C155   H363    1.140   .     S
C156   C162    1.406   .     D
C156   H364    1.140   .     S
C157   C163    1.395   .     D
C157   H365    1.140   .     S
C158   C165    1.395   .     D
C158   H366    1.140   .     S
C159   C164    1.395   .     D
C159   H367    1.140   .     S
C160   H368    1.140   .     S
C161   H369    1.140   .     S
C162   C164    1.395   .     S
C162   N183    1.431   .     S
C163   C165    1.400   .     S
C163   C184    1.467   .     S
C164   H370    1.140   .     S
C165   H371    1.140   .     S
C166   C167    1.477   .     S
C166   C171    1.401   .     D
C167   C172    1.411   .     D
C167   C176    1.411   .     S
C168   C173    1.401   .     S
C168   C177    1.400   .     D
C168   C201    1.488   .     S
C169   C175    1.401   .     D
C169   C179    1.400   .     S
C169   C186    1.468   .     S
C170   C174    1.406   .     S
C170   C178    1.395   .     D
C170   N185    1.436   .     S
C171   H372    1.140   .     S
C172   C178    1.395   .     S
C172   H373    1.140   .     S
C173   C179    1.395   .     D
C173   H374    1.140   .     S
C174   C176    1.395   .     D
C174   H375    1.140   .     S
C175   C177    1.395   .     S
C175   H376    1.140   .     S
C176   H377    1.140   .     S
C177   H378    1.140   .     S
C178   H379    1.140   .     S
C179   H380    1.140   .     S
C180   H381    1.140   .     S
N181   C182    1.299   .     D
C182   H382    1.140   .     S
C182   C145    1.468   1_556 S
N183   C184    1.295   .     D
C184   H383    1.140   .     S
N185   C186    1.295   .     D
C186   H384    1.140   .     S
C187   C188    1.411   .     D
C187   C192    1.405   .     S
C188   N189    1.359   .     S
C188   H385    1.140   .     S
N189   C190    1.365   .     D
C190   C191    1.416   .     S
C190   C196    1.400   .     S
C191   C192    1.390   .     D
C191   C193    1.395   .     S
C192   H386    1.140   .     S
C193   C194    1.395   .     D
C193   H387    1.140   .     S
C194   C195    1.395   .     S
C194   H388    1.140   .     S
C195   C196    1.416   .     S
C195   C200    1.390   .     D
C196   N197    1.360   .     D
N197   C198    1.354   .     S
C198   C199    1.406   .     D
C198   H389    1.140   .     S
C199   C200    1.400   .     S
C200   H390    1.140   .     S
C201   C202    1.396   .     D
C201   C206    1.400   .     S
C202   N203    1.365   .     S
C202   H391    1.140   .     S
N203   C204    1.365   .     D
C204   C205    1.411   .     S
C205   C206    1.395   .     D
C205   C207    1.395   .     S
C206   H392    1.140   .     S
C207   H393    1.140   .     S
C208   C209    1.482   .     S
C208   C216    1.400   .     S
C208   C249    1.396   .     D
C209   C217    1.411   .     S
C209   C224    1.396   .     D
C210   C218    1.395   .     D
C210   C223    1.411   .     S
C210   C268    1.482   .     S
C211   C219    1.406   .     D
C211   C227    1.406   .     S
C211   C256    1.477   .     S
C212   C213    1.483   .     S
C212   C220    1.406   .     D
C212   C228    1.401   .     S
C213   C240    1.395   .     S
C214   C222    1.395   .     S
C214   C230    1.395   .     D
C214   C251    1.468   .     S
C215   C221    1.401   .     D
C215   C229    1.406   .     S
C215   N250    1.436   .     S
C216   H394    1.140   .     S
C217   C229    1.395   .     D
C217   H395    1.140   .     S
C218   C230    1.400   .     S
C218   H396    1.140   .     S
C219   C226    1.395   .     S
C219   H397    1.140   .     S
C220   C225    1.395   .     S
C220   H398    1.140   .     S
C221   C224    1.400   .     S
C221   H399    1.140   .     S
C222   C223    1.395   .     D
C222   H400    1.140   .     S
C223   H401    1.140   .     S
C224   H402    1.140   .     S
C225   C231    1.406   .     D
C225   H403    1.140   .     S
C226   C232    1.395   .     D
C226   H404    1.140   .     S
C227   C234    1.395   .     D
C227   H405    1.140   .     S
C228   C233    1.395   .     D
C228   H406    1.140   .     S
C229   H407    1.140   .     S
C230   H408    1.140   .     S
C231   C233    1.395   .     S
C231   N252    1.431   .     S
C232   C234    1.400   .     S
C232   C253    1.467   .     S
C233   H409    1.140   .     S
C234   H410    1.140   .     S
C235   C236    1.477   .     S
C235   C240    1.401   .     D
C236   C241    1.411   .     S
C236   C245    1.411   .     D
C237   C242    1.401   .     D
C237   C246    1.400   .     S
C237   C270    1.488   .     S
C238   C244    1.401   .     S
C238   C248    1.400   .     D
C238   C255    1.468   .     S
C239   C243    1.406   .     D
C239   C247    1.395   .     S
C239   N254    1.436   .     S
C240   H411    1.140   .     S
C241   C247    1.395   .     D
C241   H412    1.140   .     S
C242   C248    1.395   .     S
C242   H413    1.140   .     S
C243   C245    1.395   .     S
C243   H414    1.140   .     S
C244   C246    1.395   .     D
C244   H415    1.140   .     S
C245   H416    1.140   .     S
C246   H417    1.140   .     S
C247   H418    1.140   .     S
C248   H419    1.140   .     S
C249   H420    1.140   .     S
N250   C251    1.299   .     D
C251   H421    1.140   .     S
N252   C253    1.295   .     D
C253   H422    1.140   .     S
N254   C255    1.295   .     D
C255   H423    1.140   .     S
C256   C257    1.411   .     D
C256   C261    1.405   .     S
C257   N258    1.359   .     S
C257   H424    1.140   .     S
N258   C259    1.365   .     D
C259   C260    1.416   .     S
C259   C265    1.400   .     S
C260   C261    1.390   .     D
C260   C262    1.395   .     S
C261   H425    1.140   .     S
C262   C263    1.395   .     D
C262   H426    1.140   .     S
C263   C264    1.395   .     S
C263   H427    1.140   .     S
C264   C265    1.416   .     D
C264   C269    1.390   .     S
C265   N266    1.360   .     S
N266   C267    1.354   .     D
C267   C268    1.406   .     S
C267   H428    1.140   .     S
C268   C269    1.400   .     D
C269   H429    1.140   .     S
C270   C271    1.396   .     S
C270   C275    1.400   .     D
C271   N272    1.365   .     D
C271   H430    1.140   .     S
N272   C273    1.365   .     S
C273   C274    1.411   .     S
C273   C135    1.395   1_545 D
C274   C275    1.395   .     S
C274   C276    1.395   .     D
C275   H431    1.140   .     S
C276   H432    1.140   .     S
C276   C138    1.395   1_545 S
