data_7
_audit_creation_date              2023-09-08
_audit_creation_method            'Materials Studio'
_symmetry_space_group_name_H-M    'P1'
_symmetry_Int_Tables_number       1
_symmetry_cell_setting            triclinic
loop_
_symmetry_equiv_pos_as_xyz
  x,y,z
_cell_length_a                    41.2160
_cell_length_b                    4.9270
_cell_length_c                    40.2370
_cell_angle_alpha                 90.0000
_cell_angle_beta                  89.9430
_cell_angle_gamma                 90.0000
loop_
_atom_site_label
_atom_site_type_symbol
_atom_site_fract_x
_atom_site_fract_y
_atom_site_fract_z
_atom_site_U_iso_or_equiv
_atom_site_adp_type
_atom_site_occupancy
C1     C     0.55096   0.28410   0.34556   0.00000  Uiso   1.00
C2     C     0.94467   0.20390   0.34306   0.00000  Uiso   1.00
C3     C     0.91157   0.27910   0.34243   0.00000  Uiso   1.00
C4     C     0.89613   0.90070   0.37921   0.00000  Uiso   1.00
C5     C     0.56417   0.53710   0.33518   0.00000  Uiso   1.00
C6     C     0.95265   0.97950   0.36277   0.00000  Uiso   1.00
C7     C     0.88765   0.12400   0.35920   0.00000  Uiso   1.00
N8     N     0.62671   0.71440   0.40094   0.00000  Uiso   1.00
C9     C     0.56494   0.18670   0.37568   0.00000  Uiso   1.00
C10    C     0.60313   0.56550   0.38092   0.00000  Uiso   1.00
C11    C     0.58872   0.33130   0.39370   0.00000  Uiso   1.00
N12    N     0.87102   0.73840   0.39559   0.00000  Uiso   1.00
C13    C     0.92933   0.83720   0.38135   0.00000  Uiso   1.00
C14    C     0.59146   0.65820   0.35020   0.00000  Uiso   1.00
C15    C     0.22815   0.92910   0.98063   0.00000  Uiso   1.00
C16    C     0.25346   0.76890   0.96626   0.00000  Uiso   1.00
C17    C     0.27424   0.59410   0.98448   0.00000  Uiso   1.00
C18    C     0.29166   0.39050   0.04270   0.00000  Uiso   1.00
C19    C     0.19837   0.05310   0.03530   0.00000  Uiso   1.00
C20    C     0.20614   0.22100   0.06261   0.00000  Uiso   1.00
C21    C     0.18242   0.38640   0.07799   0.00000  Uiso   1.00
C22    C     0.15004   0.38150   0.06725   0.00000  Uiso   1.00
C23    C     0.14186   0.19660   0.04184   0.00000  Uiso   1.00
C24    C     0.16547   0.03270   0.02647   0.00000  Uiso   1.00
C25    C     0.29583   0.45550   0.07680   0.00000  Uiso   1.00
C26    C     0.31521   0.29710   0.09802   0.00000  Uiso   1.00
C27    C     0.33242   0.07080   0.08634   0.00000  Uiso   1.00
C28    C     0.30757   0.15140   0.03181   0.00000  Uiso   1.00
C29    C     0.12372   0.55720   0.08193   0.00000  Uiso   1.00
C30    C     0.35389   0.91400   0.10966   0.00000  Uiso   1.00
C31    C     0.47063   0.12070   0.78848   0.00000  Uiso   1.00
C32    C     0.49835   0.01690   0.77021   0.00000  Uiso   1.00
C33    C     0.52173   0.86880   0.78943   0.00000  Uiso   1.00
C34    C     0.47534   0.87290   0.67529   0.00000  Uiso   1.00
C35    C     0.50006   0.03140   0.65871   0.00000  Uiso   1.00
C36    C     0.52714   0.14200   0.67684   0.00000  Uiso   1.00
C37    C     0.43825   0.17210   0.77175   0.00000  Uiso   1.00
C38    C     0.54155   0.66850   0.77075   0.00000  Uiso   1.00
C39    C     0.49950   0.06660   0.62111   0.00000  Uiso   1.00
H40    H     0.90378   0.45980   0.32952   0.00000  Uiso   1.00
H41    H     0.55359   0.65550   0.31597   0.00000  Uiso   1.00
H42    H     0.97775   0.92580   0.36500   0.00000  Uiso   1.00
H43    H     0.86235   0.18320   0.35728   0.00000  Uiso   1.00
H44    H     0.55863   0.99460   0.38617   0.00000  Uiso   1.00
H45    H     0.59669   0.25370   0.41751   0.00000  Uiso   1.00
H46    H     0.93731   0.67460   0.39696   0.00000  Uiso   1.00
H47    H     0.60097   0.84150   0.33911   0.00000  Uiso   1.00
H48    H     0.25809   0.78410   0.93986   0.00000  Uiso   1.00
H49    H     0.23093   0.23100   0.07133   0.00000  Uiso   1.00
H50    H     0.18961   0.51970   0.09809   0.00000  Uiso   1.00
H51    H     0.11697   0.18030   0.03342   0.00000  Uiso   1.00
H52    H     0.15819   0.89700   0.00686   0.00000  Uiso   1.00
H53    H     0.28482   0.63450   0.08739   0.00000  Uiso   1.00
H54    H     0.31748   0.35750   0.12382   0.00000  Uiso   1.00
H55    H     0.34116   0.82790   0.04285   0.00000  Uiso   1.00
H56    H     0.30369   0.07350   0.00721   0.00000  Uiso   1.00
H57    H     0.09973   0.52690   0.07200   0.00000  Uiso   1.00
H58    H     0.35427   0.97820   0.13536   0.00000  Uiso   1.00
H59    H     0.42124   0.00690   0.77843   0.00000  Uiso   1.00
H60    H     0.43858   0.16850   0.74445   0.00000  Uiso   1.00
H61    H     0.42734   0.36700   0.77964   0.00000  Uiso   1.00
H62    H     0.54088   0.68490   0.74365   0.00000  Uiso   1.00
H63    H     0.52895   0.47600   0.77484   0.00000  Uiso   1.00
H64    H     0.56754   0.67620   0.77778   0.00000  Uiso   1.00
H65    H     0.48370   0.24040   0.61449   0.00000  Uiso   1.00
H66    H     0.49231   0.87860   0.60800   0.00000  Uiso   1.00
H67    H     0.52321   0.11290   0.60993   0.00000  Uiso   1.00
C68    C     0.32865   0.00000   0.05273   0.00000  Uiso   1.00
C69    C     0.05097   0.78410   0.34505   0.00000  Uiso   1.00
C70    C     0.44467   0.70390   0.34255   0.00000  Uiso   1.00
C71    C     0.41157   0.77910   0.34192   0.00000  Uiso   1.00
C72    C     0.39613   0.40070   0.37870   0.00000  Uiso   1.00
C73    C     0.06418   0.03710   0.33467   0.00000  Uiso   1.00
C74    C     0.45265   0.47950   0.36226   0.00000  Uiso   1.00
C75    C     0.38765   0.62400   0.35870   0.00000  Uiso   1.00
N76    N     0.12671   0.21440   0.40043   0.00000  Uiso   1.00
C77    C     0.06494   0.68670   0.37517   0.00000  Uiso   1.00
C78    C     0.10313   0.06550   0.38041   0.00000  Uiso   1.00
C79    C     0.08872   0.83130   0.39319   0.00000  Uiso   1.00
N80    N     0.37102   0.23840   0.39508   0.00000  Uiso   1.00
C81    C     0.42933   0.33720   0.38084   0.00000  Uiso   1.00
C82    C     0.09146   0.15820   0.34969   0.00000  Uiso   1.00
C83    C     0.72815   0.42910   0.98114   0.00000  Uiso   1.00
C84    C     0.75346   0.26890   0.96677   0.00000  Uiso   1.00
C85    C     0.77424   0.09410   0.98499   0.00000  Uiso   1.00
C86    C     0.79166   0.89050   0.04321   0.00000  Uiso   1.00
C87    C     0.69837   0.55310   0.03581   0.00000  Uiso   1.00
C88    C     0.70614   0.72100   0.06312   0.00000  Uiso   1.00
C89    C     0.68242   0.88640   0.07850   0.00000  Uiso   1.00
C90    C     0.65003   0.88150   0.06776   0.00000  Uiso   1.00
C91    C     0.64186   0.69660   0.04235   0.00000  Uiso   1.00
C92    C     0.66547   0.53270   0.02698   0.00000  Uiso   1.00
C93    C     0.79583   0.95550   0.07731   0.00000  Uiso   1.00
C94    C     0.81520   0.79710   0.09853   0.00000  Uiso   1.00
C95    C     0.83241   0.57080   0.08685   0.00000  Uiso   1.00
C96    C     0.80757   0.65140   0.03232   0.00000  Uiso   1.00
C97    C     0.62372   0.05720   0.08244   0.00000  Uiso   1.00
C98    C     0.85389   0.41400   0.11017   0.00000  Uiso   1.00
C99    C     0.97063   0.62070   0.78899   0.00000  Uiso   1.00
C100   C     0.99835   0.51690   0.77072   0.00000  Uiso   1.00
C101   C     0.02173   0.36880   0.78892   0.00000  Uiso   1.00
C102   C     0.97534   0.37290   0.67580   0.00000  Uiso   1.00
C103   C     0.00006   0.53140   0.65820   0.00000  Uiso   1.00
C104   C     0.02714   0.64200   0.67633   0.00000  Uiso   1.00
C105   C     0.93825   0.67210   0.77226   0.00000  Uiso   1.00
C106   C     0.04155   0.16850   0.77024   0.00000  Uiso   1.00
C107   C    -0.00050   0.56660   0.62060   0.00000  Uiso   1.00
H108   H     0.40378   0.95980   0.32901   0.00000  Uiso   1.00
H109   H     0.05359   0.15550   0.31546   0.00000  Uiso   1.00
H110   H     0.47775   0.42580   0.36449   0.00000  Uiso   1.00
H111   H     0.36235   0.68320   0.35677   0.00000  Uiso   1.00
H112   H     0.05863   0.49460   0.38566   0.00000  Uiso   1.00
H113   H     0.09670   0.75370   0.41700   0.00000  Uiso   1.00
H114   H     0.43732   0.17460   0.39645   0.00000  Uiso   1.00
H115   H     0.10097   0.34150   0.33860   0.00000  Uiso   1.00
H116   H     0.75809   0.28410   0.94037   0.00000  Uiso   1.00
H117   H     0.73093   0.73100   0.07185   0.00000  Uiso   1.00
H118   H     0.68960   0.01970   0.09860   0.00000  Uiso   1.00
H119   H     0.61697   0.68030   0.03393   0.00000  Uiso   1.00
H120   H     0.65819   0.39700   0.00737   0.00000  Uiso   1.00
H121   H     0.78481   0.13450   0.08790   0.00000  Uiso   1.00
H122   H     0.81748   0.85750   0.12433   0.00000  Uiso   1.00
H123   H     0.84116   0.32790   0.04336   0.00000  Uiso   1.00
H124   H     0.80369   0.57350   0.00772   0.00000  Uiso   1.00
H125   H     0.59973   0.02690   0.07251   0.00000  Uiso   1.00
H126   H     0.85427   0.47820   0.13587   0.00000  Uiso   1.00
H127   H     0.92124   0.50690   0.77894   0.00000  Uiso   1.00
H128   H     0.93858   0.66850   0.74496   0.00000  Uiso   1.00
H129   H     0.92734   0.86700   0.78015   0.00000  Uiso   1.00
H130   H     0.04088   0.18490   0.74314   0.00000  Uiso   1.00
H131   H     0.02895   0.97600   0.77433   0.00000  Uiso   1.00
H132   H     0.06755   0.17620   0.77727   0.00000  Uiso   1.00
H133   H     0.98370   0.74040   0.61500   0.00000  Uiso   1.00
H134   H     0.99231   0.37860   0.60851   0.00000  Uiso   1.00
H135   H     0.02321   0.61290   0.60942   0.00000  Uiso   1.00
C136   C     0.82865   0.50000   0.05324   0.00000  Uiso   1.00
C137   C     0.44855   0.28410   0.15546   0.00000  Uiso   1.00
C138   C     0.05485   0.20390   0.15796   0.00000  Uiso   1.00
C139   C     0.08795   0.27910   0.15859   0.00000  Uiso   1.00
C140   C     0.10338   0.90070   0.12181   0.00000  Uiso   1.00
C141   C     0.43534   0.53710   0.16584   0.00000  Uiso   1.00
C142   C     0.04687   0.97950   0.13825   0.00000  Uiso   1.00
C143   C     0.11186   0.12400   0.14181   0.00000  Uiso   1.00
N144   N     0.37280   0.71440   0.10008   0.00000  Uiso   1.00
C145   C     0.43458   0.18670   0.12534   0.00000  Uiso   1.00
C146   C     0.39638   0.56550   0.12010   0.00000  Uiso   1.00
C147   C     0.41080   0.33130   0.10732   0.00000  Uiso   1.00
N148   N     0.12850   0.73840   0.10543   0.00000  Uiso   1.00
C149   C     0.07018   0.83720   0.11967   0.00000  Uiso   1.00
C150   C     0.40805   0.65820   0.15082   0.00000  Uiso   1.00
C151   C     0.77039   0.92910   0.52039   0.00000  Uiso   1.00
C152   C     0.74508   0.76890   0.53476   0.00000  Uiso   1.00
C153   C     0.72430   0.59410   0.51654   0.00000  Uiso   1.00
C154   C     0.70786   0.39050   0.45832   0.00000  Uiso   1.00
C155   C     0.80115   0.05310   0.46572   0.00000  Uiso   1.00
C156   C     0.79337   0.22100   0.43841   0.00000  Uiso   1.00
C157   C     0.81709   0.38640   0.42303   0.00000  Uiso   1.00
C158   C     0.84948   0.38150   0.43377   0.00000  Uiso   1.00
C159   C     0.85765   0.19660   0.45918   0.00000  Uiso   1.00
C160   C     0.83404   0.03270   0.47455   0.00000  Uiso   1.00
C161   C     0.70369   0.45550   0.42422   0.00000  Uiso   1.00
C162   C     0.68431   0.29710   0.40300   0.00000  Uiso   1.00
C163   C     0.66710   0.07080   0.41468   0.00000  Uiso   1.00
C164   C     0.69194   0.15140   0.46921   0.00000  Uiso   1.00
C165   C     0.87579   0.55720   0.41909   0.00000  Uiso   1.00
C166   C     0.64562   0.91400   0.39136   0.00000  Uiso   1.00
C167   C     0.52791   0.12070   0.71254   0.00000  Uiso   1.00
C168   C     0.50019   0.01690   0.73081   0.00000  Uiso   1.00
C169   C     0.47681   0.86880   0.71159   0.00000  Uiso   1.00
C170   C     0.52320   0.87290   0.82573   0.00000  Uiso   1.00
C171   C     0.49848   0.03140   0.84231   0.00000  Uiso   1.00
C172   C     0.47140   0.14200   0.82418   0.00000  Uiso   1.00
C173   C     0.56029   0.17210   0.72927   0.00000  Uiso   1.00
C174   C     0.45699   0.66850   0.73027   0.00000  Uiso   1.00
C175   C     0.49905   0.06660   0.87991   0.00000  Uiso   1.00
H176   H     0.09573   0.45980   0.17150   0.00000  Uiso   1.00
H177   H     0.44592   0.65550   0.18506   0.00000  Uiso   1.00
H178   H     0.02177   0.92580   0.13602   0.00000  Uiso   1.00
H179   H     0.13716   0.18320   0.14374   0.00000  Uiso   1.00
H180   H     0.44089   0.99460   0.11485   0.00000  Uiso   1.00
H181   H     0.40282   0.25370   0.08351   0.00000  Uiso   1.00
H182   H     0.06220   0.67460   0.10406   0.00000  Uiso   1.00
H183   H     0.39854   0.84150   0.16191   0.00000  Uiso   1.00
H184   H     0.74046   0.78410   0.56116   0.00000  Uiso   1.00
H185   H     0.76858   0.23100   0.42968   0.00000  Uiso   1.00
H186   H     0.80991   0.51970   0.40293   0.00000  Uiso   1.00
H187   H     0.88255   0.18030   0.46760   0.00000  Uiso   1.00
H188   H     0.84132   0.89700   0.49416   0.00000  Uiso   1.00
H189   H     0.71470   0.63450   0.41363   0.00000  Uiso   1.00
H190   H     0.68203   0.35750   0.37720   0.00000  Uiso   1.00
H191   H     0.65836   0.82790   0.45817   0.00000  Uiso   1.00
H192   H     0.69582   0.07350   0.49381   0.00000  Uiso   1.00
H193   H     0.89978   0.52690   0.42902   0.00000  Uiso   1.00
H194   H     0.64525   0.97820   0.36566   0.00000  Uiso   1.00
H195   H     0.57730   0.00690   0.72259   0.00000  Uiso   1.00
H196   H     0.55997   0.16850   0.75657   0.00000  Uiso   1.00
H197   H     0.57120   0.36700   0.72138   0.00000  Uiso   1.00
H198   H     0.45766   0.68490   0.75737   0.00000  Uiso   1.00
H199   H     0.46959   0.47600   0.72618   0.00000  Uiso   1.00
H200   H     0.43100   0.67620   0.72324   0.00000  Uiso   1.00
H201   H     0.51484   0.24040   0.88653   0.00000  Uiso   1.00
H202   H     0.50623   0.87860   0.89302   0.00000  Uiso   1.00
H203   H     0.47533   0.11290   0.89109   0.00000  Uiso   1.00
C204   C     0.67086   0.00000   0.44828   0.00000  Uiso   1.00
C205   C     0.94855   0.78410   0.15597   0.00000  Uiso   1.00
C206   C     0.55485   0.70390   0.15847   0.00000  Uiso   1.00
C207   C     0.58795   0.77910   0.15910   0.00000  Uiso   1.00
C208   C     0.60338   0.40070   0.12232   0.00000  Uiso   1.00
C209   C     0.93534   0.03710   0.16635   0.00000  Uiso   1.00
C210   C     0.54687   0.47950   0.13876   0.00000  Uiso   1.00
C211   C     0.61186   0.62400   0.14232   0.00000  Uiso   1.00
N212   N     0.87280   0.21440   0.10059   0.00000  Uiso   1.00
C213   C     0.93458   0.68670   0.12585   0.00000  Uiso   1.00
C214   C     0.89638   0.06550   0.12061   0.00000  Uiso   1.00
C215   C     0.91079   0.83130   0.10783   0.00000  Uiso   1.00
N216   N     0.62850   0.23840   0.10594   0.00000  Uiso   1.00
C217   C     0.57018   0.33720   0.12018   0.00000  Uiso   1.00
C218   C     0.90805   0.15820   0.15133   0.00000  Uiso   1.00
C219   C     0.27040   0.42910   0.51988   0.00000  Uiso   1.00
C220   C     0.24508   0.26890   0.53425   0.00000  Uiso   1.00
C221   C     0.22430   0.09410   0.51603   0.00000  Uiso   1.00
C222   C     0.20786   0.89050   0.45781   0.00000  Uiso   1.00
C223   C     0.30115   0.55310   0.46521   0.00000  Uiso   1.00
C224   C     0.29338   0.72100   0.43790   0.00000  Uiso   1.00
C225   C     0.31709   0.88640   0.42252   0.00000  Uiso   1.00
C226   C     0.34948   0.88150   0.43326   0.00000  Uiso   1.00
C227   C     0.35765   0.69660   0.45866   0.00000  Uiso   1.00
C228   C     0.33404   0.53270   0.47404   0.00000  Uiso   1.00
C229   C     0.20369   0.95550   0.42371   0.00000  Uiso   1.00
C230   C     0.18431   0.79710   0.40249   0.00000  Uiso   1.00
C231   C     0.16710   0.57080   0.41417   0.00000  Uiso   1.00
C232   C     0.19195   0.65140   0.46870   0.00000  Uiso   1.00
C233   C     0.37579   0.05720   0.41858   0.00000  Uiso   1.00
C234   C     0.14562   0.41400   0.39085   0.00000  Uiso   1.00
C235   C     0.02791   0.62070   0.71203   0.00000  Uiso   1.00
C236   C     0.00019   0.51690   0.73030   0.00000  Uiso   1.00
C237   C     0.97681   0.36880   0.71210   0.00000  Uiso   1.00
C238   C     0.02320   0.37290   0.82523   0.00000  Uiso   1.00
C239   C     0.99848   0.53140   0.84282   0.00000  Uiso   1.00
C240   C     0.97140   0.64200   0.82469   0.00000  Uiso   1.00
C241   C     0.06029   0.67210   0.72876   0.00000  Uiso   1.00
C242   C     0.95699   0.16850   0.73078   0.00000  Uiso   1.00
C243   C     0.99904   0.56660   0.88042   0.00000  Uiso   1.00
H244   H     0.59573   0.95980   0.17201   0.00000  Uiso   1.00
H245   H     0.94592   0.15550   0.18556   0.00000  Uiso   1.00
H246   H     0.52177   0.42580   0.13653   0.00000  Uiso   1.00
H247   H     0.63716   0.68320   0.14425   0.00000  Uiso   1.00
H248   H     0.94089   0.49460   0.11536   0.00000  Uiso   1.00
H249   H     0.90282   0.75370   0.08402   0.00000  Uiso   1.00
H250   H     0.56220   0.17460   0.10457   0.00000  Uiso   1.00
H251   H     0.89854   0.34150   0.16242   0.00000  Uiso   1.00
H252   H     0.24046   0.28410   0.56065   0.00000  Uiso   1.00
H253   H     0.26858   0.73100   0.42917   0.00000  Uiso   1.00
H254   H     0.30991   0.01970   0.40242   0.00000  Uiso   1.00
H255   H     0.38255   0.68030   0.46709   0.00000  Uiso   1.00
H256   H     0.34132   0.39700   0.49365   0.00000  Uiso   1.00
H257   H     0.21470   0.13450   0.41312   0.00000  Uiso   1.00
H258   H     0.18203   0.85750   0.37669   0.00000  Uiso   1.00
H259   H     0.15836   0.32790   0.45766   0.00000  Uiso   1.00
H260   H     0.19582   0.57350   0.49330   0.00000  Uiso   1.00
H261   H     0.39978   0.02690   0.42851   0.00000  Uiso   1.00
H262   H     0.14525   0.47820   0.36515   0.00000  Uiso   1.00
H263   H     0.07730   0.50690   0.72208   0.00000  Uiso   1.00
H264   H     0.05997   0.66850   0.75606   0.00000  Uiso   1.00
H265   H     0.07120   0.86700   0.72087   0.00000  Uiso   1.00
H266   H     0.95766   0.18490   0.75788   0.00000  Uiso   1.00
H267   H     0.96959   0.97600   0.72669   0.00000  Uiso   1.00
H268   H     0.93100   0.17620   0.72375   0.00000  Uiso   1.00
H269   H     0.01484   0.74040   0.88602   0.00000  Uiso   1.00
H270   H     0.00623   0.37860   0.89251   0.00000  Uiso   1.00
H271   H     0.97533   0.61290   0.89160   0.00000  Uiso   1.00
C272   C     0.17087   0.50000   0.44777   0.00000  Uiso   1.00
C273   C     0.44806   0.71590   0.65546   0.00000  Uiso   1.00
C274   C     0.05436   0.79610   0.65796   0.00000  Uiso   1.00
C275   C     0.08746   0.72090   0.65859   0.00000  Uiso   1.00
C276   C     0.10290   0.09930   0.62181   0.00000  Uiso   1.00
C277   C     0.43485   0.46290   0.66584   0.00000  Uiso   1.00
C278   C     0.04638   0.02050   0.63825   0.00000  Uiso   1.00
C279   C     0.11138   0.87600   0.64181   0.00000  Uiso   1.00
N280   N     0.37232   0.28560   0.60008   0.00000  Uiso   1.00
C281   C     0.43409   0.81330   0.62534   0.00000  Uiso   1.00
C282   C     0.39590   0.43450   0.62010   0.00000  Uiso   1.00
C283   C     0.41031   0.66870   0.60732   0.00000  Uiso   1.00
N284   N     0.12801   0.26160   0.60543   0.00000  Uiso   1.00
C285   C     0.06970   0.16280   0.61967   0.00000  Uiso   1.00
C286   C     0.40757   0.34180   0.65082   0.00000  Uiso   1.00
C287   C     0.77088   0.07090   0.02039   0.00000  Uiso   1.00
C288   C     0.74557   0.23110   0.03476   0.00000  Uiso   1.00
C289   C     0.72478   0.40590   0.01654   0.00000  Uiso   1.00
C290   C     0.70737   0.60950   0.95832   0.00000  Uiso   1.00
C291   C     0.80066   0.94690   0.96572   0.00000  Uiso   1.00
C292   C     0.79289   0.77900   0.93841   0.00000  Uiso   1.00
C293   C     0.81660   0.61360   0.92303   0.00000  Uiso   1.00
C294   C     0.84899   0.61850   0.93377   0.00000  Uiso   1.00
C295   C     0.85717   0.80340   0.95917   0.00000  Uiso   1.00
C296   C     0.83355   0.96730   0.97455   0.00000  Uiso   1.00
C297   C     0.70320   0.54450   0.92422   0.00000  Uiso   1.00
C298   C     0.68382   0.70290   0.90300   0.00000  Uiso   1.00
C299   C     0.66661   0.92920   0.91468   0.00000  Uiso   1.00
C300   C     0.69146   0.84860   0.96921   0.00000  Uiso   1.00
C301   C     0.87531   0.44280   0.91909   0.00000  Uiso   1.00
C302   C     0.64513   0.08600   0.89136   0.00000  Uiso   1.00
C303   C     0.52839   0.87930   0.21254   0.00000  Uiso   1.00
C304   C     0.50068   0.98310   0.23081   0.00000  Uiso   1.00
C305   C     0.47729   0.13120   0.21159   0.00000  Uiso   1.00
C306   C     0.52368   0.12710   0.32573   0.00000  Uiso   1.00
C307   C     0.49897   0.96860   0.34231   0.00000  Uiso   1.00
C308   C     0.47189   0.85800   0.32418   0.00000  Uiso   1.00
C309   C     0.56078   0.82790   0.22927   0.00000  Uiso   1.00
C310   C     0.45748   0.33150   0.23027   0.00000  Uiso   1.00
C311   C     0.49953   0.93340   0.37991   0.00000  Uiso   1.00
H312   H     0.09525   0.54020   0.67150   0.00000  Uiso   1.00
H313   H     0.44543   0.34450   0.68506   0.00000  Uiso   1.00
H314   H     0.02128   0.07420   0.63602   0.00000  Uiso   1.00
H315   H     0.13667   0.81680   0.64374   0.00000  Uiso   1.00
H316   H     0.44040   0.00540   0.61485   0.00000  Uiso   1.00
H317   H     0.40233   0.74630   0.58351   0.00000  Uiso   1.00
H318   H     0.06171   0.32540   0.60406   0.00000  Uiso   1.00
H319   H     0.39806   0.15850   0.66191   0.00000  Uiso   1.00
H320   H     0.74094   0.21590   0.06116   0.00000  Uiso   1.00
H321   H     0.76810   0.76900   0.92968   0.00000  Uiso   1.00
H322   H     0.80942   0.48030   0.90293   0.00000  Uiso   1.00
H323   H     0.88206   0.81970   0.96760   0.00000  Uiso   1.00
H324   H     0.84083   0.10300   0.99416   0.00000  Uiso   1.00
H325   H     0.71421   0.36550   0.91363   0.00000  Uiso   1.00
H326   H     0.68155   0.64250   0.87720   0.00000  Uiso   1.00
H327   H     0.65787   0.17210   0.95817   0.00000  Uiso   1.00
H328   H     0.69533   0.92650   0.99381   0.00000  Uiso   1.00
H329   H     0.89930   0.47310   0.92902   0.00000  Uiso   1.00
H330   H     0.64476   0.02180   0.86566   0.00000  Uiso   1.00
H331   H     0.57778   0.99310   0.22259   0.00000  Uiso   1.00
H332   H     0.56045   0.83150   0.25657   0.00000  Uiso   1.00
H333   H     0.57169   0.63300   0.22138   0.00000  Uiso   1.00
H334   H     0.45815   0.31510   0.25737   0.00000  Uiso   1.00
H335   H     0.47008   0.52400   0.22618   0.00000  Uiso   1.00
H336   H     0.43148   0.32380   0.22324   0.00000  Uiso   1.00
H337   H     0.51532   0.75960   0.38653   0.00000  Uiso   1.00
H338   H     0.50672   0.12140   0.39302   0.00000  Uiso   1.00
H339   H     0.47582   0.88710   0.39109   0.00000  Uiso   1.00
C340   C     0.67038   0.00000   0.94828   0.00000  Uiso   1.00
C341   C     0.94806   0.21590   0.65597   0.00000  Uiso   1.00
C342   C     0.55436   0.29610   0.65847   0.00000  Uiso   1.00
C343   C     0.58746   0.22090   0.65910   0.00000  Uiso   1.00
C344   C     0.60290   0.59930   0.62231   0.00000  Uiso   1.00
C345   C     0.93485   0.96290   0.66635   0.00000  Uiso   1.00
C346   C     0.54638   0.52050   0.63876   0.00000  Uiso   1.00
C347   C     0.61138   0.37600   0.64232   0.00000  Uiso   1.00
N348   N     0.87232   0.78560   0.60059   0.00000  Uiso   1.00
C349   C     0.93409   0.31330   0.62585   0.00000  Uiso   1.00
C350   C     0.89590   0.93450   0.62061   0.00000  Uiso   1.00
C351   C     0.91031   0.16870   0.60783   0.00000  Uiso   1.00
N352   N     0.62801   0.76160   0.60594   0.00000  Uiso   1.00
C353   C     0.56970   0.66280   0.62018   0.00000  Uiso   1.00
C354   C     0.90757   0.84180   0.65133   0.00000  Uiso   1.00
C355   C     0.27088   0.57090   0.01988   0.00000  Uiso   1.00
C356   C     0.24557   0.73110   0.03425   0.00000  Uiso   1.00
C357   C     0.22478   0.90590   0.01603   0.00000  Uiso   1.00
C358   C     0.20737   0.10950   0.95781   0.00000  Uiso   1.00
C359   C     0.30066   0.44690   0.96521   0.00000  Uiso   1.00
C360   C     0.29289   0.27900   0.93790   0.00000  Uiso   1.00
C361   C     0.31660   0.11360   0.92252   0.00000  Uiso   1.00
C362   C     0.34899   0.11850   0.93326   0.00000  Uiso   1.00
C363   C     0.35717   0.30340   0.95866   0.00000  Uiso   1.00
C364   C     0.33355   0.46730   0.97404   0.00000  Uiso   1.00
C365   C     0.20320   0.04450   0.92371   0.00000  Uiso   1.00
C366   C     0.18382   0.20290   0.90249   0.00000  Uiso   1.00
C367   C     0.16661   0.42920   0.91417   0.00000  Uiso   1.00
C368   C     0.19146   0.34860   0.96870   0.00000  Uiso   1.00
C369   C     0.37531   0.94280   0.91858   0.00000  Uiso   1.00
C370   C     0.14514   0.58600   0.89085   0.00000  Uiso   1.00
C371   C     0.02839   0.37930   0.21203   0.00000  Uiso   1.00
C372   C     0.00068   0.48310   0.23030   0.00000  Uiso   1.00
C373   C     0.97729   0.63120   0.21210   0.00000  Uiso   1.00
C374   C     0.02368   0.62710   0.32523   0.00000  Uiso   1.00
C375   C     0.99897   0.46860   0.34282   0.00000  Uiso   1.00
C376   C     0.97188   0.35800   0.32469   0.00000  Uiso   1.00
C377   C     0.06078   0.32790   0.22876   0.00000  Uiso   1.00
C378   C     0.95748   0.83150   0.23078   0.00000  Uiso   1.00
C379   C     0.99953   0.43340   0.38042   0.00000  Uiso   1.00
H380   H     0.59525   0.04020   0.67201   0.00000  Uiso   1.00
H381   H     0.94543   0.84450   0.68556   0.00000  Uiso   1.00
H382   H     0.52128   0.57420   0.63653   0.00000  Uiso   1.00
H383   H     0.63667   0.31680   0.64425   0.00000  Uiso   1.00
H384   H     0.94040   0.50540   0.61536   0.00000  Uiso   1.00
H385   H     0.90233   0.24630   0.58402   0.00000  Uiso   1.00
H386   H     0.56171   0.82540   0.60457   0.00000  Uiso   1.00
H387   H     0.89806   0.65850   0.66242   0.00000  Uiso   1.00
H388   H     0.24094   0.71590   0.06065   0.00000  Uiso   1.00
H389   H     0.26810   0.26900   0.92918   0.00000  Uiso   1.00
H390   H     0.30942   0.98030   0.90242   0.00000  Uiso   1.00
H391   H     0.38206   0.31970   0.96709   0.00000  Uiso   1.00
H392   H     0.34084   0.60300   0.99365   0.00000  Uiso   1.00
H393   H     0.21421   0.86550   0.91312   0.00000  Uiso   1.00
H394   H     0.18155   0.14250   0.87669   0.00000  Uiso   1.00
H395   H     0.15787   0.67210   0.95766   0.00000  Uiso   1.00
H396   H     0.19534   0.42650   0.99330   0.00000  Uiso   1.00
H397   H     0.39930   0.97310   0.92851   0.00000  Uiso   1.00
H398   H     0.14476   0.52180   0.86515   0.00000  Uiso   1.00
H399   H     0.07778   0.49310   0.22208   0.00000  Uiso   1.00
H400   H     0.06045   0.33150   0.25606   0.00000  Uiso   1.00
H401   H     0.07169   0.13300   0.22087   0.00000  Uiso   1.00
H402   H     0.95815   0.81510   0.25788   0.00000  Uiso   1.00
H403   H     0.97008   0.02400   0.22669   0.00000  Uiso   1.00
H404   H     0.93148   0.82380   0.22375   0.00000  Uiso   1.00
H405   H     0.01533   0.25960   0.38602   0.00000  Uiso   1.00
H406   H     0.00672   0.62140   0.39251   0.00000  Uiso   1.00
H407   H     0.97582   0.38710   0.39159   0.00000  Uiso   1.00
C408   C     0.17038   0.50000   0.94778   0.00000  Uiso   1.00
C409   C     0.55048   0.71590   0.84556   0.00000  Uiso   1.00
C410   C     0.94418   0.79610   0.84306   0.00000  Uiso   1.00
C411   C     0.91108   0.72090   0.84243   0.00000  Uiso   1.00
C412   C     0.89565   0.09930   0.87921   0.00000  Uiso   1.00
C413   C     0.56369   0.46290   0.83518   0.00000  Uiso   1.00
C414   C     0.95216   0.02050   0.86277   0.00000  Uiso   1.00
C415   C     0.88717   0.87600   0.85921   0.00000  Uiso   1.00
N416   N     0.62623   0.28560   0.90094   0.00000  Uiso   1.00
C417   C     0.56445   0.81330   0.87568   0.00000  Uiso   1.00
C418   C     0.60264   0.43450   0.88091   0.00000  Uiso   1.00
C419   C     0.58823   0.66870   0.89370   0.00000  Uiso   1.00
N420   N     0.87053   0.26160   0.89559   0.00000  Uiso   1.00
C421   C     0.92884   0.16280   0.88135   0.00000  Uiso   1.00
C422   C     0.59097   0.34180   0.85020   0.00000  Uiso   1.00
C423   C     0.22863   0.07090   0.48063   0.00000  Uiso   1.00
C424   C     0.25395   0.23110   0.46626   0.00000  Uiso   1.00
C425   C     0.27473   0.40590   0.48448   0.00000  Uiso   1.00
C426   C     0.29117   0.60950   0.54270   0.00000  Uiso   1.00
C427   C     0.19788   0.94690   0.53530   0.00000  Uiso   1.00
C428   C     0.20565   0.77900   0.56261   0.00000  Uiso   1.00
C429   C     0.18194   0.61360   0.57799   0.00000  Uiso   1.00
C430   C     0.14955   0.61850   0.56725   0.00000  Uiso   1.00
C431   C     0.14137   0.80340   0.54184   0.00000  Uiso   1.00
C432   C     0.16499   0.96730   0.52647   0.00000  Uiso   1.00
C433   C     0.29534   0.54450   0.57680   0.00000  Uiso   1.00
C434   C     0.31472   0.70290   0.59802   0.00000  Uiso   1.00
C435   C     0.33193   0.92920   0.58634   0.00000  Uiso   1.00
C436   C     0.30708   0.84860   0.53181   0.00000  Uiso   1.00
C437   C     0.12324   0.44280   0.58193   0.00000  Uiso   1.00
C438   C     0.35341   0.08600   0.60966   0.00000  Uiso   1.00
C439   C     0.47112   0.87930   0.28848   0.00000  Uiso   1.00
C440   C     0.49884   0.98310   0.27021   0.00000  Uiso   1.00
C441   C     0.52222   0.13120   0.28943   0.00000  Uiso   1.00
C442   C     0.47583   0.12710   0.17529   0.00000  Uiso   1.00
C443   C     0.50055   0.96860   0.15871   0.00000  Uiso   1.00
C444   C     0.52763   0.85800   0.17684   0.00000  Uiso   1.00
C445   C     0.43874   0.82790   0.27175   0.00000  Uiso   1.00
C446   C     0.54204   0.33150   0.27075   0.00000  Uiso   1.00
C447   C     0.49998   0.93340   0.12111   0.00000  Uiso   1.00
H448   H     0.90329   0.54020   0.82952   0.00000  Uiso   1.00
H449   H     0.55311   0.34450   0.81597   0.00000  Uiso   1.00
H450   H     0.97726   0.07420   0.86500   0.00000  Uiso   1.00
H451   H     0.86187   0.81680   0.85728   0.00000  Uiso   1.00
H452   H     0.55814   0.00540   0.88617   0.00000  Uiso   1.00
H453   H     0.59621   0.74630   0.91751   0.00000  Uiso   1.00
H454   H     0.93683   0.32540   0.89696   0.00000  Uiso   1.00
H455   H     0.60049   0.15850   0.83911   0.00000  Uiso   1.00
H456   H     0.25857   0.21590   0.43986   0.00000  Uiso   1.00
H457   H     0.23045   0.76900   0.57134   0.00000  Uiso   1.00
H458   H     0.18912   0.48030   0.59809   0.00000  Uiso   1.00
H459   H     0.11648   0.81970   0.53342   0.00000  Uiso   1.00
H460   H     0.15771   0.10300   0.50686   0.00000  Uiso   1.00
H461   H     0.28433   0.36550   0.58739   0.00000  Uiso   1.00
H462   H     0.31699   0.64250   0.62382   0.00000  Uiso   1.00
H463   H     0.34067   0.17210   0.54285   0.00000  Uiso   1.00
H464   H     0.30321   0.92650   0.50721   0.00000  Uiso   1.00
H465   H     0.09924   0.47310   0.57200   0.00000  Uiso   1.00
H466   H     0.35378   0.02180   0.63536   0.00000  Uiso   1.00
H467   H     0.42173   0.99310   0.27843   0.00000  Uiso   1.00
H468   H     0.43906   0.83150   0.24445   0.00000  Uiso   1.00
H469   H     0.42783   0.63300   0.27964   0.00000  Uiso   1.00
H470   H     0.54136   0.31510   0.24365   0.00000  Uiso   1.00
H471   H     0.52943   0.52400   0.27484   0.00000  Uiso   1.00
H472   H     0.56803   0.32380   0.27778   0.00000  Uiso   1.00
H473   H     0.48419   0.75960   0.11449   0.00000  Uiso   1.00
H474   H     0.49279   0.12140   0.10800   0.00000  Uiso   1.00
H475   H     0.52369   0.88710   0.10993   0.00000  Uiso   1.00
C476   C     0.32816   0.00000   0.55274   0.00000  Uiso   1.00
C477   C     0.05048   0.21590   0.84505   0.00000  Uiso   1.00
C478   C     0.44418   0.29610   0.84255   0.00000  Uiso   1.00
C479   C     0.41108   0.22090   0.84192   0.00000  Uiso   1.00
C480   C     0.39565   0.59930   0.87870   0.00000  Uiso   1.00
C481   C     0.06369   0.96290   0.83467   0.00000  Uiso   1.00
C482   C     0.45216   0.52050   0.86226   0.00000  Uiso   1.00
C483   C     0.38717   0.37600   0.85870   0.00000  Uiso   1.00
N484   N     0.12623   0.78560   0.90043   0.00000  Uiso   1.00
C485   C     0.06445   0.31330   0.87517   0.00000  Uiso   1.00
C486   C     0.10265   0.93450   0.88041   0.00000  Uiso   1.00
C487   C     0.08823   0.16870   0.89319   0.00000  Uiso   1.00
N488   N     0.37053   0.76160   0.89508   0.00000  Uiso   1.00
C489   C     0.42884   0.66280   0.88084   0.00000  Uiso   1.00
C490   C     0.09098   0.84180   0.84969   0.00000  Uiso   1.00
C491   C     0.72863   0.57090   0.48114   0.00000  Uiso   1.00
C492   C     0.75395   0.73110   0.46677   0.00000  Uiso   1.00
C493   C     0.77473   0.90590   0.48499   0.00000  Uiso   1.00
C494   C     0.79117   0.10950   0.54321   0.00000  Uiso   1.00
C495   C     0.69788   0.44690   0.53581   0.00000  Uiso   1.00
C496   C     0.70565   0.27900   0.56312   0.00000  Uiso   1.00
C497   C     0.68194   0.11360   0.57850   0.00000  Uiso   1.00
C498   C     0.64955   0.11850   0.56776   0.00000  Uiso   1.00
C499   C     0.64137   0.30340   0.54235   0.00000  Uiso   1.00
C500   C     0.66499   0.46730   0.52698   0.00000  Uiso   1.00
C501   C     0.79534   0.04450   0.57731   0.00000  Uiso   1.00
C502   C     0.81472   0.20290   0.59853   0.00000  Uiso   1.00
C503   C     0.83193   0.42920   0.58685   0.00000  Uiso   1.00
C504   C     0.80708   0.34860   0.53232   0.00000  Uiso   1.00
C505   C     0.62323   0.94280   0.58244   0.00000  Uiso   1.00
C506   C     0.85341   0.58600   0.61017   0.00000  Uiso   1.00
C507   C     0.97112   0.37930   0.28899   0.00000  Uiso   1.00
C508   C     0.99884   0.48310   0.27072   0.00000  Uiso   1.00
C509   C     0.02222   0.63120   0.28892   0.00000  Uiso   1.00
C510   C     0.97583   0.62710   0.17580   0.00000  Uiso   1.00
C511   C     0.00055   0.46860   0.15820   0.00000  Uiso   1.00
C512   C     0.02763   0.35800   0.17633   0.00000  Uiso   1.00
C513   C     0.93874   0.32790   0.27226   0.00000  Uiso   1.00
C514   C     0.04204   0.83150   0.27024   0.00000  Uiso   1.00
C515   C    -0.00002   0.43340   0.12060   0.00000  Uiso   1.00
H516   H     0.40329   0.04020   0.82901   0.00000  Uiso   1.00
H517   H     0.05311   0.84450   0.81545   0.00000  Uiso   1.00
H518   H     0.47726   0.57420   0.86449   0.00000  Uiso   1.00
H519   H     0.36187   0.31680   0.85677   0.00000  Uiso   1.00
H520   H     0.05814   0.50540   0.88566   0.00000  Uiso   1.00
H521   H     0.09621   0.24630   0.91700   0.00000  Uiso   1.00
H522   H     0.43683   0.82540   0.89645   0.00000  Uiso   1.00
H523   H     0.10049   0.65850   0.83860   0.00000  Uiso   1.00
H524   H     0.75857   0.71590   0.44037   0.00000  Uiso   1.00
H525   H     0.73044   0.26900   0.57185   0.00000  Uiso   1.00
H526   H     0.68912   0.98030   0.59860   0.00000  Uiso   1.00
H527   H     0.61648   0.31970   0.53393   0.00000  Uiso   1.00
H528   H     0.65771   0.60300   0.50737   0.00000  Uiso   1.00
H529   H     0.78433   0.86550   0.58790   0.00000  Uiso   1.00
H530   H     0.81699   0.14250   0.62433   0.00000  Uiso   1.00
H531   H     0.84067   0.67210   0.54336   0.00000  Uiso   1.00
H532   H     0.80321   0.42650   0.50772   0.00000  Uiso   1.00
H533   H     0.59924   0.97310   0.57251   0.00000  Uiso   1.00
H534   H     0.85378   0.52180   0.63587   0.00000  Uiso   1.00
H535   H     0.92173   0.49310   0.27894   0.00000  Uiso   1.00
H536   H     0.93906   0.33150   0.24496   0.00000  Uiso   1.00
H537   H     0.92783   0.13300   0.28015   0.00000  Uiso   1.00
H538   H     0.04136   0.81510   0.24314   0.00000  Uiso   1.00
H539   H     0.02943   0.02400   0.27433   0.00000  Uiso   1.00
H540   H     0.06803   0.82380   0.27727   0.00000  Uiso   1.00
H541   H     0.98419   0.25960   0.11500   0.00000  Uiso   1.00
H542   H     0.99279   0.62140   0.10851   0.00000  Uiso   1.00
H543   H     0.02369   0.38710   0.10942   0.00000  Uiso   1.00
C544   C     0.82816   0.50000   0.55324   0.00000  Uiso   1.00
loop_
_geom_bond_atom_site_label_1
_geom_bond_atom_site_label_2
_geom_bond_distance
_geom_bond_site_symmetry_2
_ccdc_geom_bond_type
C1     C5      1.423   .     S
C1     C9      1.425   .     D
C1     C306    1.581   .     S
C2     C3      1.414   .     S
C2     C6      1.400   1_545 D
C2     C376    1.543   .     S
C3     C7      1.418   .     D
C3     H40     1.080   .     S
C4     C7      1.408   1_565 S
C4     N12     1.464   .     S
C4     C13     1.406   .     D
C5     C14     1.410   .     D
C5     H41     1.062   .     S
C6     C2      1.400   1_565 D
C6     C13     1.404   .     S
C6     H42     1.072   .     S
C7     C4      1.408   1_545 S
C7     H43     1.086   .     S
N8     C10     1.461   .     S
N8     C166    1.312   .     D
C9     C11     1.413   .     S
C9     H44     1.068   1_545 S
C10    C11     1.396   .     D
C10    C14     1.403   .     S
C11    H45     1.083   .     S
N12    C165    1.316   .     D
C13    H46     1.070   .     S
C14    H47     1.081   .     S
C15    C16     1.430   .     D
C15    C357    1.435   1_556 S
C15    C358    1.539   1_565 S
C16    C17     1.419   .     S
C16    H48     1.081   .     S
C17    C355    1.435   1_556 D
C17    C359    1.520   .     S
C18    C25     1.420   .     D
C18    C28     1.417   .     S
C18    C355    1.539   .     S
C19    C20     1.412   .     D
C19    C24     1.405   .     S
C19    C357    1.520   1_545 S
C20    C21     1.415   .     S
C20    H49     1.082   .     S
C21    C22     1.404   .     D
C21    H50     1.084   .     S
C22    C23     1.410   .     S
C22    C29     1.508   .     S
C23    C24     1.407   .     D
C23    H51     1.084   .     S
C24    H52     1.077   1_545 S
C25    C26     1.406   .     S
C25    H53     1.079   .     S
C26    C27     1.402   .     D
C26    H54     1.084   .     S
C27    C30     1.504   1_545 S
C27    C68     1.405   .     S
C28    H56     1.074   .     S
C28    C68     1.422   .     D
C29    H57     1.077   .     S
C29    N148    1.316   .     D
C30    C27     1.504   1_565 S
C30    H58     1.082   .     S
C30    N144    1.312   .     D
C31    C32     1.451   .     D
C31    C37     1.517   .     S
C31    C172    1.441   .     S
C32    C33     1.436   1_545 S
C32    C168    1.587   .     S
C33    C32     1.436   1_565 S
C33    C38     1.485   .     S
C33    C170    1.462   .     D
C34    C35     1.446   1_565 S
C34    C169    1.462   .     D
C34    C273    1.581   .     S
C35    C34     1.446   1_545 S
C35    C36     1.441   .     D
C35    C39     1.523   .     S
C36    C167    1.441   .     S
C36    C342    1.543   .     S
C37    H59     1.107   .     S
C37    H60     1.099   .     S
C37    H61     1.107   .     S
C38    H62     1.094   .     S
C38    H63     1.094   .     S
C38    H64     1.109   .     S
C39    H65     1.108   .     S
C39    H66     1.106   1_545 S
C39    H67     1.099   .     S
H44    C9      1.068   1_565 S
H52    C24     1.077   1_565 S
H55    C68     1.069   1_565 S
H66    C39     1.106   1_565 S
C68    H55     1.069   1_545 S
C69    C73     1.423   1_565 D
C69    C77     1.425   .     S
C69    C374    1.581   .     S
C70    C71     1.414   .     S
C70    C74     1.400   .     D
C70    C308    1.543   .     S
C71    C75     1.418   .     D
C71    H108    1.080   .     S
C72    C75     1.408   .     S
C72    N80     1.464   .     S
C72    C81     1.406   .     D
C73    C69     1.423   1_545 D
C73    C82     1.410   .     S
C73    H109    1.062   .     S
C74    C81     1.404   .     S
C74    H110    1.072   .     S
C75    H111    1.086   .     S
N76    C78     1.461   .     S
N76    C234    1.312   .     D
C77    C79     1.413   .     D
C77    H112    1.068   .     S
C78    C79     1.396   1_545 S
C78    C82     1.403   .     D
C79    C78     1.396   1_565 S
C79    H113    1.083   .     S
N80    C233    1.316   .     D
C81    H114    1.070   .     S
C82    H115    1.081   .     S
C83    C84     1.430   .     D
C83    C289    1.435   1_556 S
C83    C290    1.539   .     S
C84    C85     1.419   .     S
C84    H116    1.081   .     S
C85    C287    1.435   1_556 D
C85    C291    1.520   1_545 S
C86    C93     1.420   .     D
C86    C96     1.417   .     S
C86    C287    1.539   1_565 S
C87    C88     1.412   .     D
C87    C92     1.405   .     S
C87    C289    1.520   .     S
C88    C89     1.415   .     S
C88    H117    1.082   .     S
C89    C90     1.404   .     D
C89    H118    1.084   1_565 S
C90    C91     1.410   .     S
C90    C97     1.508   1_565 S
C91    C92     1.407   .     D
C91    H119    1.084   .     S
C92    H120    1.077   .     S
C93    C94     1.406   .     S
C93    H121    1.079   1_565 S
C94    C95     1.402   .     D
C94    H122    1.084   .     S
C95    C98     1.504   .     S
C95    C136    1.405   .     S
C96    H124    1.074   .     S
C96    C136    1.422   .     D
C97    C90     1.508   1_545 S
C97    H125    1.077   .     S
C97    N216    1.316   .     D
C98    H126    1.082   .     S
C98    N212    1.312   .     D
C99    C100    1.451   .     D
C99    C105    1.517   .     S
C99    C240    1.441   .     S
C100   C101    1.414   1_655 S
C100   C236    1.628   1_655 S
C101   C100    1.414   1_455 S
C101   C106    1.485   .     S
C101   C238    1.462   .     D
C102   C103    1.465   1_655 D
C102   C237    1.462   .     S
C102   C341    1.581   .     S
C103   C102    1.465   1_455 D
C103   C104    1.441   .     S
C103   C107    1.523   .     S
C104   C235    1.441   .     D
C104   C274    1.543   .     S
C105   H127    1.107   .     S
C105   H128    1.099   .     S
C105   H129    1.107   .     S
C106   H130    1.094   .     S
C106   H131    1.094   1_545 S
C106   H132    1.109   .     S
C107   H133    1.099   1_455 S
C107   H134    1.087   1_455 S
C107   H135    1.099   .     S
H118   C89     1.084   1_545 S
H121   C93     1.079   1_545 S
H123   C136    1.069   .     S
H131   C106    1.094   1_565 S
H133   C107    1.099   1_655 S
H134   C107    1.087   1_655 S
C137   C141    1.423   .     D
C137   C145    1.425   .     S
C137   C442    1.581   .     S
C138   C139    1.414   .     D
C138   C142    1.400   1_545 S
C138   C512    1.543   .     S
C139   C143    1.418   .     S
C139   H176    1.080   .     S
C140   C143    1.408   1_565 D
C140   N148    1.464   .     S
C140   C149    1.406   .     S
C141   C150    1.410   .     S
C141   H177    1.062   .     S
C142   C138    1.400   1_565 S
C142   C149    1.404   .     D
C142   H178    1.072   .     S
C143   C140    1.408   1_545 D
C143   H179    1.086   .     S
N144   C146    1.461   .     S
C145   C147    1.413   .     D
C145   H180    1.068   1_545 S
C146   C147    1.396   .     S
C146   C150    1.403   .     D
C147   H181    1.083   .     S
C149   H182    1.070   .     S
C150   H183    1.081   .     S
C151   C152    1.430   .     S
C151   C493    1.440   .     D
C151   C494    1.539   1_565 S
C152   C153    1.419   .     D
C152   H184    1.081   .     S
C153   C491    1.440   .     S
C153   C495    1.520   .     S
C154   C161    1.420   .     D
C154   C164    1.417   .     S
C154   C491    1.539   .     S
C155   C156    1.412   .     S
C155   C160    1.405   .     D
C155   C493    1.520   1_545 S
C156   C157    1.415   .     D
C156   H185    1.082   .     S
C157   C158    1.404   .     S
C157   H186    1.084   .     S
C158   C159    1.410   .     D
C158   C165    1.508   .     S
C159   C160    1.407   .     S
C159   H187    1.084   .     S
C160   H188    1.077   1_545 S
C161   C162    1.406   .     S
C161   H189    1.079   .     S
C162   C163    1.402   .     D
C162   H190    1.084   .     S
C163   C166    1.504   1_545 S
C163   C204    1.405   .     S
C164   H192    1.074   .     S
C164   C204    1.422   .     D
C165   H193    1.077   .     S
C166   C163    1.504   1_565 S
C166   H194    1.082   .     S
C167   C168    1.451   .     D
C167   C173    1.517   .     S
C168   C169    1.436   1_545 S
C169   C168    1.436   1_565 S
C169   C174    1.485   .     S
C170   C171    1.446   1_565 S
C170   C409    1.581   .     S
C171   C170    1.446   1_545 S
C171   C172    1.441   .     D
C171   C175    1.523   .     S
C172   C478    1.543   .     S
C173   H195    1.107   .     S
C173   H196    1.099   .     S
C173   H197    1.107   .     S
C174   H198    1.094   .     S
C174   H199    1.094   .     S
C174   H200    1.109   .     S
C175   H201    1.108   .     S
C175   H202    1.106   1_545 S
C175   H203    1.099   .     S
H180   C145    1.068   1_565 S
H188   C160    1.077   1_565 S
H191   C204    1.069   1_565 S
H202   C175    1.106   1_565 S
C204   H191    1.069   1_545 S
C205   C209    1.423   1_565 D
C205   C213    1.425   .     S
C205   C510    1.581   .     S
C206   C207    1.414   .     D
C206   C210    1.400   .     S
C206   C444    1.543   .     S
C207   C211    1.418   .     S
C207   H244    1.080   .     S
C208   C211    1.408   .     D
C208   N216    1.464   .     S
C208   C217    1.406   .     S
C209   C205    1.423   1_545 D
C209   C218    1.410   .     S
C209   H245    1.062   .     S
C210   C217    1.404   .     D
C210   H246    1.072   .     S
C211   H247    1.086   .     S
N212   C214    1.461   .     S
C213   C215    1.413   .     D
C213   H248    1.068   .     S
C214   C215    1.396   1_545 S
C214   C218    1.403   .     D
C215   C214    1.396   1_565 S
C215   H249    1.083   .     S
C217   H250    1.070   .     S
C218   H251    1.081   .     S
C219   C220    1.430   .     D
C219   C425    1.440   .     S
C219   C426    1.539   .     S
C220   C221    1.419   .     S
C220   H252    1.081   .     S
C221   C423    1.440   .     D
C221   C427    1.520   1_545 S
C222   C229    1.420   .     D
C222   C232    1.417   .     S
C222   C423    1.539   1_565 S
C223   C224    1.412   .     D
C223   C228    1.405   .     S
C223   C425    1.520   .     S
C224   C225    1.415   .     S
C224   H253    1.082   .     S
C225   C226    1.404   .     D
C225   H254    1.084   1_565 S
C226   C227    1.410   .     S
C226   C233    1.508   1_565 S
C227   C228    1.407   .     D
C227   H255    1.084   .     S
C228   H256    1.077   .     S
C229   C230    1.406   .     S
C229   H257    1.079   1_565 S
C230   C231    1.402   .     D
C230   H258    1.084   .     S
C231   C234    1.504   .     S
C231   C272    1.405   .     S
C232   H260    1.074   .     S
C232   C272    1.422   .     D
C233   C226    1.508   1_545 S
C233   H261    1.077   .     S
C234   H262    1.082   .     S
C235   C236    1.451   .     S
C235   C241    1.517   .     S
C236   C100    1.628   1_455 S
C236   C237    1.414   1_455 D
C237   C236    1.414   1_655 D
C237   C242    1.485   .     S
C238   C239    1.465   1_455 S
C238   C477    1.581   .     S
C239   C238    1.465   1_655 S
C239   C240    1.441   .     D
C239   C243    1.523   .     S
C240   C410    1.543   .     S
C241   H263    1.107   .     S
C241   H264    1.099   .     S
C241   H265    1.107   .     S
C242   H266    1.094   .     S
C242   H267    1.094   1_545 S
C242   H268    1.109   .     S
C243   H269    1.099   1_655 S
C243   H270    1.088   1_655 S
C243   H271    1.099   .     S
H254   C225    1.084   1_545 S
H257   C229    1.079   1_545 S
H259   C272    1.069   .     S
H267   C242    1.094   1_565 S
H269   C243    1.099   1_455 S
H270   C243    1.088   1_455 S
C273   C277    1.423   .     D
C273   C281    1.425   .     S
C274   C275    1.414   .     D
C274   C278    1.400   1_565 S
C275   C279    1.418   .     S
C275   H312    1.080   .     S
C276   C279    1.408   1_545 D
C276   N284    1.464   .     S
C276   C285    1.406   .     S
C277   C286    1.410   .     S
C277   H313    1.062   .     S
C278   C274    1.400   1_545 S
C278   C285    1.404   .     D
C278   H314    1.072   .     S
C279   C276    1.408   1_565 D
C279   H315    1.086   .     S
N280   C282    1.461   .     S
N280   C438    1.312   .     D
C281   C283    1.413   .     D
C281   H316    1.068   1_565 S
C282   C283    1.396   .     S
C282   C286    1.403   .     D
C283   H317    1.083   .     S
N284   C437    1.316   .     D
C285   H318    1.070   .     S
C286   H319    1.081   .     S
C287   C86     1.539   1_545 S
C287   C85     1.435   1_554 D
C287   C288    1.430   .     S
C288   C289    1.419   .     D
C288   H320    1.081   .     S
C289   C83     1.435   1_554 S
C290   C297    1.420   .     D
C290   C300    1.417   .     S
C291   C85     1.520   1_565 S
C291   C292    1.412   .     D
C291   C296    1.405   .     S
C292   C293    1.415   .     S
C292   H321    1.082   .     S
C293   C294    1.404   .     D
C293   H322    1.084   .     S
C294   C295    1.410   .     S
C294   C301    1.508   .     S
C295   C296    1.407   .     D
C295   H323    1.084   .     S
C296   H324    1.077   1_565 S
C297   C298    1.406   .     S
C297   H325    1.079   .     S
C298   C299    1.402   .     D
C298   H326    1.084   .     S
C299   C302    1.504   1_565 S
C299   C340    1.405   1_565 S
C300   H328    1.074   .     S
C300   C340    1.422   1_565 D
C301   H329    1.077   .     S
C301   N420    1.316   .     D
C302   C299    1.504   1_545 S
C302   H330    1.082   .     S
C302   N416    1.312   .     D
C303   C304    1.451   .     D
C303   C309    1.517   .     S
C303   C444    1.441   .     S
C304   C305    1.436   1_565 S
C304   C440    1.587   .     S
C305   C304    1.436   1_545 S
C305   C310    1.485   .     S
C305   C442    1.462   .     D
C306   C307    1.446   1_545 S
C306   C441    1.462   .     D
C307   C306    1.446   1_565 S
C307   C308    1.441   .     D
C307   C311    1.523   .     S
C308   C439    1.441   .     S
C309   H331    1.107   .     S
C309   H332    1.099   .     S
C309   H333    1.107   .     S
C310   H334    1.094   .     S
C310   H335    1.094   .     S
C310   H336    1.109   .     S
C311   H337    1.108   .     S
C311   H338    1.106   1_565 S
C311   H339    1.099   .     S
H316   C281    1.068   1_545 S
H324   C296    1.077   1_545 S
H327   C340    1.069   .     S
H338   C311    1.106   1_545 S
C340   C299    1.405   1_545 S
C340   C300    1.422   1_545 D
C341   C345    1.423   1_545 S
C341   C349    1.425   .     D
C342   C343    1.414   .     D
C342   C346    1.400   .     S
C343   C347    1.418   .     S
C343   H380    1.080   .     S
C344   C347    1.408   .     D
C344   N352    1.464   .     S
C344   C353    1.406   .     S
C345   C341    1.423   1_565 S
C345   C354    1.410   .     D
C345   H381    1.062   .     S
C346   C353    1.404   .     D
C346   H382    1.072   .     S
C347   H383    1.086   .     S
N348   C350    1.461   .     S
N348   C506    1.312   .     D
C349   C351    1.413   .     S
C349   H384    1.068   .     S
C350   C351    1.396   1_565 D
C350   C354    1.403   .     S
C351   C350    1.396   1_545 D
C351   H385    1.083   .     S
N352   C505    1.316   .     D
C353   H386    1.070   .     S
C354   H387    1.081   .     S
C355   C17     1.435   1_554 D
C355   C356    1.430   .     S
C356   C357    1.419   .     D
C356   H388    1.081   .     S
C357   C19     1.520   1_565 S
C357   C15     1.435   1_554 S
C358   C15     1.539   1_545 S
C358   C365    1.420   .     D
C358   C368    1.417   .     S
C359   C360    1.412   .     D
C359   C364    1.405   .     S
C360   C361    1.415   .     S
C360   H389    1.082   .     S
C361   C362    1.404   .     D
C361   H390    1.084   1_545 S
C362   C363    1.410   .     S
C362   C369    1.508   1_545 S
C363   C364    1.407   .     D
C363   H391    1.084   .     S
C364   H392    1.077   .     S
C365   C366    1.406   .     S
C365   H393    1.079   1_545 S
C366   C367    1.402   .     D
C366   H394    1.084   .     S
C367   C370    1.504   .     S
C367   C408    1.405   .     S
C368   H396    1.074   .     S
C368   C408    1.422   .     D
C369   C362    1.508   1_565 S
C369   H397    1.077   .     S
C369   N488    1.316   .     D
C370   H398    1.082   .     S
C370   N484    1.312   .     D
C371   C372    1.451   .     D
C371   C377    1.517   .     S
C371   C512    1.441   .     S
C372   C373    1.414   1_455 S
C372   C508    1.628   1_455 S
C373   C372    1.414   1_655 S
C373   C378    1.485   .     S
C373   C510    1.462   .     D
C374   C375    1.465   1_455 D
C374   C509    1.462   .     S
C375   C374    1.465   1_655 D
C375   C376    1.441   .     S
C375   C379    1.523   .     S
C376   C507    1.441   .     D
C377   H399    1.107   .     S
C377   H400    1.099   .     S
C377   H401    1.107   .     S
C378   H402    1.094   .     S
C378   H403    1.094   1_565 S
C378   H404    1.109   .     S
C379   H405    1.099   1_655 S
C379   H406    1.087   1_655 S
C379   H407    1.099   .     S
H390   C361    1.084   1_565 S
H393   C365    1.079   1_565 S
H395   C408    1.069   .     S
H403   C378    1.094   1_545 S
H405   C379    1.099   1_455 S
H406   C379    1.087   1_455 S
C409   C413    1.423   .     D
C409   C417    1.425   .     S
C410   C411    1.414   .     D
C410   C414    1.400   1_565 S
C411   C415    1.418   .     S
C411   H448    1.080   .     S
C412   C415    1.408   1_545 D
C412   N420    1.464   .     S
C412   C421    1.406   .     S
C413   C422    1.410   .     S
C413   H449    1.062   .     S
C414   C410    1.400   1_545 S
C414   C421    1.404   .     D
C414   H450    1.072   .     S
C415   C412    1.408   1_565 D
C415   H451    1.086   .     S
N416   C418    1.461   .     S
C417   C419    1.413   .     D
C417   H452    1.068   1_565 S
C418   C419    1.396   .     S
C418   C422    1.403   .     D
C419   H453    1.083   .     S
C421   H454    1.070   .     S
C422   H455    1.081   .     S
C423   C222    1.539   1_545 S
C423   C424    1.430   .     S
C424   C425    1.419   .     D
C424   H456    1.081   .     S
C426   C433    1.420   .     D
C426   C436    1.417   .     S
C427   C221    1.520   1_565 S
C427   C428    1.412   .     D
C427   C432    1.405   .     S
C428   C429    1.415   .     S
C428   H457    1.082   .     S
C429   C430    1.404   .     D
C429   H458    1.084   .     S
C430   C431    1.410   .     S
C430   C437    1.508   .     S
C431   C432    1.407   .     D
C431   H459    1.084   .     S
C432   H460    1.077   1_565 S
C433   C434    1.406   .     S
C433   H461    1.079   .     S
C434   C435    1.402   .     D
C434   H462    1.084   .     S
C435   C438    1.504   1_565 S
C435   C476    1.405   1_565 S
C436   H464    1.074   .     S
C436   C476    1.422   1_565 D
C437   H465    1.077   .     S
C438   C435    1.504   1_545 S
C438   H466    1.082   .     S
C439   C440    1.451   .     D
C439   C445    1.517   .     S
C440   C441    1.436   1_565 S
C441   C440    1.436   1_545 S
C441   C446    1.485   .     S
C442   C443    1.446   1_545 S
C443   C442    1.446   1_565 S
C443   C444    1.441   .     D
C443   C447    1.523   .     S
C445   H467    1.107   .     S
C445   H468    1.099   .     S
C445   H469    1.107   .     S
C446   H470    1.094   .     S
C446   H471    1.094   .     S
C446   H472    1.109   .     S
C447   H473    1.108   .     S
C447   H474    1.106   1_565 S
C447   H475    1.099   .     S
H452   C417    1.068   1_545 S
H460   C432    1.077   1_545 S
H463   C476    1.069   .     S
H474   C447    1.106   1_545 S
C476   C436    1.422   1_545 D
C476   C435    1.405   1_545 S
C477   C481    1.423   1_545 D
C477   C485    1.425   .     S
C478   C479    1.414   .     D
C478   C482    1.400   .     S
C479   C483    1.418   .     S
C479   H516    1.080   .     S
C480   C483    1.408   .     D
C480   N488    1.464   .     S
C480   C489    1.406   .     S
C481   C477    1.423   1_565 D
C481   C490    1.410   .     S
C481   H517    1.062   .     S
C482   C489    1.404   .     D
C482   H518    1.072   .     S
C483   H519    1.086   .     S
N484   C486    1.461   .     S
C485   C487    1.413   .     D
C485   H520    1.068   .     S
C486   C487    1.396   1_565 S
C486   C490    1.403   .     D
C487   C486    1.396   1_545 S
C487   H521    1.083   .     S
C489   H522    1.070   .     S
C490   H523    1.081   .     S
C491   C492    1.430   .     D
C492   C493    1.419   .     S
C492   H524    1.081   .     S
C493   C155    1.520   1_565 S
C494   C151    1.539   1_545 S
C494   C501    1.420   .     S
C494   C504    1.417   .     D
C495   C496    1.412   .     D
C495   C500    1.405   .     S
C496   C497    1.415   .     S
C496   H525    1.082   .     S
C497   C498    1.404   .     D
C497   H526    1.083   1_545 S
C498   C499    1.410   .     S
C498   C505    1.508   1_545 S
C499   C500    1.407   .     D
C499   H527    1.084   .     S
C500   H528    1.077   .     S
C501   C502    1.406   .     D
C501   H529    1.079   1_545 S
C502   C503    1.402   .     S
C502   H530    1.084   .     S
C503   C506    1.504   .     S
C503   C544    1.405   .     D
C504   H532    1.074   .     S
C504   C544    1.422   .     S
C505   C498    1.508   1_565 S
C505   H533    1.077   .     S
C506   H534    1.082   .     S
C507   C508    1.451   .     S
C507   C513    1.517   .     S
C508   C372    1.628   1_655 S
C508   C509    1.414   1_655 D
C509   C508    1.414   1_455 D
C509   C514    1.485   .     S
C510   C511    1.465   1_655 S
C511   C510    1.465   1_455 S
C511   C512    1.441   .     D
C511   C515    1.523   .     S
C513   H535    1.107   .     S
C513   H536    1.099   .     S
C513   H537    1.107   .     S
C514   H538    1.094   .     S
C514   H539    1.094   1_565 S
C514   H540    1.109   .     S
C515   H541    1.099   1_455 S
C515   H542    1.087   1_455 S
C515   H543    1.099   .     S
H526   C497    1.083   1_565 S
H529   C501    1.079   1_565 S
H531   C544    1.069   .     S
H539   C514    1.094   1_545 S
H541   C515    1.099   1_655 S
H542   C515    1.087   1_655 S
