data_705
_audit_creation_date              2023-09-08
_audit_creation_method            'Materials Studio'
_symmetry_space_group_name_H-M    'P1'
_symmetry_Int_Tables_number       1
_symmetry_cell_setting            triclinic
loop_
_symmetry_equiv_pos_as_xyz
  x,y,z
_cell_length_a                    49.4657
_cell_length_b                    49.3679
_cell_length_c                    10.8061
_cell_angle_alpha                 89.4727
_cell_angle_beta                  89.6700
_cell_angle_gamma                 59.3102
loop_
_atom_site_label
_atom_site_type_symbol
_atom_site_fract_x
_atom_site_fract_y
_atom_site_fract_z
_atom_site_U_iso_or_equiv
_atom_site_adp_type
_atom_site_occupancy
C11    C     0.61165   0.59185   0.91547   0.00000  Uiso   1.00
C22    C     0.64455   0.57284   0.93287   0.00000  Uiso   1.00
C33    C     0.66343   0.58706   0.93377   0.00000  Uiso   1.00
C44    C     0.61939   0.63734   0.90618   0.00000  Uiso   1.00
C55    C     0.59925   0.62463   0.89795   0.00000  Uiso   1.00
C66    C     0.56637   0.64441   0.86789   0.00000  Uiso   1.00
C77    C     0.65972   0.53901   0.94329   0.00000  Uiso   1.00
N18    N     0.54036   0.65949   0.83978   0.00000  Uiso   1.00
N29    N     0.67271   0.51195   0.94977   0.00000  Uiso   1.00
C810   C     0.59053   0.57913   0.91124   0.00000  Uiso   1.00
H111   H     0.57079   0.59091   0.84542   0.00000  Uiso   1.00
C912   C     0.60781   0.67127   0.89347   0.00000  Uiso   1.00
H213   H     0.62408   0.67727   0.84768   0.00000  Uiso   1.00
C1014  C     0.69768   0.56741   0.94348   0.00000  Uiso   1.00
H315   H     0.70792   0.54221   0.92272   0.00000  Uiso   1.00
N316   N     0.65058   0.61846   0.92236   0.00000  Uiso   1.00
C1117  C     0.59310   0.55572   0.98640   0.00000  Uiso   1.00
H418   H     0.61181   0.54572   0.05703   0.00000  Uiso   1.00
C1219  C     0.71685   0.57822   0.97739   0.00000  Uiso   1.00
H520   H     0.70646   0.60296   0.00648   0.00000  Uiso   1.00
C1321  C     0.58002   0.69420   0.94033   0.00000  Uiso   1.00
H622   H     0.56565   0.68725   0.99546   0.00000  Uiso   1.00
C1423  C     0.57269   0.54230   0.98473   0.00000  Uiso   1.00
C1524  C     0.57762   0.51908   0.07323   0.00000  Uiso   1.00
C1625  C     0.54861   0.55089   0.89714   0.00000  Uiso   1.00
C1726  C     0.55946   0.50466   0.07533   0.00000  Uiso   1.00
H727   H     0.59620   0.51209   0.14309   0.00000  Uiso   1.00
C1828  C     0.53004   0.53693   0.89703   0.00000  Uiso   1.00
H829   H     0.54417   0.56872   0.82566   0.00000  Uiso   1.00
C1930  C     0.53518   0.51343   0.98654   0.00000  Uiso   1.00
C2031  C     0.75122   0.55811   0.98058   0.00000  Uiso   1.00
C2132  C     0.76930   0.56312   0.06750   0.00000  Uiso   1.00
C2233  C     0.76713   0.53338   0.89572   0.00000  Uiso   1.00
C2334  C     0.80213   0.54359   0.07290   0.00000  Uiso   1.00
H935   H     0.75738   0.58218   0.13540   0.00000  Uiso   1.00
C2436  C     0.79992   0.51391   0.89714   0.00000  Uiso   1.00
H1037  H     0.75377   0.52955   0.82381   0.00000  Uiso   1.00
C2538  C     0.81804   0.51857   0.98699   0.00000  Uiso   1.00
C2639  C     0.56713   0.72822   0.92981   0.00000  Uiso   1.00
C2740  C     0.57663   0.74226   0.83866   0.00000  Uiso   1.00
C2841  C     0.54327   0.74816   0.01274   0.00000  Uiso   1.00
C2942  C     0.56311   0.77505   0.83070   0.00000  Uiso   1.00
H1143  H     0.59459   0.72745   0.77007   0.00000  Uiso   1.00
C3044  C     0.52966   0.78097   0.00826   0.00000  Uiso   1.00
H1245  H     0.53550   0.73769   0.08479   0.00000  Uiso   1.00
C3146  C     0.53948   0.79501   0.91658   0.00000  Uiso   1.00
C3247  C     0.50536   0.54756   0.79828   0.00000  Uiso   1.00
H1348  H     0.48315   0.56855   0.82691   0.00000  Uiso   1.00
H1449  H     0.51304   0.55424   0.71370   0.00000  Uiso   1.00
H1550  H     0.49993   0.52929   0.77408   0.00000  Uiso   1.00
C3351  C     0.56675   0.48034   0.17438   0.00000  Uiso   1.00
H1652  H     0.58574   0.45682   0.14568   0.00000  Uiso   1.00
H1753  H     0.57499   0.48615   0.25870   0.00000  Uiso   1.00
H1854  H     0.54635   0.47820   0.19903   0.00000  Uiso   1.00
C3455  C     0.81909   0.55014   0.17245   0.00000  Uiso   1.00
H1956  H     0.82466   0.56819   0.14303   0.00000  Uiso   1.00
H2057  H     0.80440   0.55923   0.25573   0.00000  Uiso   1.00
H2158  H     0.84133   0.52907   0.19917   0.00000  Uiso   1.00
C3559  C     0.81435   0.48895   0.79972   0.00000  Uiso   1.00
H2260  H     0.81467   0.46731   0.82844   0.00000  Uiso   1.00
H2361  H     0.80048   0.49714   0.71420   0.00000  Uiso   1.00
H2462  H     0.83863   0.48234   0.77741   0.00000  Uiso   1.00
C3663  C     0.50524   0.79975   0.10421   0.00000  Uiso   1.00
H2564  H     0.48165   0.80516   0.07522   0.00000  Uiso   1.00
H2665  H     0.51046   0.78627   0.19106   0.00000  Uiso   1.00
H2766  H     0.50374   0.82224   0.12451   0.00000  Uiso   1.00
C3767  C     0.57436   0.78772   0.72841   0.00000  Uiso   1.00
H2868  H     0.59539   0.78850   0.75589   0.00000  Uiso   1.00
H2969  H     0.58107   0.77255   0.64665   0.00000  Uiso   1.00
H3070  H     0.55646   0.81168   0.69987   0.00000  Uiso   1.00
C3871  C     0.52897   0.46569   0.96603   0.00000  Uiso   1.00
C3972  C     0.48200   0.51732   0.00831   0.00000  Uiso   1.00
C4073  C     0.50997   0.45129   0.97309   0.00000  Uiso   1.00
C4174  C     0.56199   0.44547   0.93876   0.00000  Uiso   1.00
C4275  C     0.46250   0.50359   0.00001   0.00000  Uiso   1.00
C4376  C     0.46723   0.54992   0.03757   0.00000  Uiso   1.00
C4477  C     0.52438   0.41771   0.96721   0.00000  Uiso   1.00
C4578  C     0.47680   0.47031   0.98628   0.00000  Uiso   1.00
C4679  C     0.57563   0.41348   0.93071   0.00000  Uiso   1.00
H3180  H     0.57678   0.45595   0.92443   0.00000  Uiso   1.00
C4781  C     0.42891   0.52305   0.00877   0.00000  Uiso   1.00
C4882  C     0.43492   0.56819   0.05174   0.00000  Uiso   1.00
H3283  H     0.48145   0.56103   0.04990   0.00000  Uiso   1.00
C4984  C     0.50578   0.40322   0.98152   0.00000  Uiso   1.00
C5085  C     0.55751   0.39847   0.94905   0.00000  Uiso   1.00
C5186  C     0.45781   0.45592   0.98727   0.00000  Uiso   1.00
H3387  H     0.60096   0.39889   0.91084   0.00000  Uiso   1.00
C5288  C     0.40950   0.50885   0.99095   0.00000  Uiso   1.00
C5389  C     0.41573   0.55519   0.03512   0.00000  Uiso   1.00
H3490  H     0.42410   0.59328   0.07501   0.00000  Uiso   1.00
C5491  C     0.52050   0.36974   0.98730   0.00000  Uiso   1.00
C5592  C     0.47219   0.42268   0.98760   0.00000  Uiso   1.00
C5693  C     0.57140   0.36536   0.94799   0.00000  Uiso   1.00
C5794  C     0.42419   0.47539   0.98574   0.00000  Uiso   1.00
C5895  C     0.37642   0.52720   0.97781   0.00000  Uiso   1.00
H3596  H     0.39017   0.57075   0.04575   0.00000  Uiso   1.00
C5997  C     0.50128   0.35551   0.01132   0.00000  Uiso   1.00
C6098  C     0.55342   0.35143   0.96884   0.00000  Uiso   1.00
C6199  C     0.45322   0.40827   0.99167   0.00000  Uiso   1.00
H36100 H     0.59687   0.35032   0.93205   0.00000  Uiso   1.00
C62101 C     0.40551   0.46091   0.97638   0.00000  Uiso   1.00
C63102 C     0.35830   0.51333   0.96191   0.00000  Uiso   1.00
H37103 H     0.36434   0.55309   0.97762   0.00000  Uiso   1.00
C64104 C     0.46763   0.37497   0.00673   0.00000  Uiso   1.00
C65105 C     0.51468   0.32336   0.04012   0.00000  Uiso   1.00
H38106 H     0.56546   0.32554   0.96840   0.00000  Uiso   1.00
C66107 C     0.41996   0.42731   0.98265   0.00000  Uiso   1.00
C67108 C     0.37224   0.48021   0.96275   0.00000  Uiso   1.00
H39109 H     0.33269   0.52842   0.94986   0.00000  Uiso   1.00
C68110 C     0.44821   0.36123   0.02080   0.00000  Uiso   1.00
C69111 C     0.49561   0.31041   0.06337   0.00000  Uiso   1.00
H40112 H     0.54031   0.30779   0.04785   0.00000  Uiso   1.00
C70113 C     0.40096   0.41287   0.97988   0.00000  Uiso   1.00
C71114 C     0.35406   0.46521   0.94803   0.00000  Uiso   1.00
C72115 C     0.46320   0.32866   0.05289   0.00000  Uiso   1.00
H41116 H     0.50661   0.28535   0.08897   0.00000  Uiso   1.00
C73117 C     0.36780   0.43317   0.95558   0.00000  Uiso   1.00
H42118 H     0.32859   0.47987   0.93109   0.00000  Uiso   1.00
H43119 H     0.44909   0.31757   0.07037   0.00000  Uiso   1.00
H44120 H     0.35295   0.42274   0.94341   0.00000  Uiso   1.00
C74121 C     0.49286   0.85055   0.89087   0.00000  Uiso   1.00
C75122 C     0.54515   0.84328   0.93114   0.00000  Uiso   1.00
C76123 C     0.47937   0.88416   0.89654   0.00000  Uiso   1.00
C77124 C     0.47184   0.83904   0.86578   0.00000  Uiso   1.00
C78125 C     0.53235   0.87666   0.91987   0.00000  Uiso   1.00
C79126 C     0.57761   0.82407   0.96156   0.00000  Uiso   1.00
C80127 C     0.44593   0.90476   0.89247   0.00000  Uiso   1.00
C81128 C     0.49918   0.89707   0.90734   0.00000  Uiso   1.00
C82129 C     0.43999   0.85876   0.85862   0.00000  Uiso   1.00
H45130 H     0.48159   0.81365   0.85254   0.00000  Uiso   1.00
C83131 C     0.55260   0.88955   0.92537   0.00000  Uiso   1.00
C84132 C     0.59669   0.83692   0.97195   0.00000  Uiso   1.00
H46133 H     0.58794   0.79865   0.97772   0.00000  Uiso   1.00
C85134 C     0.43238   0.93801   0.90722   0.00000  Uiso   1.00
C86135 C     0.42591   0.89211   0.87639   0.00000  Uiso   1.00
C87136 C     0.48567   0.93067   0.90838   0.00000  Uiso   1.00
H47137 H     0.42478   0.84897   0.84044   0.00000  Uiso   1.00
C88138 C     0.53918   0.92342   0.90624   0.00000  Uiso   1.00
C89139 C     0.58464   0.86922   0.95120   0.00000  Uiso   1.00
H48140 H     0.62167   0.82162   0.99579   0.00000  Uiso   1.00
C90141 C     0.39910   0.95812   0.91556   0.00000  Uiso   1.00
C91142 C     0.45260   0.95090   0.91159   0.00000  Uiso   1.00
C92143 C     0.39297   0.91272   0.87727   0.00000  Uiso   1.00
C93144 C     0.50585   0.94363   0.90458   0.00000  Uiso   1.00
C94145 C     0.55815   0.93705   0.88960   0.00000  Uiso   1.00
H49146 H     0.60083   0.87822   0.95891   0.00000  Uiso   1.00
C95147 C     0.38591   0.99164   0.94094   0.00000  Uiso   1.00
C96148 C     0.37999   0.94474   0.89858   0.00000  Uiso   1.00
C97149 C     0.43912   0.98446   0.91750   0.00000  Uiso   1.00
H50150 H     0.37731   0.90328   0.86274   0.00000  Uiso   1.00
C98151 C     0.49220   0.97707   0.89700   0.00000  Uiso   1.00
C99152 C     0.54499   0.96938   0.87524   0.00000  Uiso   1.00
H51153 H     0.58391   0.92210   0.88568   0.00000  Uiso   1.00
C100154 C     0.40609   0.00462   0.93565   0.00000  Uiso   1.00
C101155 C     0.35410   0.01156   0.97182   0.00000  Uiso   1.00
H52156 H     0.35420   0.95968   0.89997   0.00000  Uiso   1.00
C102157 C     0.45884   0.99754   0.90742   0.00000  Uiso   1.00
C103158 C     0.51209   0.98997   0.88132   0.00000  Uiso   1.00
H53159 H     0.56049   0.97909   0.86079   0.00000  Uiso   1.00
C104160 C     0.39336   0.03784   0.95161   0.00000  Uiso   1.00
C105161 C     0.34217   0.04358   0.99669   0.00000  Uiso   1.00
H54162 H     0.33800   0.00243   0.97981   0.00000  Uiso   1.00
C106163 C     0.44534   0.03119   0.90763   0.00000  Uiso   1.00
C107164 C     0.49790   0.02356   0.87074   0.00000  Uiso   1.00
C108165 C     0.36112   0.05662   0.98593   0.00000  Uiso   1.00
H55166 H     0.31736   0.05853   0.02370   0.00000  Uiso   1.00
C109167 C     0.46614   0.04310   0.88341   0.00000  Uiso   1.00
H56168 H     0.51294   0.03366   0.85326   0.00000  Uiso   1.00
H57169 H     0.35085   0.08187   0.00456   0.00000  Uiso   1.00
H58170 H     0.45632   0.06868   0.87503   0.00000  Uiso   1.00
C110171 C     0.39506   0.36490   0.00563   0.00000  Uiso   1.00
C111172 C     0.37087   0.37373   0.09546   0.00000  Uiso   1.00
C112173 C     0.40014   0.34126   0.91851   0.00000  Uiso   1.00
C113174 C     0.35260   0.35942   0.09607   0.00000  Uiso   1.00
C114175 C     0.36374   0.39802   0.19281   0.00000  Uiso   1.00
C115176 C     0.38164   0.32722   0.92213   0.00000  Uiso   1.00
C116177 C     0.42462   0.33065   0.81848   0.00000  Uiso   1.00
C117178 C     0.35752   0.33598   0.01034   0.00000  Uiso   1.00
H59179 H     0.33400   0.36661   0.16636   0.00000  Uiso   1.00
H60180 H     0.34445   0.42147   0.16413   0.00000  Uiso   1.00
H61181 H     0.35600   0.39197   0.27876   0.00000  Uiso   1.00
H62182 H     0.38408   0.40040   0.21457   0.00000  Uiso   1.00
H63183 H     0.38584   0.30946   0.85187   0.00000  Uiso   1.00
H64184 H     0.44699   0.30986   0.84760   0.00000  Uiso   1.00
H65185 H     0.41691   0.32371   0.73569   0.00000  Uiso   1.00
H66186 H     0.42980   0.34901   0.79116   0.00000  Uiso   1.00
C118187 C     0.33655   0.32318   0.01307   0.00000  Uiso   1.00
C119188 C     0.34085   0.29731   0.95214   0.00000  Uiso   1.00
H67189 H     0.31551   0.33622   0.07185   0.00000  Uiso   1.00
C120190 C     0.31827   0.28627   0.95092   0.00000  Uiso   1.00
H68191 H     0.36293   0.28224   0.90147   0.00000  Uiso   1.00
C121192 C     0.28503   0.30712   0.95171   0.00000  Uiso   1.00
N4193  N     0.33075   0.25487   0.94273   0.00000  Uiso   1.00
C122194 C     0.26468   0.29477   0.95071   0.00000  Uiso   1.00
C123195 C     0.27117   0.34089   0.94884   0.00000  Uiso   1.00
C124196 C     0.31213   0.24238   0.93693   0.00000  Uiso   1.00
C125197 C     0.27874   0.26169   0.94194   0.00000  Uiso   1.00
C126198 C     0.23044   0.31617   0.95334   0.00000  Uiso   1.00
N5199  N     0.25921   0.36788   0.94240   0.00000  Uiso   1.00
C127200 C     0.32678   0.20821   0.92435   0.00000  Uiso   1.00
C128201 C     0.25975   0.24730   0.93137   0.00000  Uiso   1.00
H69202 H     0.22159   0.33821   0.89962   0.00000  Uiso   1.00
C129203 C     0.21023   0.31090   0.02024   0.00000  Uiso   1.00
H70204 H     0.31130   0.19952   0.89454   0.00000  Uiso   1.00
C130205 C     0.35726   0.18739   0.95252   0.00000  Uiso   1.00
N6206  N     0.24520   0.23525   0.92028   0.00000  Uiso   1.00
H71207 H     0.21969   0.28992   0.08099   0.00000  Uiso   1.00
C131208 C     0.17602   0.33158   0.02086   0.00000  Uiso   1.00
H72209 H     0.37197   0.19632   0.98967   0.00000  Uiso   1.00
C132210 C     0.37156   0.15312   0.94387   0.00000  Uiso   1.00
C133211 C     0.15783   0.32679   0.10941   0.00000  Uiso   1.00
C134212 C     0.16016   0.35589   0.93298   0.00000  Uiso   1.00
C135213 C     0.36186   0.13905   0.85537   0.00000  Uiso   1.00
C136214 C     0.39550   0.13327   0.02697   0.00000  Uiso   1.00
C137215 C     0.12492   0.34558   0.11177   0.00000  Uiso   1.00
H73216 H     0.16971   0.30799   0.17935   0.00000  Uiso   1.00
C138217 C     0.12735   0.37497   0.93283   0.00000  Uiso   1.00
H74218 H     0.17351   0.35993   0.86072   0.00000  Uiso   1.00
C139219 C     0.37522   0.10629   0.85002   0.00000  Uiso   1.00
H75220 H     0.34387   0.15385   0.78656   0.00000  Uiso   1.00
C140221 C     0.40876   0.10046   0.02582   0.00000  Uiso   1.00
H76222 H     0.40328   0.14377   0.09758   0.00000  Uiso   1.00
C141223 C     0.10908   0.37012   0.02279   0.00000  Uiso   1.00
C142224 C     0.10782   0.33874   0.21115   0.00000  Uiso   1.00
C143225 C     0.11295   0.39980   0.83359   0.00000  Uiso   1.00
C144226 C     0.39878   0.08639   0.93667   0.00000  Uiso   1.00
C145227 C     0.36376   0.09363   0.75015   0.00000  Uiso   1.00
C146228 C     0.43289   0.08172   0.12310   0.00000  Uiso   1.00
H77229 H     0.10349   0.31982   0.18376   0.00000  Uiso   1.00
H78230 H     0.12188   0.33062   0.29632   0.00000  Uiso   1.00
H79231 H     0.08493   0.35943   0.23400   0.00000  Uiso   1.00
H80232 H     0.11122   0.42200   0.86239   0.00000  Uiso   1.00
H81233 H     0.12760   0.39213   0.74979   0.00000  Uiso   1.00
H82234 H     0.08919   0.40532   0.80806   0.00000  Uiso   1.00
H83235 H     0.34295   0.09263   0.78023   0.00000  Uiso   1.00
H84236 H     0.35666   0.10895   0.66784   0.00000  Uiso   1.00
H85237 H     0.38171   0.06976   0.72177   0.00000  Uiso   1.00
H86238 H     0.45647   0.07685   0.09601   0.00000  Uiso   1.00
H87239 H     0.42698   0.09500   0.20981   0.00000  Uiso   1.00
H88240 H     0.43476   0.05896   0.14287   0.00000  Uiso   1.00
C147241 C     0.05462   0.37765   0.99899   0.00000  Uiso   1.00
C148242 C     0.05949   0.42399   0.04016   0.00000  Uiso   1.00
C149243 C     0.02091   0.39756   0.00031   0.00000  Uiso   1.00
C150244 C     0.06748   0.34456   0.97500   0.00000  Uiso   1.00
C151245 C     0.02613   0.44428   0.02580   0.00000  Uiso   1.00
C152246 C     0.07751   0.43803   0.07168   0.00000  Uiso   1.00
C153247 C     0.00134   0.38401   0.99214   0.00000  Uiso   1.00
C154248 C     0.00686   0.43078   0.00920   0.00000  Uiso   1.00
C155249 C     0.04879   0.33168   0.96605   0.00000  Uiso   1.00
H89250 H     0.09304   0.32909   0.96410   0.00000  Uiso   1.00
C156251 C     0.01215   0.47789   0.03075   0.00000  Uiso   1.00
C157252 C     0.06351   0.47038   0.08336   0.00000  Uiso   1.00
H90253 H     0.10295   0.42320   0.08774   0.00000  Uiso   1.00
C158254 C     0.96785   0.40361   0.99893   0.00000  Uiso   1.00
C159255 C     0.01522   0.35078   0.97878   0.00000  Uiso   1.00
C160256 C     0.97325   0.45067   0.00261   0.00000  Uiso   1.00
H91257 H     0.05955   0.30624   0.94927   0.00000  Uiso   1.00
C161258 C     0.97857   0.49806   0.00475   0.00000  Uiso   1.00
C162259 C     0.03125   0.49032   0.06073   0.00000  Uiso   1.00
H92260 H     0.07788   0.48063   0.10902   0.00000  Uiso   1.00
C163261 C     0.94854   0.38987   0.00184   0.00000  Uiso   1.00
C164262 C     0.95392   0.43721   0.99985   0.00000  Uiso   1.00
C165263 C     0.99556   0.33777   0.97617   0.00000  Uiso   1.00
C166264 C     0.95941   0.48423   0.99598   0.00000  Uiso   1.00
C167265 C     0.96430   0.53099   0.98629   0.00000  Uiso   1.00
H93266 H     0.02129   0.51588   0.06918   0.00000  Uiso   1.00
C168267 C     0.91450   0.41024   0.01647   0.00000  Uiso   1.00
C169268 C     0.96318   0.35678   0.98959   0.00000  Uiso   1.00
C170269 C     0.92028   0.45713   0.99548   0.00000  Uiso   1.00
H94270 H     0.00601   0.31219   0.96460   0.00000  Uiso   1.00
C171271 C     0.92621   0.50371   0.97775   0.00000  Uiso   1.00
C172272 C     0.93236   0.54980   0.96145   0.00000  Uiso   1.00
H95273 H     0.97847   0.54238   0.98878   0.00000  Uiso   1.00
C173274 C     0.90067   0.44380   0.00693   0.00000  Uiso   1.00
C174275 C     0.89481   0.39801   0.04037   0.00000  Uiso   1.00
H96276 H     0.94901   0.34538   0.98801   0.00000  Uiso   1.00
C175277 C     0.90652   0.49023   0.98080   0.00000  Uiso   1.00
C176278 C     0.91270   0.53679   0.95849   0.00000  Uiso   1.00
H97279 H     0.92224   0.57524   0.94524   0.00000  Uiso   1.00
C177280 C     0.86712   0.46425   0.01241   0.00000  Uiso   1.00
C178281 C     0.86224   0.41812   0.05419   0.00000  Uiso   1.00
H98282 H     0.90449   0.37251   0.05125   0.00000  Uiso   1.00
C179283 C     0.87293   0.51013   0.96974   0.00000  Uiso   1.00
C180284 C     0.87954   0.55570   0.93460   0.00000  Uiso   1.00
C181285 C     0.84855   0.45042   0.03966   0.00000  Uiso   1.00
H99286 H     0.84738   0.40804   0.07561   0.00000  Uiso   1.00
C182287 C     0.86067   0.54293   0.93954   0.00000  Uiso   1.00
H100288 H     0.86921   0.58093   0.91278   0.00000  Uiso   1.00
H101289 H     0.82292   0.46534   0.05012   0.00000  Uiso   1.00
H102290 H     0.83541   0.55826   0.92069   0.00000  Uiso   1.00
C183291 C     0.07390   0.39060   0.02149   0.00000  Uiso   1.00
C184292 C     0.85317   0.49753   0.98984   0.00000  Uiso   1.00
C185293 C     0.41477   0.38009   0.00205   0.00000  Uiso   1.00
C186294 C     0.51532   0.49840   0.98688   0.00000  Uiso   1.00
C187295 C     0.52544   0.83009   0.91190   0.00000  Uiso   1.00
C188296 C     0.41290   0.05131   0.93235   0.00000  Uiso   1.00
C189297 C     0.61165   0.59185   0.41547   0.00000  Uiso   1.00
C190298 C     0.64455   0.57284   0.43287   0.00000  Uiso   1.00
C191299 C     0.66343   0.58706   0.43377   0.00000  Uiso   1.00
C192300 C     0.61939   0.63734   0.40618   0.00000  Uiso   1.00
C193301 C     0.59925   0.62463   0.39795   0.00000  Uiso   1.00
C194302 C     0.56637   0.64441   0.36789   0.00000  Uiso   1.00
C195303 C     0.65972   0.53901   0.44329   0.00000  Uiso   1.00
N7304  N     0.54036   0.65949   0.33978   0.00000  Uiso   1.00
N8305  N     0.67271   0.51195   0.44977   0.00000  Uiso   1.00
C196306 C     0.59053   0.57913   0.41124   0.00000  Uiso   1.00
H103307 H     0.57079   0.59091   0.34542   0.00000  Uiso   1.00
C197308 C     0.60781   0.67127   0.39347   0.00000  Uiso   1.00
H104309 H     0.62408   0.67727   0.34768   0.00000  Uiso   1.00
C198310 C     0.69768   0.56741   0.44348   0.00000  Uiso   1.00
H105311 H     0.70792   0.54221   0.42272   0.00000  Uiso   1.00
N9312  N     0.65058   0.61846   0.42236   0.00000  Uiso   1.00
C199313 C     0.59310   0.55572   0.48640   0.00000  Uiso   1.00
H106314 H     0.61181   0.54572   0.55703   0.00000  Uiso   1.00
C200315 C     0.71685   0.57822   0.47739   0.00000  Uiso   1.00
H107316 H     0.70646   0.60296   0.50648   0.00000  Uiso   1.00
C201317 C     0.58002   0.69420   0.44033   0.00000  Uiso   1.00
H108318 H     0.56565   0.68725   0.49546   0.00000  Uiso   1.00
C202319 C     0.57269   0.54230   0.48473   0.00000  Uiso   1.00
C203320 C     0.57762   0.51908   0.57323   0.00000  Uiso   1.00
C204321 C     0.54861   0.55089   0.39714   0.00000  Uiso   1.00
C205322 C     0.55946   0.50466   0.57533   0.00000  Uiso   1.00
H109323 H     0.59620   0.51209   0.64309   0.00000  Uiso   1.00
C206324 C     0.53004   0.53693   0.39703   0.00000  Uiso   1.00
H110325 H     0.54417   0.56872   0.32566   0.00000  Uiso   1.00
C207326 C     0.53518   0.51343   0.48654   0.00000  Uiso   1.00
C208327 C     0.75122   0.55811   0.48058   0.00000  Uiso   1.00
C209328 C     0.76930   0.56312   0.56750   0.00000  Uiso   1.00
C210329 C     0.76713   0.53338   0.39572   0.00000  Uiso   1.00
C211330 C     0.80213   0.54359   0.57290   0.00000  Uiso   1.00
H111331 H     0.75738   0.58218   0.63540   0.00000  Uiso   1.00
C212332 C     0.79992   0.51391   0.39714   0.00000  Uiso   1.00
H112333 H     0.75377   0.52955   0.32381   0.00000  Uiso   1.00
C213334 C     0.81804   0.51857   0.48699   0.00000  Uiso   1.00
C214335 C     0.56713   0.72822   0.42981   0.00000  Uiso   1.00
C215336 C     0.57663   0.74226   0.33866   0.00000  Uiso   1.00
C216337 C     0.54327   0.74816   0.51274   0.00000  Uiso   1.00
C217338 C     0.56311   0.77505   0.33070   0.00000  Uiso   1.00
H113339 H     0.59459   0.72745   0.27007   0.00000  Uiso   1.00
C218340 C     0.52966   0.78097   0.50826   0.00000  Uiso   1.00
H114341 H     0.53550   0.73769   0.58479   0.00000  Uiso   1.00
C219342 C     0.53948   0.79501   0.41658   0.00000  Uiso   1.00
C220343 C     0.50536   0.54756   0.29828   0.00000  Uiso   1.00
H115344 H     0.48315   0.56855   0.32691   0.00000  Uiso   1.00
H116345 H     0.51304   0.55424   0.21370   0.00000  Uiso   1.00
H117346 H     0.49993   0.52929   0.27408   0.00000  Uiso   1.00
C221347 C     0.56675   0.48034   0.67438   0.00000  Uiso   1.00
H118348 H     0.58574   0.45682   0.64568   0.00000  Uiso   1.00
H119349 H     0.57499   0.48615   0.75870   0.00000  Uiso   1.00
H120350 H     0.54635   0.47820   0.69903   0.00000  Uiso   1.00
C222351 C     0.81909   0.55014   0.67245   0.00000  Uiso   1.00
H121352 H     0.82466   0.56819   0.64303   0.00000  Uiso   1.00
H122353 H     0.80440   0.55923   0.75573   0.00000  Uiso   1.00
H123354 H     0.84133   0.52907   0.69917   0.00000  Uiso   1.00
C223355 C     0.81435   0.48895   0.29972   0.00000  Uiso   1.00
H124356 H     0.81467   0.46731   0.32844   0.00000  Uiso   1.00
H125357 H     0.80048   0.49714   0.21420   0.00000  Uiso   1.00
H126358 H     0.83863   0.48234   0.27741   0.00000  Uiso   1.00
C224359 C     0.50524   0.79975   0.60421   0.00000  Uiso   1.00
H127360 H     0.48165   0.80516   0.57522   0.00000  Uiso   1.00
H128361 H     0.51046   0.78627   0.69106   0.00000  Uiso   1.00
H129362 H     0.50374   0.82224   0.62451   0.00000  Uiso   1.00
C225363 C     0.57436   0.78772   0.22841   0.00000  Uiso   1.00
H130364 H     0.59539   0.78850   0.25589   0.00000  Uiso   1.00
H131365 H     0.58107   0.77255   0.14665   0.00000  Uiso   1.00
H132366 H     0.55646   0.81168   0.19987   0.00000  Uiso   1.00
C226367 C     0.52897   0.46569   0.46603   0.00000  Uiso   1.00
C227368 C     0.48200   0.51732   0.50831   0.00000  Uiso   1.00
C228369 C     0.50997   0.45129   0.47309   0.00000  Uiso   1.00
C229370 C     0.56199   0.44547   0.43876   0.00000  Uiso   1.00
C230371 C     0.46250   0.50359   0.50001   0.00000  Uiso   1.00
C231372 C     0.46723   0.54992   0.53757   0.00000  Uiso   1.00
C232373 C     0.52438   0.41771   0.46721   0.00000  Uiso   1.00
C233374 C     0.47680   0.47031   0.48628   0.00000  Uiso   1.00
C234375 C     0.57563   0.41348   0.43071   0.00000  Uiso   1.00
H133376 H     0.57678   0.45595   0.42443   0.00000  Uiso   1.00
C235377 C     0.42891   0.52305   0.50877   0.00000  Uiso   1.00
C236378 C     0.43492   0.56819   0.55174   0.00000  Uiso   1.00
H134379 H     0.48145   0.56103   0.54990   0.00000  Uiso   1.00
C237380 C     0.50578   0.40322   0.48152   0.00000  Uiso   1.00
C238381 C     0.55751   0.39847   0.44905   0.00000  Uiso   1.00
C239382 C     0.45781   0.45592   0.48727   0.00000  Uiso   1.00
H135383 H     0.60096   0.39889   0.41084   0.00000  Uiso   1.00
C240384 C     0.40950   0.50885   0.49095   0.00000  Uiso   1.00
C241385 C     0.41573   0.55519   0.53512   0.00000  Uiso   1.00
H136386 H     0.42410   0.59328   0.57501   0.00000  Uiso   1.00
C242387 C     0.52050   0.36974   0.48730   0.00000  Uiso   1.00
C243388 C     0.47219   0.42268   0.48760   0.00000  Uiso   1.00
C244389 C     0.57140   0.36536   0.44799   0.00000  Uiso   1.00
C245390 C     0.42419   0.47539   0.48574   0.00000  Uiso   1.00
C246391 C     0.37642   0.52720   0.47781   0.00000  Uiso   1.00
H137392 H     0.39017   0.57075   0.54575   0.00000  Uiso   1.00
C247393 C     0.50128   0.35551   0.51132   0.00000  Uiso   1.00
C248394 C     0.55342   0.35143   0.46884   0.00000  Uiso   1.00
C249395 C     0.45322   0.40827   0.49167   0.00000  Uiso   1.00
H138396 H     0.59687   0.35032   0.43205   0.00000  Uiso   1.00
C250397 C     0.40551   0.46091   0.47638   0.00000  Uiso   1.00
C251398 C     0.35830   0.51333   0.46191   0.00000  Uiso   1.00
H139399 H     0.36434   0.55309   0.47762   0.00000  Uiso   1.00
C252400 C     0.46763   0.37497   0.50673   0.00000  Uiso   1.00
C253401 C     0.51468   0.32336   0.54012   0.00000  Uiso   1.00
H140402 H     0.56546   0.32554   0.46840   0.00000  Uiso   1.00
C254403 C     0.41996   0.42731   0.48265   0.00000  Uiso   1.00
C255404 C     0.37224   0.48021   0.46275   0.00000  Uiso   1.00
H141405 H     0.33269   0.52842   0.44986   0.00000  Uiso   1.00
C256406 C     0.44821   0.36123   0.52080   0.00000  Uiso   1.00
C257407 C     0.49561   0.31041   0.56337   0.00000  Uiso   1.00
H142408 H     0.54031   0.30779   0.54785   0.00000  Uiso   1.00
C258409 C     0.40096   0.41287   0.47988   0.00000  Uiso   1.00
C259410 C     0.35406   0.46521   0.44803   0.00000  Uiso   1.00
C260411 C     0.46320   0.32866   0.55289   0.00000  Uiso   1.00
H143412 H     0.50661   0.28535   0.58897   0.00000  Uiso   1.00
C261413 C     0.36780   0.43317   0.45558   0.00000  Uiso   1.00
H144414 H     0.32859   0.47987   0.43109   0.00000  Uiso   1.00
H145415 H     0.44909   0.31757   0.57037   0.00000  Uiso   1.00
H146416 H     0.35295   0.42274   0.44341   0.00000  Uiso   1.00
C262417 C     0.49286   0.85055   0.39087   0.00000  Uiso   1.00
C263418 C     0.54515   0.84328   0.43114   0.00000  Uiso   1.00
C264419 C     0.47937   0.88416   0.39654   0.00000  Uiso   1.00
C265420 C     0.47184   0.83904   0.36578   0.00000  Uiso   1.00
C266421 C     0.53235   0.87666   0.41987   0.00000  Uiso   1.00
C267422 C     0.57761   0.82407   0.46156   0.00000  Uiso   1.00
C268423 C     0.44593   0.90476   0.39247   0.00000  Uiso   1.00
C269424 C     0.49918   0.89707   0.40734   0.00000  Uiso   1.00
C270425 C     0.43999   0.85876   0.35862   0.00000  Uiso   1.00
H147426 H     0.48159   0.81365   0.35254   0.00000  Uiso   1.00
C271427 C     0.55260   0.88955   0.42537   0.00000  Uiso   1.00
C272428 C     0.59669   0.83692   0.47195   0.00000  Uiso   1.00
H148429 H     0.58794   0.79865   0.47772   0.00000  Uiso   1.00
C273430 C     0.43238   0.93801   0.40722   0.00000  Uiso   1.00
C274431 C     0.42591   0.89211   0.37639   0.00000  Uiso   1.00
C275432 C     0.48567   0.93067   0.40838   0.00000  Uiso   1.00
H149433 H     0.42478   0.84897   0.34044   0.00000  Uiso   1.00
C276434 C     0.53918   0.92342   0.40624   0.00000  Uiso   1.00
C277435 C     0.58464   0.86922   0.45120   0.00000  Uiso   1.00
H150436 H     0.62167   0.82162   0.49579   0.00000  Uiso   1.00
C278437 C     0.39910   0.95812   0.41556   0.00000  Uiso   1.00
C279438 C     0.45260   0.95090   0.41159   0.00000  Uiso   1.00
C280439 C     0.39297   0.91272   0.37727   0.00000  Uiso   1.00
C281440 C     0.50585   0.94363   0.40458   0.00000  Uiso   1.00
C282441 C     0.55815   0.93705   0.38960   0.00000  Uiso   1.00
H151442 H     0.60083   0.87822   0.45891   0.00000  Uiso   1.00
C283443 C     0.38591   0.99164   0.44094   0.00000  Uiso   1.00
C284444 C     0.37999   0.94474   0.39858   0.00000  Uiso   1.00
C285445 C     0.43912   0.98446   0.41750   0.00000  Uiso   1.00
H152446 H     0.37731   0.90328   0.36274   0.00000  Uiso   1.00
C286447 C     0.49220   0.97707   0.39700   0.00000  Uiso   1.00
C287448 C     0.54499   0.96938   0.37524   0.00000  Uiso   1.00
H153449 H     0.58391   0.92210   0.38568   0.00000  Uiso   1.00
C288450 C     0.40609   0.00462   0.43565   0.00000  Uiso   1.00
C289451 C     0.35410   0.01156   0.47182   0.00000  Uiso   1.00
H154452 H     0.35420   0.95968   0.39997   0.00000  Uiso   1.00
C290453 C     0.45884   0.99754   0.40742   0.00000  Uiso   1.00
C291454 C     0.51209   0.98997   0.38132   0.00000  Uiso   1.00
H155455 H     0.56049   0.97909   0.36079   0.00000  Uiso   1.00
C292456 C     0.39336   0.03784   0.45161   0.00000  Uiso   1.00
C293457 C     0.34217   0.04358   0.49669   0.00000  Uiso   1.00
H156458 H     0.33800   0.00243   0.47981   0.00000  Uiso   1.00
C294459 C     0.44534   0.03119   0.40763   0.00000  Uiso   1.00
C295460 C     0.49790   0.02356   0.37074   0.00000  Uiso   1.00
C296461 C     0.36112   0.05662   0.48593   0.00000  Uiso   1.00
H157462 H     0.31736   0.05853   0.52370   0.00000  Uiso   1.00
C297463 C     0.46614   0.04310   0.38341   0.00000  Uiso   1.00
H158464 H     0.51294   0.03366   0.35326   0.00000  Uiso   1.00
H159465 H     0.35085   0.08187   0.50456   0.00000  Uiso   1.00
H160466 H     0.45632   0.06868   0.37503   0.00000  Uiso   1.00
C298467 C     0.39506   0.36490   0.50563   0.00000  Uiso   1.00
C299468 C     0.37087   0.37373   0.59546   0.00000  Uiso   1.00
C300469 C     0.40014   0.34126   0.41851   0.00000  Uiso   1.00
C301470 C     0.35260   0.35942   0.59607   0.00000  Uiso   1.00
C302471 C     0.36374   0.39802   0.69281   0.00000  Uiso   1.00
C303472 C     0.38164   0.32722   0.42213   0.00000  Uiso   1.00
C304473 C     0.42462   0.33065   0.31848   0.00000  Uiso   1.00
C305474 C     0.35752   0.33598   0.51034   0.00000  Uiso   1.00
H161475 H     0.33400   0.36661   0.66636   0.00000  Uiso   1.00
H162476 H     0.34445   0.42147   0.66413   0.00000  Uiso   1.00
H163477 H     0.35600   0.39197   0.77876   0.00000  Uiso   1.00
H164478 H     0.38408   0.40040   0.71457   0.00000  Uiso   1.00
H165479 H     0.38584   0.30946   0.35187   0.00000  Uiso   1.00
H166480 H     0.44699   0.30986   0.34760   0.00000  Uiso   1.00
H167481 H     0.41691   0.32371   0.23569   0.00000  Uiso   1.00
H168482 H     0.42980   0.34901   0.29116   0.00000  Uiso   1.00
C306483 C     0.33655   0.32318   0.51307   0.00000  Uiso   1.00
C307484 C     0.34085   0.29731   0.45214   0.00000  Uiso   1.00
H169485 H     0.31551   0.33622   0.57185   0.00000  Uiso   1.00
C308486 C     0.31827   0.28627   0.45092   0.00000  Uiso   1.00
H170487 H     0.36293   0.28224   0.40147   0.00000  Uiso   1.00
C309488 C     0.28503   0.30712   0.45171   0.00000  Uiso   1.00
N10489 N     0.33075   0.25487   0.44273   0.00000  Uiso   1.00
C310490 C     0.26468   0.29477   0.45071   0.00000  Uiso   1.00
C311491 C     0.27117   0.34089   0.44884   0.00000  Uiso   1.00
C312492 C     0.31213   0.24238   0.43693   0.00000  Uiso   1.00
C313493 C     0.27874   0.26169   0.44194   0.00000  Uiso   1.00
C314494 C     0.23044   0.31617   0.45334   0.00000  Uiso   1.00
N11495 N     0.25921   0.36788   0.44240   0.00000  Uiso   1.00
C315496 C     0.32678   0.20821   0.42435   0.00000  Uiso   1.00
C316497 C     0.25975   0.24730   0.43137   0.00000  Uiso   1.00
H171498 H     0.22159   0.33821   0.39962   0.00000  Uiso   1.00
C317499 C     0.21023   0.31090   0.52024   0.00000  Uiso   1.00
H172500 H     0.31130   0.19952   0.39454   0.00000  Uiso   1.00
C318501 C     0.35726   0.18739   0.45252   0.00000  Uiso   1.00
N12502 N     0.24520   0.23525   0.42028   0.00000  Uiso   1.00
H173503 H     0.21969   0.28992   0.58099   0.00000  Uiso   1.00
C319504 C     0.17602   0.33158   0.52086   0.00000  Uiso   1.00
H174505 H     0.37197   0.19632   0.48967   0.00000  Uiso   1.00
C320506 C     0.37156   0.15312   0.44387   0.00000  Uiso   1.00
C321507 C     0.15783   0.32679   0.60941   0.00000  Uiso   1.00
C322508 C     0.16016   0.35589   0.43298   0.00000  Uiso   1.00
C323509 C     0.36186   0.13905   0.35537   0.00000  Uiso   1.00
C324510 C     0.39550   0.13327   0.52697   0.00000  Uiso   1.00
C325511 C     0.12492   0.34558   0.61177   0.00000  Uiso   1.00
H175512 H     0.16971   0.30799   0.67935   0.00000  Uiso   1.00
C326513 C     0.12735   0.37497   0.43283   0.00000  Uiso   1.00
H176514 H     0.17351   0.35993   0.36072   0.00000  Uiso   1.00
C327515 C     0.37522   0.10629   0.35002   0.00000  Uiso   1.00
H177516 H     0.34387   0.15385   0.28656   0.00000  Uiso   1.00
C328517 C     0.40876   0.10046   0.52582   0.00000  Uiso   1.00
H178518 H     0.40328   0.14377   0.59758   0.00000  Uiso   1.00
C329519 C     0.10908   0.37012   0.52279   0.00000  Uiso   1.00
C330520 C     0.10782   0.33874   0.71115   0.00000  Uiso   1.00
C331521 C     0.11295   0.39980   0.33359   0.00000  Uiso   1.00
C332522 C     0.39878   0.08639   0.43667   0.00000  Uiso   1.00
C333523 C     0.36376   0.09363   0.25015   0.00000  Uiso   1.00
C334524 C     0.43289   0.08172   0.62310   0.00000  Uiso   1.00
H179525 H     0.10349   0.31982   0.68376   0.00000  Uiso   1.00
H180526 H     0.12188   0.33062   0.79632   0.00000  Uiso   1.00
H181527 H     0.08493   0.35943   0.73400   0.00000  Uiso   1.00
H182528 H     0.11122   0.42200   0.36239   0.00000  Uiso   1.00
H183529 H     0.12760   0.39213   0.24979   0.00000  Uiso   1.00
H184530 H     0.08919   0.40532   0.30806   0.00000  Uiso   1.00
H185531 H     0.34295   0.09263   0.28023   0.00000  Uiso   1.00
H186532 H     0.35666   0.10895   0.16784   0.00000  Uiso   1.00
H187533 H     0.38171   0.06976   0.22177   0.00000  Uiso   1.00
H188534 H     0.45647   0.07685   0.59601   0.00000  Uiso   1.00
H189535 H     0.42698   0.09500   0.70981   0.00000  Uiso   1.00
H190536 H     0.43476   0.05896   0.64287   0.00000  Uiso   1.00
C335537 C     0.05462   0.37765   0.49899   0.00000  Uiso   1.00
C336538 C     0.05949   0.42399   0.54016   0.00000  Uiso   1.00
C337539 C     0.02091   0.39756   0.50031   0.00000  Uiso   1.00
C338540 C     0.06748   0.34456   0.47500   0.00000  Uiso   1.00
C339541 C     0.02613   0.44428   0.52580   0.00000  Uiso   1.00
C340542 C     0.07751   0.43803   0.57168   0.00000  Uiso   1.00
C341543 C     0.00134   0.38401   0.49214   0.00000  Uiso   1.00
C342544 C     0.00686   0.43078   0.50920   0.00000  Uiso   1.00
C343545 C     0.04879   0.33168   0.46605   0.00000  Uiso   1.00
H191546 H     0.09304   0.32909   0.46410   0.00000  Uiso   1.00
C344547 C     0.01215   0.47789   0.53075   0.00000  Uiso   1.00
C345548 C     0.06351   0.47038   0.58336   0.00000  Uiso   1.00
H192549 H     0.10295   0.42320   0.58774   0.00000  Uiso   1.00
C346550 C     0.96785   0.40361   0.49893   0.00000  Uiso   1.00
C347551 C     0.01522   0.35078   0.47878   0.00000  Uiso   1.00
C348552 C     0.97325   0.45067   0.50261   0.00000  Uiso   1.00
H193553 H     0.05955   0.30624   0.44927   0.00000  Uiso   1.00
C349554 C     0.97857   0.49806   0.50475   0.00000  Uiso   1.00
C350555 C     0.03125   0.49032   0.56073   0.00000  Uiso   1.00
H194556 H     0.07788   0.48063   0.60902   0.00000  Uiso   1.00
C351557 C     0.94854   0.38987   0.50184   0.00000  Uiso   1.00
C352558 C     0.95392   0.43721   0.49985   0.00000  Uiso   1.00
C353559 C     0.99556   0.33777   0.47617   0.00000  Uiso   1.00
C354560 C     0.95941   0.48423   0.49598   0.00000  Uiso   1.00
C355561 C     0.96430   0.53099   0.48629   0.00000  Uiso   1.00
H195562 H     0.02129   0.51588   0.56918   0.00000  Uiso   1.00
C356563 C     0.91450   0.41024   0.51647   0.00000  Uiso   1.00
C357564 C     0.96318   0.35678   0.48959   0.00000  Uiso   1.00
C358565 C     0.92028   0.45713   0.49548   0.00000  Uiso   1.00
H196566 H     0.00601   0.31219   0.46460   0.00000  Uiso   1.00
C359567 C     0.92621   0.50371   0.47775   0.00000  Uiso   1.00
C360568 C     0.93236   0.54980   0.46145   0.00000  Uiso   1.00
H197569 H     0.97847   0.54238   0.48878   0.00000  Uiso   1.00
C361570 C     0.90067   0.44380   0.50693   0.00000  Uiso   1.00
C362571 C     0.89481   0.39801   0.54037   0.00000  Uiso   1.00
H198572 H     0.94901   0.34538   0.48801   0.00000  Uiso   1.00
C363573 C     0.90652   0.49023   0.48080   0.00000  Uiso   1.00
C364574 C     0.91270   0.53679   0.45849   0.00000  Uiso   1.00
H199575 H     0.92224   0.57524   0.44524   0.00000  Uiso   1.00
C365576 C     0.86712   0.46425   0.51241   0.00000  Uiso   1.00
C366577 C     0.86224   0.41812   0.55419   0.00000  Uiso   1.00
H200578 H     0.90449   0.37251   0.55125   0.00000  Uiso   1.00
C367579 C     0.87293   0.51013   0.46974   0.00000  Uiso   1.00
C368580 C     0.87954   0.55570   0.43460   0.00000  Uiso   1.00
C369581 C     0.84855   0.45042   0.53966   0.00000  Uiso   1.00
H201582 H     0.84738   0.40804   0.57561   0.00000  Uiso   1.00
C370583 C     0.86067   0.54293   0.43954   0.00000  Uiso   1.00
H202584 H     0.86921   0.58093   0.41278   0.00000  Uiso   1.00
H203585 H     0.82292   0.46534   0.55012   0.00000  Uiso   1.00
H204586 H     0.83541   0.55826   0.42069   0.00000  Uiso   1.00
C371587 C     0.07390   0.39060   0.52149   0.00000  Uiso   1.00
C372588 C     0.85317   0.49753   0.48984   0.00000  Uiso   1.00
C373589 C     0.41477   0.38009   0.50205   0.00000  Uiso   1.00
C374590 C     0.51532   0.49840   0.48688   0.00000  Uiso   1.00
C375591 C     0.52544   0.83009   0.41190   0.00000  Uiso   1.00
C376592 C     0.41290   0.05131   0.43235   0.00000  Uiso   1.00
loop_
_geom_bond_atom_site_label_1
_geom_bond_atom_site_label_2
_geom_bond_distance
_geom_bond_site_symmetry_2
_ccdc_geom_bond_type
C11    C22     1.416   .     S
C11    C55     1.419   .     D
C11    C810    1.469   .     S
C22    C33     1.426   .     D
C22    C77     1.443   .     S
C33    C1014   1.465   .     S
C33    N316    1.347   .     S
C44    C55     1.426   .     S
C44    C912    1.473   .     S
C44    N316    1.346   .     D
C55    C66     1.443   .     S
C66    N18     1.151   .     T
C77    N29     1.151   .     T
C810   H111    1.104   .     S
C810   C1117   1.358   .     D
C912   H213    1.103   .     S
C912   C1321   1.357   .     D
C1014  H315    1.102   .     S
C1014  C1219   1.357   .     D
C1117  C1423   1.463   .     S
C1117  H418    1.103   1_556 S
H418   C1117   1.103   1_554 S
C1219  C2031   1.468   .     S
C1219  H520    1.104   1_556 S
H520   C1219   1.104   1_554 S
C1321  H622    1.104   .     S
C1321  C2639   1.464   .     S
C1423  C1625   1.409   .     S
C1423  C1524   1.409   1_556 D
C1524  C1726   1.402   .     S
C1524  H727    1.101   .     S
C1524  C1423   1.409   1_554 D
C1625  C1828   1.402   .     D
C1625  H829    1.101   .     S
C1726  C3351   1.502   .     S
C1726  C1930   1.423   1_554 D
C1828  C1930   1.424   .     S
C1828  C3247   1.502   .     S
C1930  C186294  1.503   .     S
C1930  C1726   1.423   1_556 D
C2031  C2233   1.408   .     D
C2031  C2132   1.408   1_556 S
C2132  C2334   1.404   .     D
C2132  H935    1.101   .     S
C2132  C2031   1.408   1_554 S
C2233  C2436   1.401   .     S
C2233  H1037   1.101   .     S
C2334  C3455   1.503   .     S
C2334  C2538   1.424   1_554 S
C2436  C2538   1.423   .     D
C2436  C3559   1.501   .     S
C2538  C184292  1.502   .     S
C2538  C2334   1.424   1_556 S
C2639  C2740   1.409   .     D
C2639  C2841   1.408   1_556 S
C2740  C2942   1.403   .     S
C2740  H1143   1.101   .     S
C2841  C3044   1.402   .     D
C2841  H1245   1.101   .     S
C2841  C2639   1.408   1_554 S
C2942  C3146   1.424   .     D
C2942  C3767   1.503   .     S
C3044  C3663   1.501   .     S
C3044  C3146   1.422   1_554 S
C3146  C187295  1.502   .     S
C3146  C3044   1.422   1_556 S
C3247  H1348   1.103   .     S
C3247  H1449   1.099   .     S
C3247  H1550   1.098   .     S
C3351  H1652   1.103   .     S
C3351  H1753   1.099   .     S
C3351  H1854   1.098   .     S
C3455  H1956   1.102   .     S
C3455  H2057   1.098   .     S
C3455  H2158   1.098   .     S
C3559  H2260   1.102   .     S
C3559  H2361   1.098   .     S
C3559  H2462   1.098   .     S
C3663  H2564   1.103   .     S
C3663  H2665   1.098   .     S
C3663  H2766   1.098   .     S
C3767  H2868   1.103   .     S
C3767  H2969   1.098   .     S
C3767  H3070   1.098   .     S
C3871  C4073   1.440   .     S
C3871  C4174   1.445   .     D
C3871  C186294  1.416   .     S
C3972  C4275   1.438   .     S
C3972  C4376   1.425   .     S
C3972  C186294  1.439   1_554 D
C4073  C4477   1.434   .     D
C4073  C4578   1.422   .     S
C4174  C4679   1.368   .     S
C4174  H3180   1.100   .     S
C4275  C4781   1.436   .     S
C4275  C4578   1.428   1_554 D
C4376  C4882   1.385   .     D
C4376  H3283   1.100   .     S
C4477  C4984   1.432   .     S
C4477  C5085   1.427   .     S
C4578  C5186   1.438   .     S
C4578  C4275   1.428   1_556 D
C4679  C5085   1.437   .     D
C4679  H3387   1.102   .     S
C4781  C5389   1.405   .     D
C4781  C5288   1.464   1_554 S
C4882  C5389   1.404   .     S
C4882  H3490   1.101   .     S
C4984  C5491   1.427   .     D
C4984  C5592   1.435   .     S
C5085  C5693   1.413   .     S
C5186  C5592   1.417   .     D
C5186  C5794   1.435   .     S
C5288  C5794   1.427   .     S
C5288  C5895   1.416   .     D
C5288  C4781   1.464   1_556 S
C5389  H3596   1.100   .     S
C5491  C6098   1.416   .     S
C5491  C5997   1.463   1_556 S
C5592  C6199   1.438   .     S
C5693  C6098   1.391   .     D
C5693  H36100  1.101   .     S
C5794  C62101  1.432   .     D
C5895  C63102  1.390   .     S
C5895  H37103  1.100   .     S
C5997  C64104  1.437   .     D
C5997  C65105  1.405   .     S
C5997  C5491   1.463   1_554 S
C6098  H38106  1.101   .     S
C6199  C66107  1.422   .     D
C6199  C64104  1.427   1_556 S
C62101 C66107  1.434   .     S
C62101 C67108  1.427   .     S
C63102 C67108  1.413   .     D
C63102 H39109  1.102   .     S
C64104 C68110  1.438   .     S
C64104 C6199   1.427   1_554 S
C65105 C69111  1.404   .     D
C65105 H40112  1.100   .     S
C66107 C70113  1.441   .     S
C67108 C71114  1.437   .     S
C68110 C72115  1.425   .     D
C68110 C185293  1.440   .     S
C69111 C72115  1.386   .     S
C69111 H41116  1.101   .     S
C70113 C73117  1.444   .     S
C70113 C185293  1.417   1_556 D
C71114 C73117  1.368   .     D
C71114 H42118  1.102   .     S
C72115 H43119  1.100   .     S
C73117 H44120  1.100   .     S
C74121 C76123  1.440   .     S
C74121 C77124  1.445   .     S
C74121 C187295  1.417   .     D
C75122 C78125  1.436   .     D
C75122 C79126  1.425   .     S
C75122 C187295  1.439   .     S
C76123 C80127  1.434   .     D
C76123 C81128  1.421   .     S
C77124 C82129  1.368   .     D
C77124 H45130  1.100   .     S
C78125 C81128  1.428   .     S
C78125 C83131  1.437   .     S
C79126 C84132  1.385   .     D
C79126 H46133  1.099   .     S
C80127 C85134  1.432   .     S
C80127 C86135  1.427   .     S
C81128 C87136  1.438   .     D
C82129 C86135  1.438   .     S
C82129 H47137  1.101   .     S
C83131 C88138  1.463   .     S
C83131 C89139  1.405   .     D
C84132 C89139  1.405   .     S
C84132 H48140  1.100   .     S
C85134 C90141  1.427   .     S
C85134 C91142  1.435   .     D
C86135 C92143  1.413   .     D
C87136 C91142  1.417   .     S
C87136 C93144  1.435   .     S
C88138 C93144  1.426   .     S
C88138 C94145  1.416   .     D
C89139 H49146  1.100   .     S
C90141 C95147  1.464   .     S
C90141 C96148  1.416   .     D
C91142 C97149  1.438   .     S
C92143 C96148  1.390   .     S
C92143 H50150  1.101   .     S
C93144 C98151  1.431   .     D
C94145 C99152  1.390   .     S
C94145 H51153  1.100   .     S
C95147 C100154  1.436   1_565 D
C95147 C101155  1.405   1_565 S
C96148 H52156  1.101   .     S
C97149 C102157  1.422   .     D
C97149 C100154  1.428   1_565 S
C98151 C102157  1.433   .     S
C98151 C103158  1.428   .     S
C99152 C103158  1.413   .     D
C99152 H53159  1.102   .     S
C100154 C104160  1.437   .     S
C100154 C95147  1.436   1_545 D
C100154 C97149  1.428   1_545 S
C101155 C105161  1.405   .     D
C101155 H54162  1.100   .     S
C101155 C95147  1.405   1_545 S
C102157 C106163  1.440   1_565 S
C103158 C107164  1.437   1_565 S
C104160 C108165  1.425   .     D
C104160 C188296  1.439   .     S
C105161 C108165  1.386   .     S
C105161 H55166  1.101   1_556 S
C106163 C109167  1.444   .     S
C106163 C188296  1.416   .     D
C106163 C102157  1.440   1_545 S
C107164 C109167  1.368   .     D
C107164 H56168  1.101   .     S
C107164 C103158  1.437   1_545 S
C108165 H57169  1.100   1_556 S
H55166 C105161  1.101   1_554 S
C109167 H58170  1.101   .     S
H57169 C108165  1.100   1_554 S
C110171 C111172  1.423   .     S
C110171 C185293  1.503   .     S
C110171 C112173  1.425   1_554 D
C111172 C113174  1.403   .     D
C111172 C114175  1.502   .     S
C112173 C115176  1.402   .     S
C112173 C116177  1.502   .     S
C112173 C110171  1.425   1_556 D
C113174 C117178  1.409   .     S
C113174 H59179  1.101   .     S
C114175 H60180  1.103   .     S
C114175 H61181  1.098   .     S
C114175 H62182  1.098   .     S
C115176 H63183  1.101   .     S
C115176 C117178  1.410   1_556 D
C116177 H64184  1.103   .     S
C116177 H65185  1.098   .     S
C116177 H66186  1.098   .     S
C117178 C118187  1.464   .     S
C117178 C115176  1.410   1_554 D
C118187 H67189  1.103   .     S
C118187 C119188  1.359   1_554 D
C119188 C120190  1.472   .     S
C119188 H68191  1.103   .     S
C119188 C118187  1.359   1_556 D
C120190 C121192  1.427   .     S
C120190 N4193   1.348   .     D
C121192 C122194  1.418   .     D
C121192 C123195  1.443   .     S
N4193  C124196  1.347   .     S
C122194 C125197  1.415   .     S
C122194 C126198  1.469   .     S
C123195 N5199   1.151   .     T
C124196 C125197  1.426   .     D
C124196 C127200  1.464   .     S
C125197 C128201  1.444   .     S
C126198 H69202  1.103   .     S
C126198 C129203  1.358   1_556 D
C127200 H70204  1.102   .     S
C127200 C130205  1.356   .     D
C128201 N6206   1.151   .     T
C129203 H71207  1.104   .     S
C129203 C131208  1.464   .     S
C129203 C126198  1.358   1_554 D
C130205 H72209  1.104   .     S
C130205 C132210  1.467   .     S
C131208 C133211  1.409   .     D
C131208 C134212  1.409   1_554 S
C132210 C135213  1.409   .     S
C132210 C136214  1.407   1_556 D
C133211 C137215  1.403   .     S
C133211 H73216  1.102   .     S
C134212 C138217  1.400   .     D
C134212 H74218  1.101   .     S
C134212 C131208  1.409   1_556 S
C135213 C139219  1.402   .     D
C135213 H75220  1.101   .     S
C136214 C140221  1.403   .     S
C136214 H76222  1.101   .     S
C136214 C132210  1.407   1_554 D
C137215 C141223  1.423   .     D
C137215 C142224  1.502   .     S
C138217 C143225  1.501   .     S
C138217 C141223  1.423   1_556 S
C139219 C144226  1.424   .     S
C139219 C145227  1.503   .     S
C140221 C146228  1.502   .     S
C140221 C144226  1.422   1_554 D
C141223 C183291  1.502   .     S
C141223 C138217  1.423   1_554 S
C142224 H77229  1.103   .     S
C142224 H78230  1.099   .     S
C142224 H79231  1.099   .     S
C143225 H80232  1.103   .     S
C143225 H81233  1.099   .     S
C143225 H82234  1.099   .     S
C144226 C188296  1.502   .     S
C144226 C140221  1.422   1_556 D
C145227 H83235  1.102   .     S
C145227 H84236  1.098   .     S
C145227 H85237  1.098   .     S
C146228 H86238  1.102   .     S
C146228 H87239  1.098   .     S
C146228 H88240  1.098   .     S
C147241 C150244  1.444   .     D
C147241 C149243  1.440   1_556 S
C147241 C183291  1.416   1_556 S
C148242 C151245  1.436   .     S
C148242 C152246  1.425   .     S
C148242 C183291  1.439   .     D
C149243 C154248  1.421   .     S
C149243 C147241  1.440   1_554 S
C149243 C153247  1.434   1_554 D
C150244 C155249  1.368   .     S
C150244 H89250  1.100   .     S
C151245 C154248  1.427   .     D
C151245 C156251  1.437   .     S
C152246 C157252  1.386   .     D
C152246 H90253  1.100   .     S
C153247 C159255  1.427   .     S
C153247 C149243  1.434   1_556 D
C153247 C158254  1.432   1_455 S
C154248 C160256  1.438   1_455 S
C155249 C159255  1.438   .     D
C155249 H91257  1.102   .     S
C156251 C162259  1.405   .     D
C156251 C161258  1.463   1_455 S
C157252 C162259  1.404   .     S
C157252 H92260  1.100   .     S
C158254 C164262  1.435   .     S
C158254 C153247  1.432   1_655 S
C158254 C163261  1.426   1_556 D
C159255 C165263  1.413   1_455 S
C160256 C154248  1.438   1_655 S
C160256 C164262  1.416   1_554 D
C160256 C166264  1.435   1_554 S
C161258 C156251  1.463   1_655 S
C161258 C166264  1.427   1_554 D
C161258 C167265  1.416   1_554 S
C162259 H93266  1.100   .     S
C163261 C168267  1.464   .     S
C163261 C158254  1.426   1_554 D
C163261 C169268  1.416   1_554 S
C164262 C170269  1.438   .     S
C164262 C160256  1.416   1_556 D
C165263 C169268  1.390   .     D
C165263 C159255  1.413   1_655 S
C165263 H94270  1.102   1_655 S
C166264 C171271  1.431   .     S
C166264 C160256  1.435   1_556 S
C166264 C161258  1.427   1_556 D
C167265 C172272  1.390   .     D
C167265 H95273  1.100   .     S
C167265 C161258  1.416   1_556 S
C168267 C173274  1.437   .     S
C168267 C174275  1.405   .     D
C169268 H96276  1.101   .     S
C169268 C163261  1.416   1_556 S
C170269 C175277  1.421   .     D
C170269 C173274  1.428   1_556 S
H94270 C165263  1.102   1_455 S
C171271 C175277  1.433   .     S
C171271 C176278  1.428   .     D
C172272 C176278  1.413   .     S
C172272 H97279  1.102   .     S
C173274 C177280  1.438   .     D
C173274 C170269  1.428   1_554 S
C174275 C178281  1.404   .     S
C174275 H98282  1.100   .     S
C175277 C179283  1.440   .     S
C176278 C180284  1.437   .     S
C177280 C181285  1.425   .     S
C177280 C184292  1.440   1_554 S
C178281 C181285  1.386   .     D
C178281 H99286  1.100   .     S
C179283 C182287  1.444   .     S
C179283 C184292  1.416   .     D
C180284 C182287  1.368   .     D
C180284 H100288  1.102   .     S
C181285 H101289  1.100   .     S
C182287 H102290  1.100   .     S
C183291 C147241  1.416   1_554 S
C184292 C177280  1.440   1_556 S
C185293 C70113  1.417   1_554 D
C186294 C3972   1.439   1_556 D
C189297 C190298  1.416   .     D
C189297 C193301  1.419   .     S
C189297 C196306  1.469   .     S
C190298 C191299  1.426   .     S
C190298 C195303  1.443   .     S
C191299 C198310  1.465   .     S
C191299 N9312   1.347   .     D
C192300 C193301  1.426   .     D
C192300 C197308  1.473   .     S
C192300 N9312   1.346   .     S
C193301 C194302  1.443   .     S
C194302 N7304   1.151   .     T
C195303 N8305   1.151   .     T
C196306 H103307  1.104   .     S
C196306 C199313  1.358   .     D
C197308 H104309  1.103   .     S
C197308 C201317  1.357   .     D
C198310 H105311  1.102   .     S
C198310 C200315  1.357   .     D
C199313 H106314  1.103   .     S
C199313 C202319  1.463   .     S
C200315 H107316  1.104   .     S
C200315 C208327  1.468   .     S
C201317 H108318  1.104   .     S
C201317 C214335  1.464   .     S
C202319 C203320  1.409   .     D
C202319 C204321  1.409   .     S
C203320 C205322  1.402   .     S
C203320 H109323  1.101   .     S
C204321 C206324  1.402   .     D
C204321 H110325  1.101   .     S
C205322 C207326  1.423   .     D
C205322 C221347  1.502   .     S
C206324 C207326  1.424   .     S
C206324 C220343  1.502   .     S
C207326 C374590  1.503   .     S
C208327 C209328  1.408   .     S
C208327 C210329  1.408   .     D
C209328 C211330  1.404   .     D
C209328 H111331  1.101   .     S
C210329 C212332  1.401   .     S
C210329 H112333  1.101   .     S
C211330 C213334  1.424   .     S
C211330 C222351  1.503   .     S
C212332 C213334  1.423   .     D
C212332 C223355  1.501   .     S
C213334 C372588  1.502   .     S
C214335 C215336  1.409   .     D
C214335 C216337  1.408   .     S
C215336 C217338  1.403   .     S
C215336 H113339  1.101   .     S
C216337 C218340  1.402   .     D
C216337 H114341  1.101   .     S
C217338 C219342  1.424   .     D
C217338 C225363  1.503   .     S
C218340 C219342  1.422   .     S
C218340 C224359  1.501   .     S
C219342 C375591  1.502   .     S
C220343 H115344  1.103   .     S
C220343 H116345  1.099   .     S
C220343 H117346  1.098   .     S
C221347 H118348  1.103   .     S
C221347 H119349  1.099   .     S
C221347 H120350  1.098   .     S
C222351 H121352  1.102   .     S
C222351 H122353  1.098   .     S
C222351 H123354  1.098   .     S
C223355 H124356  1.102   .     S
C223355 H125357  1.098   .     S
C223355 H126358  1.098   .     S
C224359 H127360  1.103   .     S
C224359 H128361  1.098   .     S
C224359 H129362  1.098   .     S
C225363 H130364  1.103   .     S
C225363 H131365  1.098   .     S
C225363 H132366  1.098   .     S
C226367 C228369  1.440   .     S
C226367 C229370  1.445   .     D
C226367 C374590  1.416   .     S
C227368 C230371  1.438   .     S
C227368 C231372  1.425   .     S
C227368 C374590  1.439   .     D
C228369 C232373  1.434   .     D
C228369 C233374  1.422   .     S
C229370 C234375  1.368   .     S
C229370 H133376  1.100   .     S
C230371 C233374  1.428   .     D
C230371 C235377  1.436   .     S
C231372 C236378  1.385   .     D
C231372 H134379  1.100   .     S
C232373 C237380  1.432   .     S
C232373 C238381  1.427   .     S
C233374 C239382  1.438   .     S
C234375 C238381  1.437   .     D
C234375 H135383  1.102   .     S
C235377 C240384  1.464   .     S
C235377 C241385  1.405   .     D
C236378 C241385  1.404   .     S
C236378 H136386  1.101   .     S
C237380 C242387  1.427   .     D
C237380 C243388  1.435   .     S
C238381 C244389  1.413   .     S
C239382 C243388  1.417   .     S
C239382 C245390  1.435   .     D
C240384 C245390  1.427   .     S
C240384 C246391  1.416   .     D
C241385 H137392  1.100   .     S
C242387 C247393  1.463   .     S
C242387 C248394  1.416   .     S
C243388 C249395  1.438   .     D
C244389 C248394  1.391   .     D
C244389 H138396  1.101   .     S
C245390 C250397  1.432   .     S
C246391 C251398  1.390   .     S
C246391 H139399  1.100   .     S
C247393 C252400  1.437   .     D
C247393 C253401  1.405   .     S
C248394 H140402  1.101   .     S
C249395 C252400  1.427   .     S
C249395 C254403  1.422   .     S
C250397 C254403  1.434   .     D
C250397 C255404  1.427   .     S
C251398 C255404  1.413   .     D
C251398 H141405  1.102   .     S
C252400 C256406  1.438   .     S
C253401 C257407  1.404   .     D
C253401 H142408  1.100   .     S
C254403 C258409  1.441   .     S
C255404 C259410  1.437   .     S
C256406 C260411  1.425   .     D
C256406 C373589  1.440   .     S
C257407 C260411  1.386   .     S
C257407 H143412  1.101   .     S
C258409 C261413  1.444   .     S
C258409 C373589  1.417   .     D
C259410 C261413  1.368   .     D
C259410 H144414  1.102   .     S
C260411 H145415  1.100   .     S
C261413 H146416  1.100   .     S
C262417 C264419  1.440   .     S
C262417 C265420  1.445   .     D
C262417 C375591  1.417   .     S
C263418 C266421  1.436   .     S
C263418 C267422  1.425   .     S
C263418 C375591  1.439   .     D
C264419 C268423  1.434   .     D
C264419 C269424  1.421   .     S
C265420 C270425  1.368   .     S
C265420 H147426  1.100   .     S
C266421 C269424  1.428   .     D
C266421 C271427  1.437   .     S
C267422 C272428  1.385   .     D
C267422 H148429  1.099   .     S
C268423 C273430  1.432   .     S
C268423 C274431  1.427   .     S
C269424 C275432  1.438   .     S
C270425 C274431  1.438   .     D
C270425 H149433  1.101   .     S
C271427 C276434  1.463   .     S
C271427 C277435  1.405   .     D
C272428 C277435  1.405   .     S
C272428 H150436  1.100   .     S
C273430 C278437  1.427   .     D
C273430 C279438  1.435   .     S
C274431 C280439  1.413   .     S
C275432 C279438  1.417   .     S
C275432 C281440  1.435   .     D
C276434 C281440  1.426   .     S
C276434 C282441  1.416   .     D
C277435 H151442  1.100   .     S
C278437 C283443  1.464   .     S
C278437 C284444  1.416   .     S
C279438 C285445  1.438   .     D
C280439 C284444  1.390   .     D
C280439 H152446  1.101   .     S
C281440 C286447  1.431   .     S
C282441 C287448  1.390   .     S
C282441 H153449  1.100   .     S
C283443 C288450  1.436   1_565 D
C283443 C289451  1.405   1_565 S
C284444 H154452  1.101   .     S
C285445 C290453  1.422   .     S
C285445 C288450  1.428   1_565 S
C286447 C290453  1.433   .     D
C286447 C291454  1.428   .     S
C287448 C291454  1.413   .     D
C287448 H155455  1.102   .     S
C288450 C292456  1.437   .     S
C288450 C283443  1.436   1_545 D
C288450 C285445  1.428   1_545 S
C289451 C293457  1.405   .     D
C289451 H156458  1.100   .     S
C289451 C283443  1.405   1_545 S
C290453 C294459  1.440   1_565 S
C291454 C295460  1.437   1_565 S
C292456 C296461  1.425   .     D
C292456 C376592  1.439   .     S
C293457 C296461  1.386   .     S
C293457 H157462  1.101   .     S
C294459 C297463  1.444   .     S
C294459 C376592  1.416   .     D
C294459 C290453  1.440   1_545 S
C295460 C297463  1.368   .     D
C295460 H158464  1.101   .     S
C295460 C291454  1.437   1_545 S
C296461 H159465  1.100   .     S
C297463 H160466  1.101   .     S
C298467 C299468  1.423   .     D
C298467 C300469  1.425   .     S
C298467 C373589  1.503   .     S
C299468 C301470  1.403   .     S
C299468 C302471  1.502   .     S
C300469 C303472  1.402   .     D
C300469 C304473  1.502   .     S
C301470 C305474  1.409   .     D
C301470 H161475  1.101   .     S
C302471 H162476  1.103   .     S
C302471 H163477  1.098   .     S
C302471 H164478  1.098   .     S
C303472 C305474  1.410   .     S
C303472 H165479  1.101   .     S
C304473 H166480  1.103   .     S
C304473 H167481  1.098   .     S
C304473 H168482  1.098   .     S
C305474 C306483  1.464   .     S
C306483 C307484  1.359   .     D
C306483 H169485  1.103   .     S
C307484 C308486  1.472   .     S
C307484 H170487  1.103   .     S
C308486 C309488  1.427   .     D
C308486 N10489  1.348   .     S
C309488 C310490  1.418   .     S
C309488 C311491  1.443   .     S
N10489 C312492  1.347   .     D
C310490 C313493  1.415   .     D
C310490 C314494  1.469   .     S
C311491 N11495  1.151   .     T
C312492 C313493  1.426   .     S
C312492 C315496  1.464   .     S
C313493 C316497  1.444   .     S
C314494 H171498  1.103   .     S
C314494 C317499  1.358   .     D
C315496 H172500  1.102   .     S
C315496 C318501  1.356   .     D
C316497 N12502  1.151   .     T
C317499 H173503  1.104   .     S
C317499 C319504  1.464   .     S
C318501 H174505  1.104   .     S
C318501 C320506  1.467   .     S
C319504 C321507  1.409   .     S
C319504 C322508  1.409   .     D
C320506 C323509  1.409   .     D
C320506 C324510  1.407   .     S
C321507 C325511  1.403   .     D
C321507 H175512  1.102   .     S
C322508 C326513  1.400   .     S
C322508 H176514  1.101   .     S
C323509 C327515  1.402   .     S
C323509 H177516  1.101   .     S
C324510 C328517  1.403   .     D
C324510 H178518  1.101   .     S
C325511 C329519  1.423   .     S
C325511 C330520  1.502   .     S
C326513 C329519  1.423   .     D
C326513 C331521  1.501   .     S
C327515 C332522  1.424   .     D
C327515 C333523  1.503   .     S
C328517 C332522  1.422   .     S
C328517 C334524  1.502   .     S
C329519 C371587  1.502   .     S
C330520 H179525  1.103   .     S
C330520 H180526  1.099   .     S
C330520 H181527  1.099   .     S
C331521 H182528  1.103   .     S
C331521 H183529  1.099   .     S
C331521 H184530  1.099   .     S
C332522 C376592  1.502   .     S
C333523 H185531  1.102   .     S
C333523 H186532  1.098   .     S
C333523 H187533  1.098   .     S
C334524 H188534  1.102   .     S
C334524 H189535  1.098   .     S
C334524 H190536  1.098   .     S
C335537 C337539  1.440   .     S
C335537 C338540  1.444   .     D
C335537 C371587  1.416   .     S
C336538 C339541  1.436   .     S
C336538 C340542  1.425   .     S
C336538 C371587  1.439   .     D
C337539 C341543  1.434   .     D
C337539 C342544  1.421   .     S
C338540 C343545  1.368   .     S
C338540 H191546  1.100   .     S
C339541 C342544  1.427   .     D
C339541 C344547  1.437   .     S
C340542 C345548  1.386   .     D
C340542 H192549  1.100   .     S
C341543 C347551  1.427   .     S
C341543 C346550  1.432   1_455 S
C342544 C348552  1.438   1_455 S
C343545 C347551  1.438   .     D
C343545 H193553  1.102   .     S
C344547 C350555  1.405   .     D
C344547 C349554  1.463   1_455 S
C345548 C350555  1.404   .     S
C345548 H194556  1.100   .     S
C346550 C351557  1.426   .     S
C346550 C352558  1.435   .     D
C346550 C341543  1.432   1_655 S
C347551 C353559  1.413   1_455 S
C348552 C352558  1.416   .     S
C348552 C354560  1.435   .     D
C348552 C342544  1.438   1_655 S
C349554 C354560  1.427   .     S
C349554 C355561  1.416   .     D
C349554 C344547  1.463   1_655 S
C350555 H195562  1.100   .     S
C351557 C356563  1.464   .     D
C351557 C357564  1.416   .     S
C352558 C358565  1.438   .     S
C353559 C357564  1.390   .     D
C353559 C347551  1.413   1_655 S
C353559 H196566  1.102   1_655 S
C354560 C359567  1.431   .     S
C355561 C360568  1.390   .     S
C355561 H197569  1.100   .     S
C356563 C361570  1.437   .     S
C356563 C362571  1.405   .     S
C357564 H198572  1.101   .     S
C358565 C361570  1.428   .     D
C358565 C363573  1.421   .     S
H196566 C353559  1.102   1_455 S
C359567 C363573  1.433   .     D
C359567 C364574  1.428   .     S
C360568 C364574  1.413   .     D
C360568 H199575  1.102   .     S
C361570 C365576  1.438   .     S
C362571 C366577  1.404   .     D
C362571 H200578  1.100   .     S
C363573 C367579  1.440   .     S
C364574 C368580  1.437   .     S
C365576 C369581  1.425   .     D
C365576 C372588  1.440   .     S
C366577 C369581  1.386   .     S
C366577 H201582  1.100   .     S
C367579 C370583  1.444   .     S
C367579 C372588  1.416   .     D
C368580 C370583  1.368   .     D
C368580 H202584  1.102   .     S
C369581 H203585  1.100   .     S
C370583 H204586  1.100   .     S
