data_706
_audit_creation_date              2023-09-08
_audit_creation_method            'Materials Studio'
_symmetry_space_group_name_H-M    'P1'
_symmetry_Int_Tables_number       1
_symmetry_cell_setting            triclinic
loop_
_symmetry_equiv_pos_as_xyz
  x,y,z
_cell_length_a                    48.1779
_cell_length_b                    48.6991
_cell_length_c                    6.8523
_cell_angle_alpha                 90.0000
_cell_angle_beta                  90.0000
_cell_angle_gamma                 120.0040
loop_
_atom_site_label
_atom_site_type_symbol
_atom_site_fract_x
_atom_site_fract_y
_atom_site_fract_z
_atom_site_U_iso_or_equiv
_atom_site_adp_type
_atom_site_occupancy
C11    C     0.47847   0.26905   0.87033   0.00000  Uiso   1.00
C22    C     0.49538   0.29036   0.71731   0.00000  Uiso   1.00
C33    C     0.52876   0.30488   0.70911   0.00000  Uiso   1.00
C44    C     0.54592   0.29812   0.84880   0.00000  Uiso   1.00
C55    C     0.52893   0.27731   0.00280   0.00000  Uiso   1.00
C66    C     0.49558   0.26292   0.01485   0.00000  Uiso   1.00
C77    C     0.58080   0.31366   0.83332   0.00000  Uiso   1.00
C88    C     0.59955   0.30402   0.92241   0.00000  Uiso   1.00
C99    C     0.65284   0.35497   0.91396   0.00000  Uiso   1.00
C1010  C     0.68671   0.37073   0.91609   0.00000  Uiso   1.00
C1111  C     0.03061   0.02121   0.08321   0.00000  Uiso   1.00
N112   N     0.01074   0.03337   0.07547   0.00000  Uiso   1.00
C1213  C     0.06535   0.04274   0.08726   0.00000  Uiso   1.00
C1314  C     0.08083   0.07242   0.01228   0.00000  Uiso   1.00
C1415  C     0.11579   0.09278   0.01829   0.00000  Uiso   1.00
C1516  C     0.13405   0.08948   0.16723   0.00000  Uiso   1.00
C1617  C     0.16738   0.10874   0.17260   0.00000  Uiso   1.00
C1718  C     0.18331   0.13160   0.02522   0.00000  Uiso   1.00
C1819  C     0.16524   0.13497   0.87455   0.00000  Uiso   1.00
C1920  C     0.13182   0.11607   0.87444   0.00000  Uiso   1.00
C2021  C     0.21871   0.18700   0.27792   0.00000  Uiso   1.00
C2122  C     0.23585   0.17810   0.14831   0.00000  Uiso   1.00
C2223  C     0.27021   0.19665   0.14456   0.00000  Uiso   1.00
C2324  C     0.28661   0.22331   0.27273   0.00000  Uiso   1.00
C2425  C     0.26837   0.23110   0.39641   0.00000  Uiso   1.00
C2526  C     0.23477   0.21317   0.39801   0.00000  Uiso   1.00
C2627  C     0.28776   0.18852   0.01168   0.00000  Uiso   1.00
C2728  C     0.27115   0.16208   0.88549   0.00000  Uiso   1.00
C2829  C     0.23679   0.14309   0.89434   0.00000  Uiso   1.00
C2930  C     0.21934   0.15123   0.02295   0.00000  Uiso   1.00
C3031  C     0.22091   0.11556   0.77063   0.00000  Uiso   1.00
C3132  C     0.23766   0.10828   0.64044   0.00000  Uiso   1.00
C3233  C     0.27179   0.12777   0.62201   0.00000  Uiso   1.00
C3334  C     0.28856   0.15429   0.74877   0.00000  Uiso   1.00
C3435  C     0.32168   0.24161   0.26951   0.00000  Uiso   1.00
C3536  C     0.33890   0.23327   0.13544   0.00000  Uiso   1.00
C3637  C     0.32218   0.20694   0.00490   0.00000  Uiso   1.00
C3738  C     0.33946   0.19898   0.87113   0.00000  Uiso   1.00
C3839  C     0.32273   0.17277   0.73982   0.00000  Uiso   1.00
C3940  C     0.33985   0.16478   0.60301   0.00000  Uiso   1.00
C4041  C     0.32228   0.13928   0.47350   0.00000  Uiso   1.00
C4142  C     0.28917   0.12112   0.48298   0.00000  Uiso   1.00
C4243  C     0.37317   0.25116   0.13039   0.00000  Uiso   1.00
C4344  C     0.39005   0.27744   0.25890   0.00000  Uiso   1.00
C4445  C     0.37250   0.28508   0.39102   0.00000  Uiso   1.00
C4546  C     0.33929   0.26754   0.39616   0.00000  Uiso   1.00
C4647  C     0.39061   0.24274   0.99762   0.00000  Uiso   1.00
C4748  C     0.37390   0.21687   0.86751   0.00000  Uiso   1.00
C4849  C     0.39137   0.20830   0.73679   0.00000  Uiso   1.00
C4950  C     0.37486   0.18244   0.60338   0.00000  Uiso   1.00
C5051  C     0.42446   0.29535   0.25131   0.00000  Uiso   1.00
C5152  C     0.44117   0.28700   0.12738   0.00000  Uiso   1.00
C5253  C     0.42510   0.26037   0.99703   0.00000  Uiso   1.00
C5354  C     0.44241   0.25159   0.87155   0.00000  Uiso   1.00
C5455  C     0.42573   0.22538   0.74157   0.00000  Uiso   1.00
C5556  C     0.39289   0.17414   0.48174   0.00000  Uiso   1.00
C5657  C     0.42644   0.19027   0.49117   0.00000  Uiso   1.00
C5758  C     0.44273   0.21545   0.61788   0.00000  Uiso   1.00
C5859  C     0.18196   0.15814   0.71168   0.00000  Uiso   1.00
C5960  C     0.18624   0.10409   0.33040   0.00000  Uiso   1.00
C6061  C     0.47795   0.24007   0.17745   0.00000  Uiso   1.00
C6162  C     0.47740   0.29678   0.56172   0.00000  Uiso   1.00
H163   H     0.54164   0.32115   0.59034   0.00000  Uiso   1.00
H264   H     0.54179   0.27246   0.11569   0.00000  Uiso   1.00
H365   H     0.59187   0.33413   0.73630   0.00000  Uiso   1.00
H466   H     0.58852   0.28182   0.00355   0.00000  Uiso   1.00
C6267  C     0.63757   0.37394   0.91196   0.00000  Uiso   1.00
H568   H     0.96877   0.05132   0.15100   0.00000  Uiso   1.00
H669   H     0.06706   0.08146   0.93717   0.00000  Uiso   1.00
H770   H     0.12219   0.07204   0.28232   0.00000  Uiso   1.00
H871   H     0.11814   0.11876   0.75743   0.00000  Uiso   1.00
H972   H     0.19273   0.17283   0.28171   0.00000  Uiso   1.00
H1073  H     0.28007   0.25131   0.49407   0.00000  Uiso   1.00
H1174  H     0.22134   0.21987   0.49561   0.00000  Uiso   1.00
H1275  H     0.19508   0.10051   0.78303   0.00000  Uiso   1.00
H1376  H     0.22533   0.08736   0.54845   0.00000  Uiso   1.00
H1477  H     0.33477   0.13329   0.36455   0.00000  Uiso   1.00
H1578  H     0.27634   0.10134   0.38314   0.00000  Uiso   1.00
H1679  H     0.38532   0.30495   0.49036   0.00000  Uiso   1.00
H1780  H     0.32676   0.27417   0.50114   0.00000  Uiso   1.00
H1881  H     0.43708   0.31565   0.34802   0.00000  Uiso   1.00
H1982  H     0.46722   0.30039   0.12511   0.00000  Uiso   1.00
H2083  H     0.38103   0.15457   0.37966   0.00000  Uiso   1.00
H2184  H     0.43966   0.18275   0.39789   0.00000  Uiso   1.00
H2285  H     0.46874   0.22777   0.62438   0.00000  Uiso   1.00
H2386  H     0.19944   0.18142   0.76769   0.00000  Uiso   1.00
H2487  H     0.19516   0.15025   0.61992   0.00000  Uiso   1.00
H2588  H     0.16494   0.16051   0.61902   0.00000  Uiso   1.00
H2689  H     0.17074   0.08984   0.44899   0.00000  Uiso   1.00
H2790  H     0.19841   0.09201   0.27268   0.00000  Uiso   1.00
H2891  H     0.20472   0.12667   0.38926   0.00000  Uiso   1.00
H2992  H     0.46480   0.21583   0.12228   0.00000  Uiso   1.00
H3093  H     0.49443   0.24115   0.28956   0.00000  Uiso   1.00
H3194  H     0.46040   0.24497   0.24481   0.00000  Uiso   1.00
H3295  H     0.46029   0.30266   0.62529   0.00000  Uiso   1.00
H3396  H     0.49366   0.31606   0.46673   0.00000  Uiso   1.00
H3497  H     0.46360   0.27581   0.47119   0.00000  Uiso   1.00
N298   N     0.76319   0.37655   0.92199   0.00000  Uiso   1.00
C6399  C     0.14616   0.60179   0.20770   0.00000  Uiso   1.00
C64100 C     0.16291   0.62312   0.05448   0.00000  Uiso   1.00
C65101 C     0.19628   0.63776   0.04534   0.00000  Uiso   1.00
C66102 C     0.21362   0.63117   0.18456   0.00000  Uiso   1.00
C67103 C     0.19679   0.61024   0.33846   0.00000  Uiso   1.00
C68104 C     0.16343   0.59570   0.35136   0.00000  Uiso   1.00
C69105 C     0.24853   0.64713   0.16911   0.00000  Uiso   1.00
C70106 C     0.26761   0.63804   0.25966   0.00000  Uiso   1.00
C71107 C     0.32082   0.68924   0.24724   0.00000  Uiso   1.00
C72108 C     0.35471   0.70507   0.24836   0.00000  Uiso   1.00
C73109 C     0.69834   0.35555   0.41707   0.00000  Uiso   1.00
N3110  N     0.67851   0.36777   0.41076   0.00000  Uiso   1.00
C74111 C     0.73308   0.37705   0.42209   0.00000  Uiso   1.00
C75112 C     0.74857   0.40689   0.34951   0.00000  Uiso   1.00
C76113 C     0.78354   0.42724   0.35629   0.00000  Uiso   1.00
C77114 C     0.80170   0.42374   0.50508   0.00000  Uiso   1.00
C78115 C     0.83503   0.44290   0.51083   0.00000  Uiso   1.00
C79116 C     0.85107   0.46583   0.36399   0.00000  Uiso   1.00
C80117 C     0.83309   0.46944   0.21373   0.00000  Uiso   1.00
C81118 C     0.79966   0.45066   0.21326   0.00000  Uiso   1.00
C82119 C     0.88676   0.52109   0.61729   0.00000  Uiso   1.00
C83120 C     0.90377   0.51205   0.48756   0.00000  Uiso   1.00
C84121 C     0.93814   0.53039   0.48396   0.00000  Uiso   1.00
C85122 C     0.95469   0.55701   0.61227   0.00000  Uiso   1.00
C86123 C     0.93658   0.56493   0.73619   0.00000  Uiso   1.00
C87124 C     0.90297   0.54719   0.73770   0.00000  Uiso   1.00
C88125 C     0.95556   0.52210   0.35103   0.00000  Uiso   1.00
C89126 C     0.93881   0.49570   0.22470   0.00000  Uiso   1.00
C90127 C     0.90444   0.47694   0.23334   0.00000  Uiso   1.00
C91128 C     0.88711   0.48524   0.36193   0.00000  Uiso   1.00
C92129 C     0.88841   0.44945   0.10942   0.00000  Uiso   1.00
C93130 C     0.90504   0.44199   0.97940   0.00000  Uiso   1.00
C94131 C     0.93920   0.46128   0.96112   0.00000  Uiso   1.00
C95132 C     0.95610   0.48776   0.08796   0.00000  Uiso   1.00
C96133 C     0.98977   0.57514   0.60883   0.00000  Uiso   1.00
C97134 C     0.00685   0.56664   0.47473   0.00000  Uiso   1.00
C98135 C     0.98999   0.54033   0.34428   0.00000  Uiso   1.00
C99136 C     0.00715   0.53223   0.21039   0.00000  Uiso   1.00
C100137 C     0.99029   0.50606   0.07898   0.00000  Uiso   1.00
C101138 C     0.00727   0.49796   0.94192   0.00000  Uiso   1.00
C102139 C     0.98958   0.47248   0.81247   0.00000  Uiso   1.00
C103140 C     0.95646   0.45448   0.82208   0.00000  Uiso   1.00
C104141 C     0.04113   0.58438   0.46943   0.00000  Uiso   1.00
C105142 C     0.05814   0.61071   0.59744   0.00000  Uiso   1.00
C106143 C     0.04072   0.61852   0.72952   0.00000  Uiso   1.00
C107144 C     0.00750   0.60110   0.73511   0.00000  Uiso   1.00
C108145 C     0.05844   0.57579   0.33671   0.00000  Uiso   1.00
C109146 C     0.04160   0.54995   0.20666   0.00000  Uiso   1.00
C110147 C     0.05893   0.54127   0.07551   0.00000  Uiso   1.00
C111148 C     0.04229   0.51549   0.94182   0.00000  Uiso   1.00
C112149 C     0.09255   0.62849   0.58938   0.00000  Uiso   1.00
C113150 C     0.10915   0.61995   0.46576   0.00000  Uiso   1.00
C114151 C     0.09294   0.59328   0.33584   0.00000  Uiso   1.00
C115152 C     0.11011   0.58438   0.21005   0.00000  Uiso   1.00
C116153 C     0.09329   0.55822   0.07984   0.00000  Uiso   1.00
C117154 C     0.06019   0.50716   0.81918   0.00000  Uiso   1.00
C118155 C     0.09375   0.52321   0.82789   0.00000  Uiso   1.00
C119156 C     0.11016   0.54829   0.95510   0.00000  Uiso   1.00
C120157 C     0.84994   0.49274   0.05166   0.00000  Uiso   1.00
C121158 C     0.85383   0.43816   0.66862   0.00000  Uiso   1.00
C122159 C     0.14595   0.57290   0.51439   0.00000  Uiso   1.00
C123160 C     0.14475   0.62951   0.90003   0.00000  Uiso   1.00
H35161 H     0.20902   0.65407   0.92653   0.00000  Uiso   1.00
H36162 H     0.20982   0.60549   0.45073   0.00000  Uiso   1.00
H37163 H     0.25933   0.66751   0.07137   0.00000  Uiso   1.00
H38164 H     0.25683   0.61593   0.34179   0.00000  Uiso   1.00
C124165 C     0.30539   0.70805   0.24290   0.00000  Uiso   1.00
H39166 H     0.63654   0.38567   0.48866   0.00000  Uiso   1.00
H40167 H     0.73482   0.41605   0.27557   0.00000  Uiso   1.00
H41168 H     0.78974   0.40623   0.61967   0.00000  Uiso   1.00
H42169 H     0.78605   0.45351   0.09648   0.00000  Uiso   1.00
H43170 H     0.86077   0.50709   0.62087   0.00000  Uiso   1.00
H44171 H     0.94839   0.58510   0.83406   0.00000  Uiso   1.00
H45172 H     0.88964   0.55400   0.83542   0.00000  Uiso   1.00
H46173 H     0.86254   0.43456   0.12154   0.00000  Uiso   1.00
H47174 H     0.89260   0.42110   0.88730   0.00000  Uiso   1.00
H48175 H     0.00196   0.46638   0.70345   0.00000  Uiso   1.00
H49176 H     0.94352   0.43472   0.72226   0.00000  Uiso   1.00
H50177 H     0.05365   0.63843   0.82843   0.00000  Uiso   1.00
H51178 H     0.99508   0.60785   0.84004   0.00000  Uiso   1.00
H52179 H     0.10526   0.64886   0.68555   0.00000  Uiso   1.00
H53180 H     0.13519   0.63324   0.46327   0.00000  Uiso   1.00
H54181 H     0.04824   0.48767   0.71670   0.00000  Uiso   1.00
H55182 H     0.10687   0.51570   0.73366   0.00000  Uiso   1.00
H56183 H     0.13617   0.56054   0.96107   0.00000  Uiso   1.00
H57184 H     0.86730   0.51600   0.10855   0.00000  Uiso   1.00
H58185 H     0.86328   0.48499   0.96028   0.00000  Uiso   1.00
H59186 H     0.83298   0.49514   0.95849   0.00000  Uiso   1.00
H60187 H     0.83818   0.42304   0.78400   0.00000  Uiso   1.00
H61188 H     0.86690   0.42710   0.60948   0.00000  Uiso   1.00
H62189 H     0.87158   0.46068   0.73229   0.00000  Uiso   1.00
H63190 H     0.13168   0.54880   0.45847   0.00000  Uiso   1.00
H64191 H     0.16259   0.57312   0.62224   0.00000  Uiso   1.00
H65192 H     0.12939   0.57863   0.58737   0.00000  Uiso   1.00
H66193 H     0.12789   0.63563   0.96474   0.00000  Uiso   1.00
H67194 H     0.16092   0.64863   0.80377   0.00000  Uiso   1.00
H68195 H     0.13065   0.60845   0.81071   0.00000  Uiso   1.00
N4196  N     0.43122   0.71079   0.25579   0.00000  Uiso   1.00
C125197 C     0.81098   0.93466   0.53968   0.00000  Uiso   1.00
C126198 C     0.82783   0.95595   0.38651   0.00000  Uiso   1.00
C127199 C     0.86119   0.97032   0.37725   0.00000  Uiso   1.00
C128200 C     0.87837   0.96343   0.51608   0.00000  Uiso   1.00
C129201 C     0.86144   0.94265   0.67037   0.00000  Uiso   1.00
C130202 C     0.82811   0.92841   0.68343   0.00000  Uiso   1.00
C131203 C     0.91323   0.97888   0.49955   0.00000  Uiso   1.00
C132204 C     0.93204   0.96935   0.58903   0.00000  Uiso   1.00
C133205 C     0.98525   0.02036   0.57863   0.00000  Uiso   1.00
C134206 C     0.01912   0.03618   0.58085   0.00000  Uiso   1.00
C135207 C     0.36338   0.68629   0.75406   0.00000  Uiso   1.00
N5208  N     0.34356   0.69849   0.74665   0.00000  Uiso   1.00
C136209 C     0.39810   0.70781   0.76011   0.00000  Uiso   1.00
C137210 C     0.41356   0.73754   0.68600   0.00000  Uiso   1.00
C138211 C     0.44848   0.75803   0.69339   0.00000  Uiso   1.00
C139212 C     0.46671   0.75455   0.84185   0.00000  Uiso   1.00
C140213 C     0.50000   0.77392   0.84816   0.00000  Uiso   1.00
C141214 C     0.51594   0.79708   0.70239   0.00000  Uiso   1.00
C142215 C     0.49789   0.80071   0.55269   0.00000  Uiso   1.00
C143216 C     0.46449   0.78166   0.55139   0.00000  Uiso   1.00
C144217 C     0.55150   0.85217   0.95778   0.00000  Uiso   1.00
C145218 C     0.56855   0.84339   0.82665   0.00000  Uiso   1.00
C146219 C     0.60291   0.86193   0.82214   0.00000  Uiso   1.00
C147220 C     0.61941   0.88851   0.95077   0.00000  Uiso   1.00
C148221 C     0.60126   0.89618   0.07601   0.00000  Uiso   1.00
C149222 C     0.56766   0.87824   0.07851   0.00000  Uiso   1.00
C150223 C     0.62037   0.85388   0.68798   0.00000  Uiso   1.00
C151224 C     0.60369   0.82748   0.56156   0.00000  Uiso   1.00
C152225 C     0.56933   0.80854   0.57094   0.00000  Uiso   1.00
C153226 C     0.55196   0.81666   0.70040   0.00000  Uiso   1.00
C154227 C     0.55337   0.78103   0.44708   0.00000  Uiso   1.00
C155228 C     0.57005   0.77371   0.31661   0.00000  Uiso   1.00
C156229 C     0.60416   0.79321   0.29731   0.00000  Uiso   1.00
C157230 C     0.62101   0.81973   0.42393   0.00000  Uiso   1.00
C158231 C     0.65448   0.90689   0.94614   0.00000  Uiso   1.00
C159232 C     0.67160   0.89865   0.81065   0.00000  Uiso   1.00
C160233 C     0.65479   0.87234   0.68013   0.00000  Uiso   1.00
C161234 C     0.67198   0.86446   0.54516   0.00000  Uiso   1.00
C162235 C     0.65517   0.83825   0.41391   0.00000  Uiso   1.00
C163236 C     0.67218   0.83032   0.27604   0.00000  Uiso   1.00
C164237 C     0.65454   0.80481   0.14677   0.00000  Uiso   1.00
C165238 C     0.62144   0.78659   0.15740   0.00000  Uiso   1.00
C166239 C     0.70586   0.91665   0.80408   0.00000  Uiso   1.00
C167240 C     0.72282   0.94297   0.93222   0.00000  Uiso   1.00
C168241 C     0.70537   0.95050   0.06573   0.00000  Uiso   1.00
C169242 C     0.67217   0.93284   0.07255   0.00000  Uiso   1.00
C170243 C     0.72321   0.90830   0.67011   0.00000  Uiso   1.00
C171244 C     0.70641   0.88242   0.54026   0.00000  Uiso   1.00
C172245 C     0.72379   0.87390   0.40839   0.00000  Uiso   1.00
C173246 C     0.70720   0.84804   0.27510   0.00000  Uiso   1.00
C174247 C     0.75721   0.96100   0.92286   0.00000  Uiso   1.00
C175248 C     0.77385   0.95270   0.79803   0.00000  Uiso   1.00
C176249 C     0.75770   0.92601   0.66818   0.00000  Uiso   1.00
C177250 C     0.77492   0.91725   0.54181   0.00000  Uiso   1.00
C178251 C     0.75815   0.89103   0.41195   0.00000  Uiso   1.00
C179252 C     0.72515   0.83981   0.15227   0.00000  Uiso   1.00
C180253 C     0.75871   0.85600   0.16044   0.00000  Uiso   1.00
C181254 C     0.77507   0.88118   0.28708   0.00000  Uiso   1.00
C182255 C     0.51465   0.82437   0.39230   0.00000  Uiso   1.00
C183256 C     0.51892   0.76931   0.00565   0.00000  Uiso   1.00
C184257 C     0.81048   0.90568   0.84650   0.00000  Uiso   1.00
C185258 C     0.80979   0.96249   0.23200   0.00000  Uiso   1.00
H69259 H     0.87404   0.98657   0.25832   0.00000  Uiso   1.00
H70260 H     0.87432   0.93769   0.78258   0.00000  Uiso   1.00
H71261 H     0.92423   0.99923   0.40162   0.00000  Uiso   1.00
H72262 H     0.92107   0.94724   0.67114   0.00000  Uiso   1.00
C186263 C     0.96994   0.03929   0.57522   0.00000  Uiso   1.00
H73264 H     0.30211   0.71686   0.81951   0.00000  Uiso   1.00
H74265 H     0.39979   0.74652   0.61037   0.00000  Uiso   1.00
H75266 H     0.45486   0.73689   0.95588   0.00000  Uiso   1.00
H76267 H     0.45081   0.78453   0.43502   0.00000  Uiso   1.00
H77268 H     0.52552   0.83802   0.96206   0.00000  Uiso   1.00
H78269 H     0.61302   0.91632   0.17415   0.00000  Uiso   1.00
H79270 H     0.55431   0.88488   0.17718   0.00000  Uiso   1.00
H80271 H     0.52753   0.76600   0.45980   0.00000  Uiso   1.00
H81272 H     0.55767   0.75277   0.22481   0.00000  Uiso   1.00
H82273 H     0.66694   0.79885   0.03708   0.00000  Uiso   1.00
H83274 H     0.60854   0.76680   0.05770   0.00000  Uiso   1.00
H84275 H     0.71825   0.97040   0.16480   0.00000  Uiso   1.00
H85276 H     0.65972   0.93939   0.17858   0.00000  Uiso   1.00
H86277 H     0.76988   0.98138   0.01904   0.00000  Uiso   1.00
H87278 H     0.79989   0.96618   0.79455   0.00000  Uiso   1.00
H88279 H     0.71322   0.82025   0.05021   0.00000  Uiso   1.00
H89280 H     0.77187   0.84854   0.06625   0.00000  Uiso   1.00
H90281 H     0.80109   0.89354   0.29260   0.00000  Uiso   1.00
H91282 H     0.53179   0.84757   0.45098   0.00000  Uiso   1.00
H92283 H     0.52824   0.81701   0.30015   0.00000  Uiso   1.00
H93284 H     0.49762   0.82672   0.29957   0.00000  Uiso   1.00
H94285 H     0.50323   0.75283   0.11600   0.00000  Uiso   1.00
H95286 H     0.53347   0.76000   0.94455   0.00000  Uiso   1.00
H96287 H     0.53538   0.79169   0.07635   0.00000  Uiso   1.00
H97288 H     0.79596   0.88161   0.79053   0.00000  Uiso   1.00
H98289 H     0.82705   0.90567   0.95408   0.00000  Uiso   1.00
H99290 H     0.79414   0.91167   0.91986   0.00000  Uiso   1.00
H100291 H     0.79306   0.96878   0.29665   0.00000  Uiso   1.00
H101292 H     0.82604   0.98154   0.13562   0.00000  Uiso   1.00
H102293 H     0.79558   0.94145   0.14280   0.00000  Uiso   1.00
N6294  N     0.09570   0.04225   0.58824   0.00000  Uiso   1.00
C187295 C     0.73049   0.21320   0.90159   0.00000  Uiso   1.00
C188296 C     0.70812   0.20783   0.75246   0.00000  Uiso   1.00
C189297 C     0.69245   0.22545   0.74817   0.00000  Uiso   1.00
C190298 C     0.69951   0.24946   0.88599   0.00000  Uiso   1.00
C191299 C     0.72189   0.25469   0.03418   0.00000  Uiso   1.00
C192300 C     0.73703   0.23661   0.04419   0.00000  Uiso   1.00
C193301 C     0.68363   0.26841   0.87426   0.00000  Uiso   1.00
C194302 C     0.69718   0.29876   0.93696   0.00000  Uiso   1.00
N7303  N     0.64943   0.30366   0.92319   0.00000  Uiso   1.00
C195304 C     0.63477   0.32125   0.91554   0.00000  Uiso   1.00
C196305 C     0.97850   0.01361   0.07475   0.00000  Uiso   1.00
C197306 C     0.96498   0.98012   0.08461   0.00000  Uiso   1.00
C198307 C     0.95839   0.02848   0.07718   0.00000  Uiso   1.00
C199308 C     0.92918   0.01632   0.99269   0.00000  Uiso   1.00
C200309 C     0.90841   0.03022   0.00435   0.00000  Uiso   1.00
C201310 C     0.91137   0.05106   0.15565   0.00000  Uiso   1.00
C202311 C     0.89132   0.06411   0.16374   0.00000  Uiso   1.00
C203312 C     0.86785   0.05663   0.01815   0.00000  Uiso   1.00
C204313 C     0.86437   0.03536   0.86740   0.00000  Uiso   1.00
C205314 C     0.88428   0.02213   0.86338   0.00000  Uiso   1.00
C206315 C     0.81177   0.03560   0.27147   0.00000  Uiso   1.00
C207316 C     0.82096   0.06195   0.14579   0.00000  Uiso   1.00
C208317 C     0.80265   0.07785   0.14803   0.00000  Uiso   1.00
C209318 C     0.77613   0.06756   0.27956   0.00000  Uiso   1.00
C210319 C     0.76810   0.04129   0.39962   0.00000  Uiso   1.00
C211320 C     0.78564   0.02539   0.39421   0.00000  Uiso   1.00
C212321 C     0.81086   0.10366   0.01777   0.00000  Uiso   1.00
C213322 C     0.83709   0.11344   0.88767   0.00000  Uiso   1.00
C214323 C     0.85592   0.09803   0.89097   0.00000  Uiso   1.00
C215324 C     0.84784   0.07247   0.01815   0.00000  Uiso   1.00
C216325 C     0.88326   0.10963   0.76323   0.00000  Uiso   1.00
C217326 C     0.89047   0.13365   0.63470   0.00000  Uiso   1.00
C218327 C     0.87116   0.14843   0.62244   0.00000  Uiso   1.00
C219328 C     0.84487   0.13872   0.75317   0.00000  Uiso   1.00
C220329 C     0.75819   0.08452   0.28314   0.00000  Uiso   1.00
C221330 C     0.76659   0.11019   0.15150   0.00000  Uiso   1.00
C222331 C     0.79269   0.11977   0.01713   0.00000  Uiso   1.00
C223332 C     0.80066   0.14508   0.88555   0.00000  Uiso   1.00
C224333 C     0.82664   0.15455   0.75044   0.00000  Uiso   1.00
C225334 C     0.83467   0.17976   0.61608   0.00000  Uiso   1.00
C226335 C     0.85989   0.18767   0.48248   0.00000  Uiso   1.00
C227336 C     0.87779   0.17256   0.48576   0.00000  Uiso   1.00
C228337 C     0.74896   0.12667   0.15256   0.00000  Uiso   1.00
C229338 C     0.72292   0.11729   0.28502   0.00000  Uiso   1.00
C230339 C     0.71528   0.09206   0.41499   0.00000  Uiso   1.00
C231340 C     0.73253   0.07624   0.41401   0.00000  Uiso   1.00
C232341 C     0.75736   0.15255   0.02164   0.00000  Uiso   1.00
C233342 C     0.78298   0.16168   0.88769   0.00000  Uiso   1.00
C234343 C     0.79156   0.18775   0.75896   0.00000  Uiso   1.00
C235344 C     0.81730   0.19721   0.62261   0.00000  Uiso   1.00
C236345 C     0.70526   0.13389   0.28348   0.00000  Uiso   1.00
C237346 C     0.71354   0.15891   0.16093   0.00000  Uiso   1.00
C238347 C     0.73984   0.16935   0.02611   0.00000  Uiso   1.00
C239348 C     0.74841   0.19523   0.90095   0.00000  Uiso   1.00
C240349 C     0.77457   0.20491   0.76835   0.00000  Uiso   1.00
C241350 C     0.82578   0.22370   0.50403   0.00000  Uiso   1.00
C242351 C     0.80982   0.24105   0.51844   0.00000  Uiso   1.00
C243352 C     0.78455   0.23188   0.64679   0.00000  Uiso   1.00
C244353 C     0.83989   0.02764   0.70957   0.00000  Uiso   1.00
C245354 C     0.89552   0.08700   0.32322   0.00000  Uiso   1.00
C246355 C     0.76083   0.24258   0.20315   0.00000  Uiso   1.00
C247356 C     0.70186   0.18379   0.59622   0.00000  Uiso   1.00
H103357 H     0.67535   0.22122   0.63237   0.00000  Uiso   1.00
H104358 H     0.72719   0.27268   0.14491   0.00000  Uiso   1.00
H105359 H     0.66018   0.25763   0.80399   0.00000  Uiso   1.00
H106360 H     0.72158   0.31044   0.99298   0.00000  Uiso   1.00
C248361 C     0.93084   0.95892   0.08637   0.00000  Uiso   1.00
H107362 H     0.94876   0.92016   0.19284   0.00000  Uiso   1.00
H108363 H     0.92030   0.99520   0.90198   0.00000  Uiso   1.00
H109364 H     0.92927   0.05699   0.26928   0.00000  Uiso   1.00
H110365 H     0.88162   0.00591   0.74626   0.00000  Uiso   1.00
H111366 H     0.82563   0.02357   0.26955   0.00000  Uiso   1.00
H112367 H     0.74796   0.03272   0.49947   0.00000  Uiso   1.00
H113368 H     0.77868   0.00500   0.48851   0.00000  Uiso   1.00
H114369 H     0.89820   0.09877   0.77094   0.00000  Uiso   1.00
H115370 H     0.91121   0.14216   0.53938   0.00000  Uiso   1.00
H116371 H     0.86586   0.20622   0.37518   0.00000  Uiso   1.00
H117372 H     0.89737   0.17947   0.38283   0.00000  Uiso   1.00
H118373 H     0.69560   0.08504   0.51739   0.00000  Uiso   1.00
H119374 H     0.72591   0.05704   0.51740   0.00000  Uiso   1.00
H120375 H     0.68517   0.12628   0.38360   0.00000  Uiso   1.00
H121376 H     0.70035   0.17163   0.16335   0.00000  Uiso   1.00
H122377 H     0.84536   0.23157   0.40041   0.00000  Uiso   1.00
H123378 H     0.81750   0.26191   0.42754   0.00000  Uiso   1.00
H124379 H     0.77229   0.24544   0.65684   0.00000  Uiso   1.00
H125380 H     0.81645   0.02083   0.77085   0.00000  Uiso   1.00
H126381 H     0.84656   0.04828   0.61724   0.00000  Uiso   1.00
H127382 H     0.83773   0.00856   0.61658   0.00000  Uiso   1.00
H128383 H     0.91230   0.08810   0.43312   0.00000  Uiso   1.00
H129384 H     0.90452   0.11077   0.26402   0.00000  Uiso   1.00
H130385 H     0.87278   0.08036   0.39434   0.00000  Uiso   1.00
H131386 H     0.78437   0.24974   0.14194   0.00000  Uiso   1.00
H132387 H     0.76304   0.26103   0.30186   0.00000  Uiso   1.00
H133388 H     0.75376   0.22114   0.28812   0.00000  Uiso   1.00
H134389 H     0.69632   0.16104   0.65896   0.00000  Uiso   1.00
H135390 H     0.68222   0.18034   0.50179   0.00000  Uiso   1.00
H136391 H     0.72309   0.19150   0.50527   0.00000  Uiso   1.00
N8392  N     0.62632   0.39008   0.90806   0.00000  Uiso   1.00
N9393  N     0.90358   0.94105   0.08525   0.00000  Uiso   1.00
C249394 C     0.39719   0.54662   0.24618   0.00000  Uiso   1.00
C250395 C     0.37489   0.54141   0.09685   0.00000  Uiso   1.00
C251396 C     0.35949   0.55928   0.09209   0.00000  Uiso   1.00
C252397 C     0.36675   0.58335   0.22990   0.00000  Uiso   1.00
C253398 C     0.38895   0.58833   0.37867   0.00000  Uiso   1.00
C254399 C     0.40384   0.57003   0.38892   0.00000  Uiso   1.00
C255400 C     0.35130   0.60267   0.21730   0.00000  Uiso   1.00
C256401 C     0.36515   0.63309   0.27905   0.00000  Uiso   1.00
N10402 N     0.31755   0.63803   0.26335   0.00000  Uiso   1.00
C257403 C     0.30282   0.65552   0.25250   0.00000  Uiso   1.00
C258404 C     0.64628   0.34806   0.40940   0.00000  Uiso   1.00
C259405 C     0.63270   0.31455   0.41757   0.00000  Uiso   1.00
C260406 C     0.62621   0.36297   0.41325   0.00000  Uiso   1.00
C261407 C     0.59705   0.35095   0.32822   0.00000  Uiso   1.00
C262408 C     0.57618   0.36472   0.34145   0.00000  Uiso   1.00
C263409 C     0.57908   0.38538   0.49376   0.00000  Uiso   1.00
C264410 C     0.55888   0.39825   0.50344   0.00000  Uiso   1.00
C265411 C     0.53530   0.39075   0.35848   0.00000  Uiso   1.00
C266412 C     0.53190   0.36965   0.20675   0.00000  Uiso   1.00
C267413 C     0.55197   0.35661   0.20109   0.00000  Uiso   1.00
C268414 C     0.47923   0.36948   0.61289   0.00000  Uiso   1.00
C269415 C     0.48832   0.39584   0.48750   0.00000  Uiso   1.00
C270416 C     0.46992   0.41165   0.49020   0.00000  Uiso   1.00
C271417 C     0.44343   0.40127   0.62201   0.00000  Uiso   1.00
C272418 C     0.43548   0.37499   0.74168   0.00000  Uiso   1.00
C273419 C     0.45309   0.35916   0.73570   0.00000  Uiso   1.00
C274420 C     0.47801   0.43744   0.36001   0.00000  Uiso   1.00
C275421 C     0.50418   0.44728   0.22942   0.00000  Uiso   1.00
C276422 C     0.52311   0.43197   0.23229   0.00000  Uiso   1.00
C277423 C     0.51518   0.40646   0.35953   0.00000  Uiso   1.00
C278424 C     0.55037   0.44361   0.10388   0.00000  Uiso   1.00
C279425 C     0.55741   0.46756   0.97508   0.00000  Uiso   1.00
C280426 C     0.53802   0.48225   0.96339   0.00000  Uiso   1.00
C281427 C     0.51181   0.47252   0.09482   0.00000  Uiso   1.00
C282428 C     0.42542   0.41817   0.62620   0.00000  Uiso   1.00
C283429 C     0.43369   0.44382   0.49465   0.00000  Uiso   1.00
C284430 C     0.45974   0.45346   0.35982   0.00000  Uiso   1.00
C285431 C     0.46758   0.47874   0.22828   0.00000  Uiso   1.00
C286432 C     0.49351   0.48827   0.09268   0.00000  Uiso   1.00
C287433 C     0.50143   0.51347   0.95844   0.00000  Uiso   1.00
C288434 C     0.52655   0.52139   0.82408   0.00000  Uiso   1.00
C289435 C     0.54450   0.50633   0.82663   0.00000  Uiso   1.00
C290436 C     0.41599   0.46023   0.49626   0.00000  Uiso   1.00
C291437 C     0.39001   0.45081   0.62933   0.00000  Uiso   1.00
C292438 C     0.38250   0.42560   0.75922   0.00000  Uiso   1.00
C293439 C     0.39981   0.40984   0.75759   0.00000  Uiso   1.00
C294440 C     0.42425   0.48607   0.36531   0.00000  Uiso   1.00
C295441 C     0.44982   0.49526   0.23090   0.00000  Uiso   1.00
C296442 C     0.45831   0.52133   0.10241   0.00000  Uiso   1.00
C297443 C     0.48405   0.53090   0.96588   0.00000  Uiso   1.00
C298444 C     0.37230   0.46736   0.62850   0.00000  Uiso   1.00
C299445 C     0.38043   0.49233   0.50582   0.00000  Uiso   1.00
C300446 C     0.40665   0.50279   0.37028   0.00000  Uiso   1.00
C301447 C     0.41510   0.52865   0.24511   0.00000  Uiso   1.00
C302448 C     0.44127   0.53843   0.11242   0.00000  Uiso   1.00
C303449 C     0.49254   0.55748   0.84820   0.00000  Uiso   1.00
C304450 C     0.47657   0.57481   0.86355   0.00000  Uiso   1.00
C305451 C     0.45125   0.56549   0.99169   0.00000  Uiso   1.00
C306452 C     0.50732   0.36192   0.04956   0.00000  Uiso   1.00
C307453 C     0.56303   0.42098   0.66387   0.00000  Uiso   1.00
C308454 C     0.42760   0.57586   0.54788   0.00000  Uiso   1.00
C309455 C     0.36848   0.51732   0.94066   0.00000  Uiso   1.00
H137456 H     0.34249   0.55524   0.97597   0.00000  Uiso   1.00
H138457 H     0.39435   0.60632   0.48950   0.00000  Uiso   1.00
H139458 H     0.32790   0.59214   0.14657   0.00000  Uiso   1.00
H140459 H     0.38954   0.64465   0.33530   0.00000  Uiso   1.00
C310460 C     0.59854   0.29341   0.41950   0.00000  Uiso   1.00
H141461 H     0.61622   0.25447   0.52178   0.00000  Uiso   1.00
H142462 H     0.58825   0.33000   0.23601   0.00000  Uiso   1.00
H143463 H     0.59705   0.39133   0.60694   0.00000  Uiso   1.00
H144464 H     0.54936   0.34052   0.08324   0.00000  Uiso   1.00
H145465 H     0.49315   0.35751   0.61063   0.00000  Uiso   1.00
H146466 H     0.41534   0.36634   0.84163   0.00000  Uiso   1.00
H147467 H     0.44618   0.33874   0.82966   0.00000  Uiso   1.00
H148468 H     0.56539   0.43283   0.11123   0.00000  Uiso   1.00
H149469 H     0.57809   0.47608   0.87920   0.00000  Uiso   1.00
H150470 H     0.53241   0.53991   0.71675   0.00000  Uiso   1.00
H151471 H     0.56400   0.51325   0.72312   0.00000  Uiso   1.00
H152472 H     0.36287   0.41855   0.86202   0.00000  Uiso   1.00
H153473 H     0.39328   0.39064   0.86092   0.00000  Uiso   1.00
H154474 H     0.35228   0.45973   0.72918   0.00000  Uiso   1.00
H155475 H     0.36720   0.50501   0.50871   0.00000  Uiso   1.00
H156476 H     0.51214   0.56545   0.74467   0.00000  Uiso   1.00
H157477 H     0.48428   0.59576   0.77351   0.00000  Uiso   1.00
H158478 H     0.43897   0.57904   0.00230   0.00000  Uiso   1.00
H159479 H     0.48387   0.35492   0.11149   0.00000  Uiso   1.00
H160480 H     0.51382   0.38262   0.95812   0.00000  Uiso   1.00
H161481 H     0.50526   0.34298   0.95559   0.00000  Uiso   1.00
H162482 H     0.57977   0.42196   0.77367   0.00000  Uiso   1.00
H163483 H     0.57207   0.44481   0.60560   0.00000  Uiso   1.00
H164484 H     0.54027   0.41428   0.73490   0.00000  Uiso   1.00
H165485 H     0.45126   0.58348   0.48678   0.00000  Uiso   1.00
H166486 H     0.42950   0.59397   0.64850   0.00000  Uiso   1.00
H167487 H     0.42075   0.55427   0.63063   0.00000  Uiso   1.00
H168488 H     0.36324   0.49466   0.00342   0.00000  Uiso   1.00
H169489 H     0.34860   0.51368   0.84782   0.00000  Uiso   1.00
H170490 H     0.38954   0.52511   0.84800   0.00000  Uiso   1.00
N11491 N     0.29388   0.72396   0.23732   0.00000  Uiso   1.00
N12492 N     0.57128   0.27557   0.41844   0.00000  Uiso   1.00
C311493 C     0.06351   0.87911   0.57301   0.00000  Uiso   1.00
C312494 C     0.04115   0.87363   0.42363   0.00000  Uiso   1.00
C313495 C     0.02532   0.89110   0.41921   0.00000  Uiso   1.00
C314496 C     0.03223   0.91507   0.55707   0.00000  Uiso   1.00
C315497 C     0.05457   0.92037   0.70558   0.00000  Uiso   1.00
C316498 C     0.06986   0.90244   0.71580   0.00000  Uiso   1.00
C317499 C     0.01627   0.93395   0.54474   0.00000  Uiso   1.00
C318500 C     0.02977   0.96433   0.60657   0.00000  Uiso   1.00
N13501 N     0.98198   0.96912   0.59107   0.00000  Uiso   1.00
C319502 C     0.96725   0.98663   0.58178   0.00000  Uiso   1.00
C320503 C     0.31132   0.67879   0.74489   0.00000  Uiso   1.00
C321504 C     0.29773   0.64528   0.75374   0.00000  Uiso   1.00
C322505 C     0.29145   0.69392   0.74671   0.00000  Uiso   1.00
C323506 C     0.26231   0.68210   0.66174   0.00000  Uiso   1.00
C324507 C     0.24199   0.69651   0.67213   0.00000  Uiso   1.00
C325508 C     0.24520   0.71754   0.82287   0.00000  Uiso   1.00
C326509 C     0.22538   0.73085   0.83063   0.00000  Uiso   1.00
C327510 C     0.20192   0.72349   0.68508   0.00000  Uiso   1.00
C328511 C     0.19833   0.70220   0.53423   0.00000  Uiso   1.00
C329512 C     0.21798   0.68867   0.53074   0.00000  Uiso   1.00
C330513 C     0.14590   0.70222   0.93849   0.00000  Uiso   1.00
C331514 C     0.15502   0.72865   0.81361   0.00000  Uiso   1.00
C332515 C     0.13661   0.74444   0.81649   0.00000  Uiso   1.00
C333516 C     0.11008   0.73398   0.94805   0.00000  Uiso   1.00
C334517 C     0.10210   0.70764   0.06725   0.00000  Uiso   1.00
C335518 C     0.11972   0.69182   0.06106   0.00000  Uiso   1.00
C336519 C     0.14472   0.77027   0.68667   0.00000  Uiso   1.00
C337520 C     0.17091   0.78017   0.55619   0.00000  Uiso   1.00
C338521 C     0.18985   0.76486   0.55884   0.00000  Uiso   1.00
C339522 C     0.18191   0.73932   0.68584   0.00000  Uiso   1.00
C340523 C     0.21709   0.77650   0.43028   0.00000  Uiso   1.00
C341524 C     0.22412   0.80047   0.30166   0.00000  Uiso   1.00
C342525 C     0.20475   0.81519   0.29035   0.00000  Uiso   1.00
C343526 C     0.17854   0.80543   0.42181   0.00000  Uiso   1.00
C344527 C     0.09205   0.75085   0.95241   0.00000  Uiso   1.00
C345528 C     0.10034   0.77655   0.82121   0.00000  Uiso   1.00
C346529 C     0.12643   0.78626   0.68661   0.00000  Uiso   1.00
C347530 C     0.13428   0.81159   0.55535   0.00000  Uiso   1.00
C348531 C     0.16022   0.82116   0.41984   0.00000  Uiso   1.00
C349532 C     0.16810   0.84637   0.28570   0.00000  Uiso   1.00
C350533 C     0.19326   0.85435   0.15146   0.00000  Uiso   1.00
C351534 C     0.21123   0.83930   0.15385   0.00000  Uiso   1.00
C352535 C     0.08259   0.79291   0.82283   0.00000  Uiso   1.00
C353536 C     0.05655   0.78339   0.95550   0.00000  Uiso   1.00
C354537 C     0.04904   0.75815   0.08517   0.00000  Uiso   1.00
C355538 C     0.06640   0.74245   0.08358   0.00000  Uiso   1.00
C356539 C     0.09085   0.81880   0.69222   0.00000  Uiso   1.00
C357540 C     0.11647   0.82806   0.55807   0.00000  Uiso   1.00
C358541 C     0.12492   0.85414   0.42965   0.00000  Uiso   1.00
C359542 C     0.15065   0.86373   0.29301   0.00000  Uiso   1.00
C360543 C     0.03874   0.79985   0.95437   0.00000  Uiso   1.00
C361544 C     0.04687   0.82485   0.83196   0.00000  Uiso   1.00
C362545 C     0.07320   0.83544   0.69709   0.00000  Uiso   1.00
C363546 C     0.08163   0.86134   0.57227   0.00000  Uiso   1.00
C364547 C     0.10781   0.87117   0.43960   0.00000  Uiso   1.00
C365548 C     0.15901   0.89023   0.17484   0.00000  Uiso   1.00
C366549 C     0.14294   0.90747   0.18988   0.00000  Uiso   1.00
C367550 C     0.11767   0.89816   0.31842   0.00000  Uiso   1.00
C368551 C     0.17397   0.69471   0.37596   0.00000  Uiso   1.00
C369552 C     0.22970   0.75379   0.99007   0.00000  Uiso   1.00
C370553 C     0.09367   0.90853   0.87497   0.00000  Uiso   1.00
C371554 C     0.03512   0.84970   0.26707   0.00000  Uiso   1.00
H171555 H     0.00825   0.88681   0.30314   0.00000  Uiso   1.00
H172556 H     0.05974   0.93834   0.81617   0.00000  Uiso   1.00
H173557 H     0.99284   0.92309   0.47425   0.00000  Uiso   1.00
H174558 H     0.05417   0.97610   0.66269   0.00000  Uiso   1.00
C372559 C     0.26356   0.62422   0.75734   0.00000  Uiso   1.00
H175560 H     0.28154   0.58495   0.85696   0.00000  Uiso   1.00
H176561 H     0.25312   0.66083   0.57213   0.00000  Uiso   1.00
H177562 H     0.26307   0.72337   0.93661   0.00000  Uiso   1.00
H178563 H     0.21517   0.67237   0.41382   0.00000  Uiso   1.00
H179564 H     0.15982   0.69026   0.93604   0.00000  Uiso   1.00
H180565 H     0.08192   0.69893   0.16696   0.00000  Uiso   1.00
H181566 H     0.11279   0.67136   0.15463   0.00000  Uiso   1.00
H182567 H     0.23209   0.76570   0.43737   0.00000  Uiso   1.00
H183568 H     0.24478   0.80899   0.20559   0.00000  Uiso   1.00
H184569 H     0.19911   0.87289   0.04428   0.00000  Uiso   1.00
H185570 H     0.23074   0.84625   0.05036   0.00000  Uiso   1.00
H186571 H     0.02938   0.75104   0.18778   0.00000  Uiso   1.00
H187572 H     0.05987   0.72322   0.18671   0.00000  Uiso   1.00
H188573 H     0.01866   0.79213   0.05461   0.00000  Uiso   1.00
H189574 H     0.03357   0.83745   0.83457   0.00000  Uiso   1.00
H190575 H     0.17858   0.89820   0.07104   0.00000  Uiso   1.00
H191576 H     0.15053   0.92834   0.09927   0.00000  Uiso   1.00
H192577 H     0.10531   0.91163   0.32886   0.00000  Uiso   1.00
H193578 H     0.15047   0.68779   0.43684   0.00000  Uiso   1.00
H194579 H     0.18069   0.71550   0.28492   0.00000  Uiso   1.00
H195580 H     0.17190   0.67579   0.28183   0.00000  Uiso   1.00
H196581 H     0.24670   0.75505   0.09893   0.00000  Uiso   1.00
H197582 H     0.23847   0.77750   0.93057   0.00000  Uiso   1.00
H198583 H     0.20704   0.74705   0.06257   0.00000  Uiso   1.00
H199584 H     0.11739   0.91642   0.81408   0.00000  Uiso   1.00
H200585 H     0.09531   0.92651   0.97569   0.00000  Uiso   1.00
H201586 H     0.08704   0.88697   0.95758   0.00000  Uiso   1.00
H202587 H     0.02983   0.82701   0.32944   0.00000  Uiso   1.00
H203588 H     0.01539   0.84607   0.17287   0.00000  Uiso   1.00
H204589 H     0.05636   0.85764   0.17588   0.00000  Uiso   1.00
N14590 N     0.95869   0.05542   0.57025   0.00000  Uiso   1.00
N15591 N     0.23626   0.60653   0.75892   0.00000  Uiso   1.00
C373592 C     0.78869   0.52489   0.86235   0.00000  Uiso   1.00
C374593 C     0.79393   0.50830   0.71162   0.00000  Uiso   1.00
C375594 C     0.77591   0.47524   0.70652   0.00000  Uiso   1.00
C376595 C     0.75197   0.45824   0.84618   0.00000  Uiso   1.00
C377596 C     0.74695   0.47507   0.99591   0.00000  Uiso   1.00
C378597 C     0.76519   0.50808   0.00585   0.00000  Uiso   1.00
C379598 C     0.73352   0.42367   0.83449   0.00000  Uiso   1.00
C380599 C     0.70503   0.40541   0.92359   0.00000  Uiso   1.00
C381600 C     0.70134   0.35184   0.92009   0.00000  Uiso   1.00
C382601 C     0.68188   0.31821   0.92494   0.00000  Uiso   1.00
C383602 C     0.98521   0.96685   0.09400   0.00000  Uiso   1.00
C384603 C     0.01861   0.98794   0.09286   0.00000  Uiso   1.00
C385604 C     0.97121   0.93246   0.11205   0.00000  Uiso   1.00
C386605 C     0.98342   0.91565   0.02830   0.00000  Uiso   1.00
C387606 C     0.96957   0.88135   0.04605   0.00000  Uiso   1.00
C388607 C     0.94835   0.86390   0.19782   0.00000  Uiso   1.00
C389608 C     0.93510   0.83107   0.20975   0.00000  Uiso   1.00
C390609 C     0.94269   0.81505   0.06657   0.00000  Uiso   1.00
C391610 C     0.96422   0.83233   0.91494   0.00000  Uiso   1.00
C392611 C     0.97778   0.86524   0.90806   0.00000  Uiso   1.00
C393612 C     0.96264   0.77935   0.31941   0.00000  Uiso   1.00
C394613 C     0.93681   0.76285   0.18708   0.00000  Uiso   1.00
C395614 C     0.92140   0.72895   0.17669   0.00000  Uiso   1.00
C396615 C     0.93193   0.71227   0.30094   0.00000  Uiso   1.00
C397616 C     0.95763   0.72981   0.42840   0.00000  Uiso   1.00
C398617 C     0.97286   0.76302   0.43667   0.00000  Uiso   1.00
C399618 C     0.89603   0.71222   0.04030   0.00000  Uiso   1.00
C400619 C     0.88583   0.72908   0.91851   0.00000  Uiso   1.00
C401620 C     0.90073   0.76292   0.93429   0.00000  Uiso   1.00
C402621 C     0.92627   0.77953   0.06472   0.00000  Uiso   1.00
C403622 C     0.88882   0.77919   0.81526   0.00000  Uiso   1.00
C404623 C     0.86491   0.76324   0.68291   0.00000  Uiso   1.00
C405624 C     0.85092   0.72967   0.65620   0.00000  Uiso   1.00
C406625 C     0.86099   0.71256   0.77811   0.00000  Uiso   1.00
C407626 C     0.91580   0.67767   0.28929   0.00000  Uiso   1.00
C408627 C     0.89063   0.66129   0.15133   0.00000  Uiso   1.00
C409628 C     0.88069   0.67831   0.02524   0.00000  Uiso   1.00
C410629 C     0.85586   0.66189   0.88739   0.00000  Uiso   1.00
C411630 C     0.84606   0.67892   0.76042   0.00000  Uiso   1.00
C412631 C     0.82144   0.66268   0.61922   0.00000  Uiso   1.00
C413632 C     0.81315   0.68058   0.49488   0.00000  Uiso   1.00
C414633 C     0.82732   0.71319   0.51325   0.00000  Uiso   1.00
C415634 C     0.87492   0.62750   0.13790   0.00000  Uiso   1.00
C416635 C     0.88464   0.61027   0.26144   0.00000  Uiso   1.00
C417636 C     0.90948   0.62697   0.39723   0.00000  Uiso   1.00
C418637 C     0.92449   0.65974   0.41086   0.00000  Uiso   1.00
C419638 C     0.84938   0.61093   0.00161   0.00000  Uiso   1.00
C420639 C     0.83995   0.62793   0.87554   0.00000  Uiso   1.00
C421640 C     0.81432   0.61128   0.74056   0.00000  Uiso   1.00
C422641 C     0.80484   0.62810   0.61037   0.00000  Uiso   1.00
C423642 C     0.86870   0.57632   0.24572   0.00000  Uiso   1.00
C424643 C     0.84372   0.56038   0.11983   0.00000  Uiso   1.00
C425644 C     0.83297   0.57690   0.99411   0.00000  Uiso   1.00
C426645 C     0.80708   0.56043   0.86590   0.00000  Uiso   1.00
C427646 C     0.79750   0.57732   0.73807   0.00000  Uiso   1.00
C428647 C     0.77908   0.61077   0.48321   0.00000  Uiso   1.00
C429648 C     0.76221   0.57753   0.48468   0.00000  Uiso   1.00
C430649 C     0.77106   0.56094   0.60950   0.00000  Uiso   1.00
C431650 C     0.97163   0.81530   0.75868   0.00000  Uiso   1.00
C432651 C     0.91191   0.81255   0.36945   0.00000  Uiso   1.00
C433652 C     0.75946   0.52579   0.16543   0.00000  Uiso   1.00
C434653 C     0.81828   0.52623   0.55597   0.00000  Uiso   1.00
H205654 H     0.78009   0.46249   0.59075   0.00000  Uiso   1.00
H206655 H     0.72889   0.46230   0.10702   0.00000  Uiso   1.00
H207656 H     0.74341   0.41259   0.74103   0.00000  Uiso   1.00
H208657 H     0.69364   0.41661   0.00203   0.00000  Uiso   1.00
C435658 C     0.73568   0.36592   0.92292   0.00000  Uiso   1.00
C436659 C     0.04094   0.97650   0.10473   0.00000  Uiso   1.00
H209660 H     0.07946   0.03300   0.14839   0.00000  Uiso   1.00
H210661 H     0.00414   0.92767   0.93256   0.00000  Uiso   1.00
H211662 H     0.94216   0.87600   0.30803   0.00000  Uiso   1.00
H212663 H     0.99431   0.87850   0.79100   0.00000  Uiso   1.00
H213664 H     0.97419   0.80502   0.32720   0.00000  Uiso   1.00
H214665 H     0.96627   0.71786   0.52349   0.00000  Uiso   1.00
H215666 H     0.99278   0.77591   0.53673   0.00000  Uiso   1.00
H216667 H     0.89926   0.80465   0.83315   0.00000  Uiso   1.00
H217668 H     0.85603   0.77581   0.59494   0.00000  Uiso   1.00
H218669 H     0.79500   0.66876   0.38310   0.00000  Uiso   1.00
H219670 H     0.82012   0.72631   0.41731   0.00000  Uiso   1.00
H220671 H     0.91677   0.61386   0.49268   0.00000  Uiso   1.00
H221672 H     0.94338   0.67166   0.51838   0.00000  Uiso   1.00
H222673 H     0.87668   0.56342   0.33823   0.00000  Uiso   1.00
H223674 H     0.83133   0.53466   0.11203   0.00000  Uiso   1.00
H224675 H     0.77138   0.62291   0.38291   0.00000  Uiso   1.00
H225676 H     0.74191   0.56482   0.38712   0.00000  Uiso   1.00
H226677 H     0.75775   0.53518   0.61076   0.00000  Uiso   1.00
H227678 H     0.97865   0.79912   0.82132   0.00000  Uiso   1.00
H228679 H     0.95051   0.80096   0.66882   0.00000  Uiso   1.00
H229680 H     0.99068   0.83195   0.66316   0.00000  Uiso   1.00
H230681 H     0.90989   0.82816   0.47465   0.00000  Uiso   1.00
H231682 H     0.88818   0.79672   0.30952   0.00000  Uiso   1.00
H232683 H     0.91930   0.79770   0.44669   0.00000  Uiso   1.00
H233684 H     0.75228   0.54201   0.10490   0.00000  Uiso   1.00
H234685 H     0.74084   0.50964   0.26484   0.00000  Uiso   1.00
H235686 H     0.78122   0.54015   0.24980   0.00000  Uiso   1.00
H236687 H     0.84138   0.54307   0.61942   0.00000  Uiso   1.00
H237688 H     0.82144   0.51025   0.45959   0.00000  Uiso   1.00
H238689 H     0.81084   0.54002   0.46711   0.00000  Uiso   1.00
N16690 N     0.05950   0.96808   0.11212   0.00000  Uiso   1.00
C437691 C     0.45644   0.85917   0.17997   0.00000  Uiso   1.00
C438692 C     0.46172   0.84224   0.03173   0.00000  Uiso   1.00
C439693 C     0.44388   0.80914   0.03064   0.00000  Uiso   1.00
C440694 C     0.41997   0.79246   0.17110   0.00000  Uiso   1.00
C441695 C     0.41485   0.80966   0.31788   0.00000  Uiso   1.00
C442696 C     0.43299   0.84269   0.32435   0.00000  Uiso   1.00
C443697 C     0.40159   0.75785   0.16326   0.00000  Uiso   1.00
C444698 C     0.37299   0.73978   0.25169   0.00000  Uiso   1.00
C445699 C     0.36940   0.68624   0.25558   0.00000  Uiso   1.00
C446700 C     0.34999   0.65264   0.26449   0.00000  Uiso   1.00
C447701 C     0.65286   0.30121   0.42529   0.00000  Uiso   1.00
C448702 C     0.68628   0.32225   0.42436   0.00000  Uiso   1.00
C449703 C     0.63873   0.26678   0.44165   0.00000  Uiso   1.00
C450704 C     0.65082   0.24992   0.35709   0.00000  Uiso   1.00
C451705 C     0.63672   0.21557   0.37311   0.00000  Uiso   1.00
C452706 C     0.61524   0.19799   0.52356   0.00000  Uiso   1.00
C453707 C     0.60177   0.16512   0.53370   0.00000  Uiso   1.00
C454708 C     0.60943   0.14920   0.39021   0.00000  Uiso   1.00
C455709 C     0.63117   0.16658   0.23977   0.00000  Uiso   1.00
C456710 C     0.64493   0.19952   0.23459   0.00000  Uiso   1.00
C457711 C     0.62932   0.11350   0.64257   0.00000  Uiso   1.00
C458712 C     0.60359   0.09701   0.50957   0.00000  Uiso   1.00
C459713 C     0.58833   0.06313   0.49819   0.00000  Uiso   1.00
C460714 C     0.59891   0.04646   0.62217   0.00000  Uiso   1.00
C461715 C     0.62450   0.06399   0.75033   0.00000  Uiso   1.00
C462716 C     0.63959   0.09717   0.75956   0.00000  Uiso   1.00
C463717 C     0.56308   0.04643   0.36106   0.00000  Uiso   1.00
C464718 C     0.55280   0.06327   0.23973   0.00000  Uiso   1.00
C465719 C     0.56756   0.09709   0.25653   0.00000  Uiso   1.00
C466720 C     0.59301   0.11369   0.38747   0.00000  Uiso   1.00
C467721 C     0.55557   0.11334   0.13802   0.00000  Uiso   1.00
C468722 C     0.53171   0.09741   0.00534   0.00000  Uiso   1.00
C469723 C     0.51790   0.06388   0.97749   0.00000  Uiso   1.00
C470724 C     0.52806   0.04678   0.09875   0.00000  Uiso   1.00
C471725 C     0.58293   0.01187   0.60949   0.00000  Uiso   1.00
C472726 C     0.55791   0.99552   0.47057   0.00000  Uiso   1.00
C473727 C     0.54793   0.01254   0.34480   0.00000  Uiso   1.00
C474728 C     0.52320   0.99614   0.20624   0.00000  Uiso   1.00
C475729 C     0.51331   0.01317   0.07988   0.00000  Uiso   1.00
C476730 C     0.48878   0.99694   0.93820   0.00000  Uiso   1.00
C477731 C     0.48040   0.01485   0.81449   0.00000  Uiso   1.00
C478732 C     0.49439   0.04743   0.83399   0.00000  Uiso   1.00
C479733 C     0.54238   0.96176   0.45600   0.00000  Uiso   1.00
C480734 C     0.55210   0.94452   0.57956   0.00000  Uiso   1.00
C481735 C     0.57675   0.96120   0.71645   0.00000  Uiso   1.00
C482736 C     0.59161   0.99395   0.73106   0.00000  Uiso   1.00
C483737 C     0.51699   0.94521   0.31875   0.00000  Uiso   1.00
C484738 C     0.50748   0.96220   0.19315   0.00000  Uiso   1.00
C485739 C     0.48193   0.94555   0.05775   0.00000  Uiso   1.00
C486740 C     0.47232   0.96237   0.92838   0.00000  Uiso   1.00
C487741 C     0.53633   0.91060   0.56271   0.00000  Uiso   1.00
C488742 C     0.51151   0.89468   0.43575   0.00000  Uiso   1.00
C489743 C     0.50073   0.91119   0.31028   0.00000  Uiso   1.00
C490744 C     0.47488   0.89471   0.18182   0.00000  Uiso   1.00
C491745 C     0.46523   0.91159   0.05446   0.00000  Uiso   1.00
C492746 C     0.44654   0.94503   0.80135   0.00000  Uiso   1.00
C493747 C     0.42978   0.91179   0.80215   0.00000  Uiso   1.00
C494748 C     0.43877   0.89520   0.92606   0.00000  Uiso   1.00
C495749 C     0.63862   0.14964   0.08317   0.00000  Uiso   1.00
C496750 C     0.57841   0.14645   0.69226   0.00000  Uiso   1.00
C497751 C     0.42729   0.86079   0.48147   0.00000  Uiso   1.00
C498752 C     0.48595   0.85982   0.87471   0.00000  Uiso   1.00
H239753 H     0.44825   0.79610   0.91776   0.00000  Uiso   1.00
H240754 H     0.39680   0.79717   0.42947   0.00000  Uiso   1.00
H241755 H     0.41167   0.74656   0.07331   0.00000  Uiso   1.00
H242756 H     0.36147   0.75120   0.32633   0.00000  Uiso   1.00
C499757 C     0.40373   0.70029   0.25748   0.00000  Uiso   1.00
C500758 C     0.70857   0.31075   0.43403   0.00000  Uiso   1.00
H243759 H     0.74717   0.36719   0.48193   0.00000  Uiso   1.00
H244760 H     0.67162   0.26193   0.26192   0.00000  Uiso   1.00
H245761 H     0.60901   0.21001   0.63405   0.00000  Uiso   1.00
H246762 H     0.66163   0.21288   0.11849   0.00000  Uiso   1.00
H247763 H     0.64076   0.13916   0.65107   0.00000  Uiso   1.00
H248764 H     0.63318   0.05204   0.84520   0.00000  Uiso   1.00
H249765 H     0.65943   0.11006   0.86014   0.00000  Uiso   1.00
H250766 H     0.56589   0.13877   0.15673   0.00000  Uiso   1.00
H251767 H     0.52275   0.10996   0.91789   0.00000  Uiso   1.00
H252768 H     0.46231   0.00305   0.70231   0.00000  Uiso   1.00
H253769 H     0.48712   0.06055   0.73851   0.00000  Uiso   1.00
H254770 H     0.58403   0.94809   0.81201   0.00000  Uiso   1.00
H255771 H     0.61037   0.00584   0.83940   0.00000  Uiso   1.00
H256772 H     0.54430   0.89770   0.65516   0.00000  Uiso   1.00
H257773 H     0.49926   0.86898   0.42694   0.00000  Uiso   1.00
H258774 H     0.43872   0.95716   0.70179   0.00000  Uiso   1.00
H259775 H     0.40945   0.89908   0.70481   0.00000  Uiso   1.00
H260776 H     0.42555   0.86944   0.92690   0.00000  Uiso   1.00
H261777 H     0.64561   0.13340   0.14552   0.00000  Uiso   1.00
H262778 H     0.61753   0.13534   0.99303   0.00000  Uiso   1.00
H263779 H     0.65771   0.16632   0.98803   0.00000  Uiso   1.00
H264780 H     0.57512   0.16187   0.79266   0.00000  Uiso   1.00
H265781 H     0.55516   0.12953   0.63069   0.00000  Uiso   1.00
H266782 H     0.58655   0.13272   0.77549   0.00000  Uiso   1.00
H267783 H     0.42103   0.87754   0.41856   0.00000  Uiso   1.00
H268784 H     0.40809   0.84494   0.57865   0.00000  Uiso   1.00
H269785 H     0.44884   0.87463   0.56880   0.00000  Uiso   1.00
H270786 H     0.50911   0.87678   0.93679   0.00000  Uiso   1.00
H271787 H     0.48901   0.84364   0.77968   0.00000  Uiso   1.00
H272788 H     0.47841   0.87342   0.78469   0.00000  Uiso   1.00
N17789 N     0.72709   0.30225   0.43908   0.00000  Uiso   1.00
C501790 C     0.12091   0.19037   0.52392   0.00000  Uiso   1.00
C502791 C     0.12602   0.17374   0.37290   0.00000  Uiso   1.00
C503792 C     0.10800   0.14068   0.36822   0.00000  Uiso   1.00
C504793 C     0.08417   0.12372   0.50853   0.00000  Uiso   1.00
C505794 C     0.07921   0.14060   0.65822   0.00000  Uiso   1.00
C506795 C     0.09746   0.17361   0.66780   0.00000  Uiso   1.00
C507796 C     0.06580   0.08913   0.49770   0.00000  Uiso   1.00
C508797 C     0.03735   0.07087   0.58712   0.00000  Uiso   1.00
C509798 C     0.03383   0.01736   0.58643   0.00000  Uiso   1.00
C510799 C     0.01442   0.98374   0.59290   0.00000  Uiso   1.00
C511800 C     0.31792   0.63194   0.76129   0.00000  Uiso   1.00
C512801 C     0.35133   0.65300   0.76108   0.00000  Uiso   1.00
C513802 C     0.30404   0.59752   0.77687   0.00000  Uiso   1.00
C514803 C     0.31657   0.58106   0.69212   0.00000  Uiso   1.00
C515804 C     0.30311   0.54678   0.70805   0.00000  Uiso   1.00
C516805 C     0.28206   0.52903   0.85974   0.00000  Uiso   1.00
C517806 C     0.26901   0.49621   0.86963   0.00000  Uiso   1.00
C518807 C     0.27669   0.48052   0.72470   0.00000  Uiso   1.00
C519808 C     0.29811   0.49810   0.57331   0.00000  Uiso   1.00
C520809 C     0.31146   0.53100   0.56839   0.00000  Uiso   1.00
C521810 C     0.29679   0.44464   0.97451   0.00000  Uiso   1.00
C522811 C     0.27086   0.42823   0.84274   0.00000  Uiso   1.00
C523812 C     0.25526   0.39431   0.83261   0.00000  Uiso   1.00
C524813 C     0.26572   0.37754   0.95651   0.00000  Uiso   1.00
C525814 C     0.29152   0.39500   0.08350   0.00000  Uiso   1.00
C526815 C     0.30691   0.42821   0.09165   0.00000  Uiso   1.00
C527816 C     0.22970   0.37767   0.69727   0.00000  Uiso   1.00
C528817 C     0.21951   0.39463   0.57622   0.00000  Uiso   1.00
C529818 C     0.23462   0.42849   0.59180   0.00000  Uiso   1.00
C530819 C     0.26032   0.44501   0.72123   0.00000  Uiso   1.00
C531820 C     0.22267   0.44484   0.47402   0.00000  Uiso   1.00
C532821 C     0.19853   0.42897   0.34293   0.00000  Uiso   1.00
C533822 C     0.18432   0.39537   0.31639   0.00000  Uiso   1.00
C534823 C     0.19442   0.37818   0.43721   0.00000  Uiso   1.00
C535824 C     0.24935   0.34292   0.94544   0.00000  Uiso   1.00
C536825 C     0.22396   0.32662   0.80871   0.00000  Uiso   1.00
C537826 C     0.21408   0.34374   0.68298   0.00000  Uiso   1.00
C538827 C     0.18902   0.32739   0.54638   0.00000  Uiso   1.00
C539828 C     0.17924   0.34451   0.42001   0.00000  Uiso   1.00
C540829 C     0.15440   0.32833   0.28007   0.00000  Uiso   1.00
C541830 C     0.14607   0.34632   0.15669   0.00000  Uiso   1.00
C542831 C     0.16045   0.37895   0.17480   0.00000  Uiso   1.00
C543832 C     0.20793   0.29280   0.79632   0.00000  Uiso   1.00
C544833 C     0.21755   0.27546   0.91970   0.00000  Uiso   1.00
C545834 C     0.24264   0.29210   0.05407   0.00000  Uiso   1.00
C546835 C     0.25796   0.32490   0.06664   0.00000  Uiso   1.00
C547836 C     0.18217   0.27631   0.66127   0.00000  Uiso   1.00
C548837 C     0.17282   0.29341   0.53540   0.00000  Uiso   1.00
C549838 C     0.14702   0.27684   0.40145   0.00000  Uiso   1.00
C550839 C     0.13759   0.29375   0.27155   0.00000  Uiso   1.00
C551840 C     0.20124   0.24149   0.90532   0.00000  Uiso   1.00
C552841 C     0.17608   0.22564   0.78050   0.00000  Uiso   1.00
C553842 C     0.16547   0.24227   0.65471   0.00000  Uiso   1.00
C554843 C     0.13945   0.22590   0.52726   0.00000  Uiso   1.00
C555844 C     0.12998   0.24288   0.39953   0.00000  Uiso   1.00
C556845 C     0.11173   0.27649   0.14493   0.00000  Uiso   1.00
C557846 C     0.09469   0.24326   0.14674   0.00000  Uiso   1.00
C558847 C     0.10344   0.22659   0.27156   0.00000  Uiso   1.00
C559848 C     0.30557   0.48139   0.41505   0.00000  Uiso   1.00
C560849 C     0.24581   0.47738   0.02855   0.00000  Uiso   1.00
C561850 C     0.09173   0.19137   0.82714   0.00000  Uiso   1.00
C562851 C     0.15025   0.19162   0.21651   0.00000  Uiso   1.00
H273852 H     0.11211   0.12790   0.25235   0.00000  Uiso   1.00
H274853 H     0.06122   0.12787   0.76973   0.00000  Uiso   1.00
H275854 H     0.07575   0.07804   0.40486   0.00000  Uiso   1.00
H276855 H     0.02591   0.08208   0.66494   0.00000  Uiso   1.00
C563856 C     0.06818   0.03153   0.58924   0.00000  Uiso   1.00
C564857 C     0.37371   0.64162   0.77203   0.00000  Uiso   1.00
H277858 H     0.41217   0.69806   0.82178   0.00000  Uiso   1.00
H278859 H     0.33731   0.59339   0.59679   0.00000  Uiso   1.00
H279860 H     0.27578   0.54088   0.97119   0.00000  Uiso   1.00
H280861 H     0.32787   0.54451   0.45138   0.00000  Uiso   1.00
H281862 H     0.30845   0.47032   0.98221   0.00000  Uiso   1.00
H282863 H     0.30009   0.38296   0.17846   0.00000  Uiso   1.00
H283864 H     0.32687   0.44105   0.19154   0.00000  Uiso   1.00
H284865 H     0.23325   0.47032   0.49186   0.00000  Uiso   1.00
H285866 H     0.18963   0.44161   0.25588   0.00000  Uiso   1.00
H286867 H     0.12771   0.33454   0.04598   0.00000  Uiso   1.00
H287868 H     0.15320   0.39214   0.07973   0.00000  Uiso   1.00
H288869 H     0.24987   0.27891   0.14927   0.00000  Uiso   1.00
H289870 H     0.27705   0.33676   0.17308   0.00000  Uiso   1.00
H290871 H     0.20909   0.22850   0.99796   0.00000  Uiso   1.00
H291872 H     0.16343   0.19991   0.77366   0.00000  Uiso   1.00
H292873 H     0.10410   0.28870   0.04472   0.00000  Uiso   1.00
H293874 H     0.07433   0.23062   0.04948   0.00000  Uiso   1.00
H294875 H     0.08999   0.20083   0.27318   0.00000  Uiso   1.00
H295876 H     0.31257   0.46507   0.47574   0.00000  Uiso   1.00
H296877 H     0.28448   0.46725   0.32458   0.00000  Uiso   1.00
H297878 H     0.32465   0.49823   0.32044   0.00000  Uiso   1.00
H298879 H     0.24440   0.49280   0.13794   0.00000  Uiso   1.00
H299880 H     0.22188   0.46232   0.96871   0.00000  Uiso   1.00
H300881 H     0.25268   0.46172   0.10060   0.00000  Uiso   1.00
H301882 H     0.08357   0.20682   0.76665   0.00000  Uiso   1.00
H302883 H     0.07380   0.17521   0.92992   0.00000  Uiso   1.00
H303884 H     0.11371   0.20652   0.90762   0.00000  Uiso   1.00
H304885 H     0.17334   0.20863   0.27920   0.00000  Uiso   1.00
H305886 H     0.15346   0.17562   0.12070   0.00000  Uiso   1.00
H306887 H     0.14262   0.20521   0.12713   0.00000  Uiso   1.00
N18888 N     0.39243   0.63338   0.77893   0.00000  Uiso   1.00
loop_
_geom_bond_atom_site_label_1
_geom_bond_atom_site_label_2
_geom_bond_distance
_geom_bond_site_symmetry_2
_ccdc_geom_bond_type
C11    C22     1.412   .     D
C11    C5354   1.505   .     S
C11    C66     1.413   1_556 S
C22    C33     1.397   .     S
C22    C6162   1.502   .     S
C33    C44     1.407   .     D
C33    H163    1.088   .     S
C44    C77     1.461   .     S
C44    C55     1.407   1_556 S
C55    C66     1.398   .     D
C55    H264    1.088   .     S
C55    C44     1.407   1_554 S
C66    C6061   1.502   .     S
C66    C11     1.413   1_554 S
C77    C88     1.354   .     D
C77    H365    1.090   .     S
C88    C195304  1.470   .     S
C88    H466    1.089   1_556 S
C99    C1010   1.414   .     D
C99    C6267   1.440   .     S
C99    C195304  1.423   .     S
C1010  C380599  1.464   .     S
C1010  C381600  1.411   .     S
C1111  N112    1.355   .     D
C1111  C1213   1.465   .     S
C1111  C384603  1.424   1_545 S
N112   C196305  1.358   1_455 S
C1213  C1314   1.353   .     D
C1213  H209660  1.089   .     S
C1314  C1415   1.467   .     S
C1314  H669    1.091   1_554 S
C1415  C1516   1.408   .     D
C1415  C1920   1.407   1_554 S
C1516  C1617   1.398   .     S
C1516  H770    1.088   .     S
C1617  C1718   1.412   .     D
C1617  C5960   1.501   .     S
C1718  C2930   1.506   .     S
C1718  C1819   1.412   1_554 S
C1819  C1920   1.399   .     D
C1819  C5859   1.503   .     S
C1819  C1718   1.412   1_556 S
C1920  H871    1.087   .     S
C1920  C1415   1.407   1_556 S
C2021  C2122   1.420   .     D
C2021  C2526   1.383   .     S
C2021  H972    1.086   .     S
C2122  C2223   1.436   .     S
C2122  C2930   1.429   .     S
C2223  C2324   1.434   .     D
C2223  C2627   1.427   .     S
C2324  C2425   1.403   .     S
C2324  C3435   1.464   .     S
C2425  C2526   1.403   .     D
C2425  H1073   1.086   .     S
C2526  H1174   1.088   .     S
C2627  C3637   1.438   .     S
C2627  C2728   1.420   1_554 D
C2728  C2829   1.438   .     S
C2728  C3334   1.429   .     S
C2728  C2627   1.420   1_556 D
C2829  C3031   1.441   .     S
C2829  C2930   1.405   1_556 D
C2930  C2829   1.405   1_554 D
C3031  C3132   1.363   .     D
C3031  H1275   1.087   .     S
C3132  C3233   1.435   .     S
C3132  H1376   1.088   .     S
C3233  C3334   1.425   .     D
C3233  C4142   1.409   .     S
C3334  C3839   1.429   .     S
C3435  C3536   1.426   .     D
C3435  C4546   1.413   .     S
C3536  C3637   1.435   .     S
C3536  C4243   1.431   .     S
C3637  C3738   1.416   1_554 D
C3738  C3839   1.435   .     S
C3738  C4748   1.438   .     S
C3738  C3637   1.416   1_556 D
C3839  C3940   1.425   .     D
C3940  C4041   1.412   .     S
C3940  C4950   1.461   .     S
C4041  C4142   1.386   .     D
C4041  H1477   1.086   .     S
C4142  H1578   1.087   .     S
C4243  C4344   1.426   .     D
C4243  C4647   1.431   1_554 S
C4344  C4445   1.410   .     S
C4344  C5051   1.437   .     S
C4445  C4546   1.387   .     D
C4445  H1679   1.088   .     S
C4546  H1780   1.087   .     S
C4647  C4748   1.420   .     D
C4647  C5253   1.439   .     S
C4647  C4243   1.431   1_556 S
C4748  C4849   1.427   .     S
C4849  C4950   1.433   .     S
C4849  C5455   1.434   .     D
C4950  C5556   1.401   .     D
C5051  C5152   1.365   .     D
C5051  H1881   1.089   .     S
C5152  H1982   1.087   .     S
C5152  C5253   1.440   1_554 S
C5253  C5354   1.405   .     D
C5253  C5152   1.440   1_556 S
C5354  C5455   1.429   .     S
C5455  C5758   1.421   .     S
C5556  C5657   1.401   .     S
C5556  H2083   1.086   .     S
C5657  C5758   1.382   .     D
C5657  H2184   1.087   .     S
C5758  H2285   1.086   .     S
C5859  H2386   1.089   .     S
C5859  H2487   1.092   .     S
C5859  H2588   1.088   .     S
C5960  H2689   1.087   .     S
C5960  H2790   1.091   .     S
C5960  H2891   1.089   .     S
C6061  H2992   1.091   .     S
C6061  H3093   1.087   .     S
C6061  H3194   1.089   .     S
C6162  H3295   1.090   .     S
C6162  H3396   1.088   .     S
C6162  H3497   1.091   .     S
H466   C88     1.089   1_554 S
C6267  N8392   1.157   .     T
H568   C198307  1.089   .     S
H669   C1314   1.091   1_556 S
N298   C435658  1.157   .     T
C6399  C64100  1.412   .     S
C6399  C68104  1.413   .     D
C6399  C115152  1.504   .     S
C64100 C65101  1.397   .     D
C64100 C123160  1.502   1_554 S
C65101 C66102  1.407   .     S
C65101 H35161  1.088   1_554 S
C66102 C67103  1.408   .     D
C66102 C69105  1.462   .     S
C67103 C68104  1.398   .     S
C67103 H36162  1.088   .     S
C68104 C122159  1.502   .     S
C69105 C70106  1.354   .     D
C69105 H37163  1.090   .     S
C70106 H38164  1.089   .     S
C70106 C257403  1.470   .     S
C71107 C72108  1.415   .     S
C71107 C124165  1.440   .     S
C71107 C257403  1.423   .     D
C72108 C444698  1.464   .     S
C72108 C445699  1.412   .     D
C73109 N3110   1.355   .     S
C73109 C74111  1.465   .     S
C73109 C448702  1.424   .     D
N3110  C258404  1.357   .     D
C74111 C75112  1.353   .     D
C74111 H243759  1.089   .     S
C75112 C76113  1.467   .     S
C75112 H40167  1.091   .     S
C76113 C77114  1.408   .     S
C76113 C81118  1.407   .     D
C77114 C78115  1.397   .     D
C77114 H41168  1.088   .     S
C78115 C79116  1.412   .     S
C78115 C121158  1.501   .     S
C79116 C80117  1.412   .     D
C79116 C91128  1.506   .     S
C80117 C81118  1.399   .     S
C80117 C120157  1.503   .     S
C81118 H42169  1.087   .     S
C82119 C83120  1.420   .     D
C82119 C87124  1.383   .     S
C82119 H43170  1.086   .     S
C83120 C84121  1.436   .     S
C83120 C91128  1.429   .     S
C84121 C85122  1.434   .     D
C84121 C88125  1.427   .     S
C85122 C86123  1.403   .     S
C85122 C96133  1.464   .     S
C86123 C87124  1.403   .     D
C86123 H44171  1.086   .     S
C87124 H45172  1.088   .     S
C88125 C89126  1.420   .     S
C88125 C98135  1.438   .     D
C89126 C90127  1.438   .     S
C89126 C95132  1.429   .     D
C90127 C91128  1.405   .     D
C90127 C92129  1.441   .     S
C92129 H46173  1.087   .     S
C92129 C93130  1.363   1_554 D
C93130 C94131  1.435   .     S
C93130 H47174  1.087   .     S
C93130 C92129  1.363   1_556 D
C94131 C103140  1.409   .     D
C94131 C95132  1.425   1_556 S
C95132 C100137  1.429   .     S
C95132 C94131  1.425   1_554 S
C96133 C97134  1.426   1_655 D
C96133 C107144  1.413   1_655 S
C97134 C104141  1.431   .     S
C97134 C96133  1.426   1_455 D
C97134 C98135  1.435   1_455 S
C98135 C97134  1.435   1_655 S
C98135 C99136  1.417   1_655 S
C99136 C109146  1.438   .     S
C99136 C98135  1.417   1_455 S
C99136 C100137  1.435   1_455 D
C100137 C99136  1.435   1_655 D
C100137 C101138  1.425   1_654 S
C101138 C111148  1.461   .     S
C101138 C100137  1.425   1_456 S
C101138 C102139  1.413   1_455 D
C102139 C103140  1.386   .     S
C102139 C101138  1.413   1_655 D
C102139 H48175  1.086   1_655 S
C103140 H49176  1.087   .     S
C104141 C105142  1.426   .     D
C104141 C108145  1.431   .     S
C105142 C106143  1.410   .     S
C105142 C112149  1.437   .     S
C106143 C107144  1.387   .     D
C106143 H50177  1.088   .     S
C107144 C96133  1.413   1_455 S
C107144 H51178  1.086   1_455 S
C108145 C109146  1.419   .     S
C108145 C114151  1.440   .     D
C109146 C110147  1.427   .     D
C110147 C116153  1.434   .     S
C110147 C111148  1.432   1_554 S
C111148 C117154  1.402   .     D
C111148 C110147  1.432   1_556 S
C112149 C113150  1.365   .     D
C112149 H52179  1.089   .     S
C113150 C114151  1.440   .     S
C113150 H53180  1.087   .     S
C114151 C115152  1.405   .     S
C115152 C116153  1.429   .     D
C116153 C119156  1.421   1_554 S
C117154 C118155  1.402   .     S
C117154 H54181  1.086   .     S
C118155 C119156  1.382   .     D
C118155 H55182  1.087   .     S
C119156 H56183  1.086   .     S
C119156 C116153  1.421   1_556 S
C120157 H57184  1.090   .     S
C120157 H58185  1.091   1_554 S
C120157 H59186  1.088   1_554 S
C121158 H60187  1.087   .     S
C121158 H61188  1.091   .     S
C121158 H62189  1.089   .     S
C122159 H63190  1.091   .     S
C122159 H64191  1.086   .     S
C122159 H65192  1.090   .     S
C123160 H66193  1.090   .     S
C123160 H67194  1.088   .     S
C123160 H68195  1.091   .     S
C123160 C64100  1.502   1_556 S
H35161 C65101  1.088   1_556 S
C124165 N11491  1.157   .     T
H39166 C260406  1.089   .     S
H48175 C102139  1.086   1_455 S
H51178 C107144  1.086   1_655 S
H58185 C120157  1.091   1_556 S
H59186 C120157  1.088   1_556 S
N4196  C499757  1.157   .     T
C125197 C126198  1.412   .     S
C125197 C130202  1.413   .     D
C125197 C177250  1.505   .     S
C126198 C127199  1.397   .     D
C126198 C185258  1.502   .     S
C127199 C128200  1.407   .     S
C127199 H69259  1.088   .     S
C128200 C129201  1.408   .     D
C128200 C131203  1.461   .     S
C129201 C130202  1.398   .     S
C129201 H70260  1.088   .     S
C130202 C184257  1.502   .     S
C131203 C132204  1.354   .     D
C131203 H71261  1.090   .     S
C132204 H72262  1.089   .     S
C132204 C319502  1.470   .     S
C133205 C186263  1.440   .     S
C133205 C134206  1.414   1_655 D
C133205 C319502  1.423   1_545 S
C134206 C508797  1.464   .     S
C134206 C509798  1.412   .     S
C134206 C133205  1.414   1_455 D
C135207 N5208   1.355   .     S
C135207 C136209  1.465   .     S
C135207 C512801  1.423   .     D
N5208  C320503  1.358   .     D
C136209 C137210  1.353   .     D
C136209 H277858  1.089   .     S
C137210 C138211  1.466   .     S
C137210 H74265  1.091   .     S
C138211 C139212  1.408   .     D
C138211 C143216  1.407   .     S
C139212 C140213  1.397   .     S
C139212 H75266  1.089   .     S
C140213 C141214  1.412   .     D
C140213 C183256  1.500   1_556 S
C141214 C142215  1.412   .     S
C141214 C153226  1.505   .     S
C142215 C143216  1.399   .     D
C142215 C182255  1.502   .     S
C143216 H76267  1.087   .     S
C144217 C145218  1.420   .     S
C144217 H77268  1.086   .     S
C144217 C149222  1.383   1_556 D
C145218 C146219  1.436   .     D
C145218 C153226  1.429   .     S
C146219 C147220  1.434   .     S
C146219 C150223  1.427   .     S
C147220 C158231  1.464   .     S
C147220 C148221  1.403   1_556 D
C148221 C149222  1.403   .     S
C148221 H78269  1.086   .     S
C148221 C147220  1.403   1_554 D
C149222 H79270  1.088   .     S
C149222 C144217  1.383   1_554 D
C150223 C151224  1.420   .     S
C150223 C160233  1.439   .     D
C151224 C152225  1.438   .     S
C151224 C157230  1.429   .     D
C152225 C153226  1.405   .     D
C152225 C154227  1.441   .     S
C154227 C155228  1.363   .     D
C154227 H80271  1.087   .     S
C155228 C156229  1.435   .     S
C155228 H81272  1.088   .     S
C156229 C157230  1.425   .     S
C156229 C165238  1.409   .     D
C157230 C162235  1.429   .     S
C158231 C159232  1.426   .     S
C158231 C169242  1.413   1_556 D
C159232 C160233  1.435   .     S
C159232 C166239  1.431   .     D
C160233 C161234  1.416   .     S
C161234 C162235  1.435   .     D
C161234 C171244  1.438   .     S
C162235 C163236  1.425   .     S
C163236 C164237  1.412   .     D
C163236 C173246  1.461   .     S
C164237 C165238  1.386   .     S
C164237 H82273  1.086   .     S
C165238 H83274  1.088   .     S
C166239 C167240  1.426   .     S
C166239 C170243  1.431   .     S
C167240 C174247  1.437   .     S
C167240 C168241  1.409   1_556 D
C168241 C169242  1.387   .     S
C168241 H84275  1.088   .     S
C168241 C167240  1.409   1_554 D
C169242 H85276  1.087   .     S
C169242 C158231  1.413   1_554 D
C170243 C171244  1.420   .     D
C170243 C176249  1.439   .     S
C171244 C172245  1.427   .     S
C172245 C173246  1.433   .     D
C172245 C178251  1.434   .     S
C173246 C179252  1.401   .     S
C174247 C175248  1.364   .     D
C174247 H86277  1.089   1_556 S
C175248 C176249  1.441   .     S
C175248 H87278  1.087   .     S
C176249 C177250  1.405   .     D
C177250 C178251  1.429   .     S
C178251 C181254  1.420   .     D
C179252 C180253  1.401   .     D
C179252 H88279  1.086   .     S
C180253 C181254  1.383   .     S
C180253 H89280  1.087   .     S
C181254 H90281  1.087   .     S
C182255 H91282  1.089   .     S
C182255 H92283  1.091   .     S
C182255 H93284  1.088   .     S
C183256 H94285  1.087   .     S
C183256 H96287  1.090   .     S
C183256 C140213  1.500   1_554 S
C183256 H95286  1.091   1_554 S
C184257 H97288  1.091   .     S
C184257 H98289  1.087   .     S
C184257 H99290  1.090   .     S
C185258 H100291  1.089   .     S
C185258 H101292  1.088   .     S
C185258 H102293  1.091   .     S
C186263 N14590  1.157   .     T
H73264 C322505  1.089   .     S
H86277 C174247  1.089   1_554 S
H95286 C183256  1.091   1_556 S
N6294  C563856  1.157   .     T
C187295 C188296  1.411   .     D
C187295 C239348  1.506   .     S
C187295 C192300  1.412   1_556 S
C188296 C189297  1.398   .     S
C188296 C247356  1.502   .     S
C189297 C190298  1.406   .     D
C189297 H103357  1.087   .     S
C190298 C193301  1.466   .     S
C190298 C191299  1.409   1_556 S
C191299 C192300  1.398   .     D
C191299 H104358  1.088   .     S
C191299 C190298  1.409   1_554 S
C192300 C246355  1.501   .     S
C192300 C187295  1.412   1_554 S
C193301 C194302  1.353   .     D
C193301 H105359  1.091   .     S
C194302 H106360  1.088   .     S
C194302 C382601  1.465   .     S
N7303  C195304  1.357   .     D
N7303  C382601  1.356   .     S
C196305 C198307  1.471   .     S
C196305 N112    1.358   1_655 S
C196305 C197306  1.423   1_545 D
C197306 C248361  1.440   .     S
C197306 C383602  1.415   .     S
C197306 C196305  1.423   1_565 D
C198307 C199308  1.354   1_554 D
C199308 C198307  1.354   1_556 D
C199308 C200309  1.464   1_556 S
C199308 H108363  1.090   1_545 S
C200309 C201310  1.407   .     S
C200309 C199308  1.464   1_554 S
C200309 C205314  1.408   1_554 D
C201310 C202311  1.398   .     D
C201310 H109364  1.088   .     S
C202311 C203312  1.412   .     S
C202311 C245354  1.501   .     S
C203312 C215324  1.506   .     S
C203312 C204313  1.412   1_554 D
C204313 C205314  1.398   .     S
C204313 C244353  1.503   .     S
C204313 C203312  1.412   1_556 D
C205314 H110365  1.088   .     S
C205314 C200309  1.408   1_556 D
C206315 C207316  1.420   .     D
C206315 C211320  1.383   .     S
C206315 H111366  1.087   .     S
C207316 C208317  1.436   .     S
C207316 C215324  1.429   .     S
C208317 C209318  1.434   .     D
C208317 C212321  1.427   .     S
C209318 C210319  1.403   .     S
C209318 C220329  1.464   .     S
C210319 C211320  1.403   .     D
C210319 H112367  1.086   .     S
C211320 H113368  1.088   .     S
C212321 C222331  1.438   .     S
C212321 C213322  1.420   1_554 D
C213322 C214323  1.438   .     S
C213322 C219328  1.430   .     S
C213322 C212321  1.420   1_556 D
C214323 C216325  1.441   .     S
C214323 C215324  1.406   1_556 D
C215324 C214323  1.406   1_554 D
C216325 C217326  1.363   .     D
C216325 H114369  1.087   .     S
C217326 C218327  1.435   .     S
C217326 H115370  1.087   .     S
C218327 C219328  1.425   .     D
C218327 C227336  1.409   .     S
C219328 C224333  1.429   .     S
C220329 C221330  1.426   .     D
C220329 C231340  1.413   .     S
C221330 C222331  1.435   .     S
C221330 C228337  1.431   .     S
C222331 C223332  1.416   1_554 D
C223332 C224333  1.435   .     S
C223332 C233342  1.438   .     S
C223332 C222331  1.416   1_556 D
C224333 C225334  1.425   .     D
C225334 C226335  1.412   .     S
C225334 C235344  1.461   .     S
C226335 C227336  1.386   .     D
C226335 H116371  1.086   .     S
C227336 H117372  1.088   .     S
C228337 C229338  1.426   .     D
C228337 C232341  1.431   .     S
C229338 C230339  1.409   .     S
C229338 C236345  1.437   .     S
C230339 C231340  1.387   .     D
C230339 H118373  1.088   .     S
C231340 H119374  1.086   .     S
C232341 C238347  1.440   .     D
C232341 C233342  1.419   1_554 S
C233342 C234343  1.427   .     D
C233342 C232341  1.419   1_556 S
C234343 C235344  1.432   .     S
C234343 C240349  1.434   .     S
C235344 C241350  1.402   .     D
C236345 C237346  1.365   .     D
C236345 H120375  1.089   .     S
C237346 C238347  1.440   .     S
C237346 H121376  1.087   .     S
C238347 C239348  1.405   1_554 S
C239348 C240349  1.429   .     D
C239348 C238347  1.405   1_556 S
C240349 C243352  1.421   .     S
C241350 C242351  1.402   .     S
C241350 H122377  1.086   .     S
C242351 C243352  1.383   .     D
C242351 H123378  1.087   .     S
C243352 H124379  1.086   .     S
C244353 H125380  1.090   .     S
C244353 H126381  1.091   .     S
C244353 H127382  1.088   .     S
C245354 H128383  1.086   .     S
C245354 H129384  1.091   .     S
C245354 H130385  1.090   .     S
C246355 H131386  1.090   .     S
C246355 H132387  1.086   .     S
C246355 H133388  1.091   .     S
C247356 H134389  1.090   .     S
C247356 H135390  1.088   .     S
C247356 H136391  1.092   .     S
C248361 N9393   1.157   .     T
H107362 C385604  1.090   .     S
H108363 C199308  1.090   1_565 S
C249394 C250395  1.412   .     D
C249394 C254399  1.412   .     S
C249394 C301447  1.505   .     S
C250395 C251396  1.398   .     S
C250395 C309455  1.502   1_554 S
C251396 C252397  1.406   .     D
C251396 H137456  1.087   1_554 S
C252397 C253398  1.408   .     S
C252397 C255400  1.465   .     S
C253398 C254399  1.398   .     D
C253398 H138457  1.088   .     S
C254399 C308454  1.501   .     S
C255400 C256401  1.353   .     D
C255400 H139458  1.091   .     S
C256401 H140459  1.088   .     S
C256401 C446700  1.465   .     S
N10402 C257403  1.356   .     S
N10402 C446700  1.355   .     D
C258404 C259405  1.424   .     S
C258404 C260406  1.471   .     S
C259405 C310460  1.440   .     S
C259405 C447701  1.414   .     D
C260406 C261407  1.354   .     D
C261407 C262408  1.464   .     S
C261407 H142462  1.090   .     S
C262408 C263409  1.407   .     D
C262408 C267413  1.407   .     S
C263409 C264410  1.398   .     S
C263409 H143463  1.088   .     S
C264410 C265411  1.413   .     D
C264410 C307453  1.501   .     S
C265411 C266412  1.413   .     S
C265411 C277423  1.506   .     S
C266412 C267413  1.398   .     D
C266412 C306452  1.503   .     S
C267413 H144464  1.088   .     S
C268414 C269415  1.420   .     D
C268414 C273419  1.383   .     S
C268414 H145465  1.087   .     S
C269415 C270416  1.436   .     S
C269415 C277423  1.429   .     S
C270416 C271417  1.433   .     S
C270416 C274420  1.427   .     D
C271417 C272418  1.402   .     S
C271417 C282428  1.465   .     D
C272418 C273419  1.404   .     D
C272418 H146466  1.086   .     S
C273419 H147467  1.088   .     S
C274420 C275421  1.420   .     S
C274420 C284430  1.439   .     S
C275421 C276422  1.438   .     S
C275421 C281427  1.430   .     D
C276422 C277423  1.405   .     D
C276422 C278424  1.441   .     S
C278424 H148468  1.087   .     S
C278424 C279425  1.363   1_554 D
C279425 C280426  1.435   .     S
C279425 H149469  1.088   .     S
C279425 C278424  1.363   1_556 D
C280426 C289435  1.409   .     D
C280426 C281427  1.425   1_556 S
C281427 C286432  1.429   .     S
C281427 C280426  1.425   1_554 S
C282428 C283429  1.426   .     S
C282428 C293439  1.413   .     S
C283429 C284430  1.435   .     D
C283429 C290436  1.431   .     S
C284430 C285431  1.416   .     S
C285431 C286432  1.435   .     D
C285431 C295441  1.438   .     S
C286432 C287433  1.425   1_554 S
C287433 C288434  1.412   .     D
C287433 C297443  1.461   .     S
C287433 C286432  1.425   1_556 S
C288434 C289435  1.386   .     S
C288434 H150470  1.086   .     S
C289435 H151471  1.087   .     S
C290436 C291437  1.426   .     S
C290436 C294440  1.430   .     D
C291437 C292438  1.409   .     S
C291437 C298444  1.437   .     D
C292438 C293439  1.387   .     D
C292438 H152472  1.088   .     S
C293439 H153473  1.086   .     S
C294440 C295441  1.419   .     S
C294440 C300446  1.440   .     S
C295441 C296442  1.427   .     D
C296442 C302448  1.434   .     S
C296442 C297443  1.433   1_554 S
C297443 C303449  1.401   .     D
C297443 C296442  1.433   1_556 S
C298444 C299445  1.365   .     S
C298444 H154474  1.089   .     S
C299445 C300446  1.440   .     D
C299445 H155475  1.087   .     S
C300446 C301447  1.405   .     S
C301447 C302448  1.429   .     D
C302448 C305451  1.421   1_554 S
C303449 C304450  1.402   .     S
C303449 H156476  1.086   .     S
C304450 C305451  1.383   .     D
C304450 H157477  1.087   .     S
C305451 C302448  1.421   1_556 S
C305451 H158478  1.087   1_556 S
C306452 H159479  1.090   .     S
C306452 H160480  1.091   1_554 S
C306452 H161481  1.088   1_554 S
C307453 H162482  1.086   .     S
C307453 H163483  1.091   .     S
C307453 H164484  1.090   .     S
C308454 H165485  1.091   .     S
C308454 H166486  1.087   .     S
C308454 H167487  1.090   .     S
C309455 H169489  1.088   .     S
C309455 H170490  1.092   .     S
C309455 C250395  1.502   1_556 S
C309455 H168488  1.090   1_556 S
H137456 C251396  1.087   1_556 S
C310460 N12492  1.157   .     T
H141461 C449703  1.089   .     S
H158478 C305451  1.087   1_554 S
H160480 C306452  1.091   1_556 S
H161481 C306452  1.088   1_556 S
H168488 C309455  1.090   1_554 S
C311493 C312494  1.411   .     S
C311493 C316498  1.412   .     D
C311493 C363546  1.506   .     S
C312494 C313495  1.398   .     D
C312494 C371554  1.502   .     S
C313495 C314496  1.406   .     S
C313495 H171555  1.087   .     S
C314496 C315497  1.408   .     D
C314496 C317499  1.467   .     S
C315497 C316498  1.398   .     S
C315497 H172556  1.088   .     S
C316498 C370553  1.501   .     S
C317499 C318500  1.352   .     D
C317499 H173557  1.091   1_455 S
C318500 H174558  1.088   .     S
C318500 C510799  1.466   .     S
N13501 C319502  1.356   .     D
N13501 C510799  1.355   1_655 S
C319502 C133205  1.423   1_565 S
C320503 C321504  1.424   .     S
C320503 C322505  1.471   .     S
C321504 C372559  1.440   .     S
C321504 C511800  1.415   .     D
C322505 C323506  1.354   .     D
C323506 C324507  1.464   .     S
C323506 H176561  1.090   .     S
C324507 C325508  1.408   .     S
C324507 C329512  1.407   .     D
C325508 C326509  1.398   .     D
C325508 H177562  1.088   .     S
C326509 C327510  1.413   .     S
C326509 C369552  1.501   .     S
C327510 C328511  1.412   .     D
C327510 C339522  1.506   .     S
C328511 C329512  1.398   .     S
C328511 C368551  1.503   .     S
C329512 H178563  1.088   .     S
C330513 C331514  1.420   .     S
C330513 H179564  1.086   .     S
C330513 C335518  1.383   1_556 D
C331514 C332515  1.435   .     D
C331514 C339522  1.429   .     S
C332515 C333516  1.433   .     S
C332515 C336519  1.426   .     S
C333516 C344527  1.464   .     S
C333516 C334517  1.403   1_556 D
C334517 C335518  1.404   .     S
C334517 H180565  1.086   .     S
C334517 C333516  1.403   1_554 D
C335518 H181566  1.087   .     S
C335518 C330513  1.383   1_554 D
C336519 C337520  1.420   .     D
C336519 C346529  1.438   .     S
C337520 C338521  1.438   .     S
C337520 C343526  1.430   .     S
C338521 C339522  1.405   .     D
C338521 C340523  1.441   .     S
C340523 C341524  1.363   .     D
C340523 H182567  1.087   .     S
C341524 C342525  1.435   .     S
C341524 H183568  1.088   .     S
C342525 C343526  1.425   .     S
C342525 C351534  1.409   .     D
C343526 C348531  1.429   .     D
C344527 C345528  1.426   .     S
C344527 C355538  1.413   1_556 D
C345528 C346529  1.435   .     S
C345528 C352535  1.431   .     D
C346529 C347530  1.417   .     D
C347530 C348531  1.435   .     S
C347530 C357540  1.438   .     S
C348531 C349532  1.425   .     S
C349532 C350533  1.413   .     D
C349532 C359542  1.461   .     S
C350533 C351534  1.386   .     S
C350533 H184569  1.086   .     S
C351534 H185570  1.088   .     S
C352535 C353536  1.426   .     S
C352535 C356539  1.431   .     S
C353536 C360543  1.438   .     S
C353536 C354537  1.409   1_556 D
C354537 C355538  1.387   .     S
C354537 H186571  1.088   .     S
C354537 C353536  1.409   1_554 D
C355538 H187572  1.087   .     S
C355538 C344527  1.413   1_554 D
C356539 C357540  1.420   .     S
C356539 C362545  1.439   .     D
C357540 C358541  1.427   .     D
C358541 C359542  1.433   .     S
C358541 C364547  1.434   .     S
C359542 C365548  1.401   .     D
C360543 C361544  1.365   .     D
C360543 H188573  1.089   1_556 S
C361544 C362545  1.440   .     S
C361544 H189574  1.087   .     S
C362545 C363546  1.405   .     S
C363546 C364547  1.429   .     D
C364547 C367550  1.421   .     S
C365548 C366549  1.402   .     S
C365548 H190575  1.086   .     S
C366549 C367550  1.383   .     D
C366549 H191576  1.087   .     S
C367550 H192577  1.087   .     S
C368551 H193578  1.090   .     S
C368551 H194579  1.091   .     S
C368551 H195580  1.088   .     S
C369552 H197582  1.091   .     S
C369552 H196581  1.087   1_556 S
C369552 H198583  1.090   1_556 S
C370553 H199584  1.090   .     S
C370553 H200585  1.086   .     S
C370553 H201586  1.091   .     S
C371554 H202587  1.089   .     S
C371554 H203588  1.088   .     S
C371554 H204589  1.092   .     S
H173557 C317499  1.091   1_655 S
C372559 N15591  1.157   .     T
H175560 C513802  1.090   .     S
H188573 C360543  1.089   1_554 S
H196581 C369552  1.087   1_554 S
H198583 C369552  1.090   1_554 S
C373592 C374593  1.410   .     D
C373592 C426645  1.499   .     S
C373592 C378597  1.411   1_556 S
C374593 C375594  1.396   .     S
C374593 C434653  1.501   .     S
C375594 C376595  1.406   .     D
C375594 H205654  1.086   .     S
C376595 C377596  1.408   .     S
C376595 C379598  1.461   .     S
C377596 C378597  1.396   1_556 D
C377596 H206655  1.087   1_556 S
C378597 C433652  1.501   .     S
C378597 C373592  1.411   1_554 S
C378597 C377596  1.396   1_554 D
C379598 C380599  1.352   .     D
C379598 H207656  1.089   .     S
C380599 H208657  1.089   1_556 S
C381600 C382601  1.424   .     D
C381600 C435658  1.440   .     S
C383602 C385604  1.465   .     S
C383602 C384603  1.411   1_655 D
C384603 C436659  1.440   .     S
C384603 C1111   1.424   1_565 S
C384603 C383602  1.411   1_455 D
C385604 C386605  1.352   .     D
C386605 C387606  1.461   .     S
C386605 H210661  1.089   1_654 S
C387606 C388607  1.407   .     D
C387606 C392611  1.406   1_554 S
C388607 C389608  1.396   .     S
C388607 H211662  1.087   .     S
C389608 C390609  1.411   .     D
C389608 C432651  1.500   .     S
C390609 C402621  1.500   .     S
C390609 C391610  1.411   1_554 S
C391610 C392611  1.397   .     D
C391610 C431650  1.503   .     S
C391610 C390609  1.411   1_556 S
C392611 H212663  1.086   .     S
C392611 C387606  1.406   1_556 S
C393612 C394613  1.420   .     D
C393612 C398617  1.383   .     S
C393612 H213664  1.086   .     S
C394613 C395614  1.434   .     S
C394613 C402621  1.426   .     S
C395614 C396615  1.433   .     D
C395614 C399618  1.427   .     S
C396615 C397616  1.403   .     S
C396615 C407626  1.463   .     S
C397616 C398617  1.404   .     D
C397616 H214665  1.086   .     S
C398617 H215666  1.088   .     S
C399618 C409628  1.436   .     S
C399618 C400619  1.420   1_554 D
C400619 C401620  1.435   .     S
C400619 C406625  1.429   .     S
C400619 C399618  1.420   1_556 D
C401620 C403622  1.441   .     S
C401620 C402621  1.404   1_556 D
C402621 C401620  1.404   1_554 D
C403622 C404623  1.363   .     D
C403622 H216667  1.087   .     S
C404623 C405624  1.435   .     S
C404623 H217668  1.088   .     S
C405624 C406625  1.425   .     D
C405624 C414633  1.408   .     S
C406625 C411630  1.427   .     S
C407626 C408627  1.426   .     D
C407626 C418637  1.413   .     S
C408627 C409628  1.435   .     S
C408627 C415634  1.430   .     S
C409628 C410629  1.416   1_554 D
C410629 C411630  1.435   .     S
C410629 C420639  1.436   .     S
C410629 C409628  1.416   1_556 D
C411630 C412631  1.425   .     D
C412631 C413632  1.412   .     S
C412631 C422641  1.460   .     S
C413632 C414633  1.385   .     D
C413632 H218669  1.086   .     S
C414633 H219670  1.087   .     S
C415634 C416635  1.426   .     D
C415634 C419638  1.430   .     S
C416635 C417636  1.409   .     S
C416635 C423642  1.437   .     S
C417636 C418637  1.387   .     D
C417636 H220671  1.088   .     S
C418637 H221672  1.086   .     S
C419638 C420639  1.419   1_554 S
C419638 C425644  1.437   1_554 D
C420639 C421640  1.427   .     D
C420639 C419638  1.419   1_556 S
C421640 C422641  1.432   .     S
C421640 C427646  1.432   .     S
C422641 C428647  1.401   .     D
C423642 C424643  1.364   .     D
C423642 H222673  1.089   .     S
C424643 H223674  1.086   .     S
C424643 C425644  1.440   1_554 S
C425644 C426645  1.404   .     S
C425644 C419638  1.437   1_556 D
C425644 C424643  1.440   1_556 S
C426645 C427646  1.427   .     D
C427646 C430649  1.421   .     S
C428647 C429648  1.402   .     S
C428647 H224675  1.086   .     S
C429648 C430649  1.382   .     D
C429648 H225676  1.087   .     S
C430649 H226677  1.086   .     S
C431650 H227678  1.089   .     S
C431650 H228679  1.092   .     S
C431650 H229680  1.088   .     S
C432651 H230681  1.087   .     S
C432651 H231682  1.090   .     S
C432651 H232683  1.090   .     S
C433652 H233684  1.090   .     S
C433652 H234685  1.087   .     S
C433652 H235686  1.090   .     S
C434653 H236687  1.090   .     S
C434653 H237688  1.088   .     S
C434653 H238689  1.091   .     S
H206655 C377596  1.087   1_554 S
H208657 C380599  1.089   1_554 S
C436659 N16690  1.156   .     T
H210661 C386605  1.089   1_456 S
C437691 C438692  1.409   .     D
C437691 C442696  1.412   .     S
C437691 C490744  1.499   .     S
C438692 C439693  1.397   .     S
C438692 C498752  1.501   1_554 S
C439693 C440694  1.406   .     D
C439693 H239753  1.086   1_554 S
C440694 C441695  1.407   .     S
C440694 C443697  1.461   .     S
C441695 C442696  1.395   .     D
C441695 H240754  1.087   .     S
C442696 C497751  1.501   .     S
C443697 C444698  1.352   .     D
C443697 H241755  1.089   .     S
C444698 H242756  1.090   .     S
C445699 C446700  1.423   .     S
C445699 C499757  1.439   .     S
C447701 C448702  1.412   .     S
C447701 C449703  1.465   .     S
C448702 C500758  1.440   .     S
C449703 C450704  1.352   .     D
C450704 C451705  1.461   .     S
C450704 H244760  1.089   .     S
C451705 C452706  1.407   .     D
C451705 C456710  1.406   .     S
C452706 C453707  1.396   .     S
C452706 H245761  1.087   .     S
C453707 C454708  1.411   .     D
C453707 C496750  1.500   .     S
C454708 C455709  1.410   .     S
C454708 C466720  1.499   .     S
C455709 C456710  1.397   .     D
C455709 C495749  1.502   .     S
C456710 H246762  1.086   .     S
C457711 C458712  1.420   .     D
C457711 C462716  1.383   .     S
C457711 H247763  1.086   .     S
C458712 C459713  1.434   .     S
C458712 C466720  1.426   .     S
C459713 C460714  1.433   .     D
C459713 C463717  1.426   .     S
C460714 C461715  1.403   .     S
C460714 C471725  1.463   .     S
C461715 C462716  1.403   .     D
C461715 H248764  1.086   .     S
C462716 H249765  1.087   .     S
C463717 C464718  1.420   .     S
C463717 C473727  1.437   .     D
C464718 C465719  1.435   .     S
C464718 C470724  1.429   .     D
C465719 C466720  1.404   .     D
C465719 C467721  1.441   .     S
C467721 C468722  1.363   .     D
C467721 H250766  1.087   .     S
C468722 C469723  1.435   1_554 S
C468722 H251767  1.088   1_554 S
C469723 C478732  1.409   .     D
C469723 C468722  1.435   1_556 S
C469723 C470724  1.425   1_556 S
C470724 C475729  1.427   .     S
C470724 C469723  1.425   1_554 S
C471725 C472726  1.426   1_545 D
C471725 C482736  1.413   1_545 S
C472726 C479733  1.429   .     S
C472726 C471725  1.426   1_565 D
C472726 C473727  1.435   1_565 S
C473727 C472726  1.435   1_545 S
C473727 C474728  1.417   1_545 S
C474728 C484738  1.436   .     S
C474728 C473727  1.417   1_565 S
C474728 C475729  1.435   1_565 D
C475729 C474728  1.435   1_545 D
C475729 C476730  1.425   1_544 S
C476730 C486740  1.460   .     S
C476730 C475729  1.425   1_566 S
C476730 C477731  1.412   1_565 D
C477731 C478732  1.386   .     S
C477731 H252768  1.086   .     S
C477731 C476730  1.412   1_545 D
C478732 H253769  1.088   .     S
C479733 C480734  1.426   .     S
C479733 C483737  1.430   .     D
C480734 C481735  1.409   .     S
C480734 C487741  1.437   .     D
C481735 C482736  1.387   .     D
C481735 H254770  1.088   .     S
C482736 C471725  1.413   1_565 S
C482736 H255771  1.086   1_565 S
C483737 C484738  1.419   .     S
C483737 C489743  1.437   .     S
C484738 C485739  1.427   .     D
C485739 C491745  1.433   .     S
C485739 C486740  1.432   1_554 S
C486740 C492746  1.402   .     D
C486740 C485739  1.432   1_556 S
C487741 C488742  1.364   .     S
C487741 H256772  1.088   .     S
C488742 C489743  1.440   .     D
C488742 H257773  1.086   .     S
C489743 C490744  1.404   .     S
C490744 C491745  1.427   .     D
C491745 C494748  1.421   1_554 S
C492746 C493747  1.402   .     S
C492746 H258774  1.086   .     S
C493747 C494748  1.382   .     D
C493747 H259775  1.087   .     S
C494748 H260776  1.086   .     S
C494748 C491745  1.421   1_556 S
C495749 H261777  1.090   .     S
C495749 H262778  1.091   1_554 S
C495749 H263779  1.088   1_554 S
C496750 H264780  1.087   .     S
C496750 H265781  1.090   .     S
C496750 H266782  1.090   .     S
C497751 H267783  1.090   .     S
C497751 H268784  1.087   .     S
C497751 H269785  1.091   .     S
C498752 H270786  1.089   .     S
C498752 H271787  1.088   .     S
C498752 H272788  1.092   .     S
C498752 C438692  1.501   1_556 S
H239753 C439693  1.086   1_556 S
C500758 N17789  1.157   .     T
H251767 C468722  1.088   1_556 S
H255771 C482736  1.086   1_545 S
H262778 C495749  1.091   1_556 S
H263779 C495749  1.088   1_556 S
C501790 C502791  1.410   .     D
C501790 C506795  1.412   .     S
C501790 C554843  1.499   .     S
C502791 C503792  1.396   .     S
C502791 C562851  1.501   .     S
C503792 C504793  1.406   .     D
C503792 H273852  1.086   .     S
C504793 C505794  1.408   .     S
C504793 C507796  1.461   .     S
C505794 C506795  1.396   .     D
C505794 H274853  1.087   .     S
C506795 C561850  1.502   .     S
C507796 C508797  1.351   .     D
C507796 H275854  1.089   .     S
C508797 H276855  1.090   .     S
C509798 C563856  1.440   .     S
C509798 C510799  1.423   1_545 D
C510799 N13501  1.355   1_455 S
C510799 C509798  1.423   1_565 D
C511800 C512801  1.411   .     S
C511800 C513802  1.465   .     S
C512801 C564857  1.440   .     S
C513802 C514803  1.352   .     D
C514803 C515804  1.462   .     S
C514803 H278859  1.089   .     S
C515804 C516805  1.407   .     D
C515804 C520809  1.406   .     S
C516805 C517806  1.396   .     S
C516805 H279860  1.087   .     S
C517806 C518807  1.411   .     D
C517806 C560849  1.500   1_556 S
C518807 C519808  1.411   .     S
C518807 C530819  1.500   .     S
C519808 C520809  1.397   .     D
C519808 C559848  1.503   .     S
C520809 H280861  1.087   .     S
C521810 C522811  1.420   .     S
C521810 H281862  1.086   .     S
C521810 C526815  1.383   1_556 D
C522811 C523812  1.434   .     S
C522811 C530819  1.426   .     D
C523812 C524813  1.433   .     S
C523812 C527816  1.427   .     D
C524813 C535824  1.463   .     S
C524813 C525814  1.403   1_556 D
C525814 C526815  1.403   .     S
C525814 H282863  1.086   .     S
C525814 C524813  1.403   1_554 D
C526815 H283864  1.088   .     S
C526815 C521810  1.383   1_554 D
C527816 C528817  1.420   .     S
C527816 C537826  1.436   .     S
C528817 C529818  1.435   .     D
C528817 C534823  1.429   .     S
C529818 C530819  1.404   .     S
C529818 C531820  1.441   .     S
C531820 C532821  1.363   .     D
C531820 H284865  1.087   .     S
C532821 C533822  1.435   .     S
C532821 H285866  1.087   .     S
C533822 C534823  1.425   .     D
C533822 C542831  1.408   .     S
C534823 C539828  1.428   .     S
C535824 C536825  1.426   .     D
C535824 C546835  1.413   1_556 S
C536825 C537826  1.436   .     S
C536825 C543832  1.430   .     S
C537826 C538827  1.416   .     D
C538827 C539828  1.435   .     S
C538827 C548837  1.436   .     S
C539828 C540829  1.425   .     D
C540829 C541830  1.412   .     S
C540829 C550839  1.460   .     S
C541830 C542831  1.385   .     D
C541830 H286867  1.086   .     S
C542831 H287868  1.088   .     S
C543832 C544833  1.426   .     S
C543832 C547836  1.430   .     D
C544833 C551840  1.437   .     D
C544833 C545834  1.409   1_556 S
C545834 C546835  1.387   .     D
C545834 H288869  1.088   .     S
C545834 C544833  1.409   1_554 S
C546835 H289870  1.086   .     S
C546835 C535824  1.413   1_554 S
C547836 C548837  1.420   .     S
C547836 C553842  1.436   .     S
C548837 C549838  1.427   .     D
C549838 C550839  1.432   .     S
C549838 C555844  1.432   .     S
C550839 C556845  1.401   .     D
C551840 C552841  1.364   .     S
C551840 H290871  1.089   .     S
C552841 C553842  1.440   .     D
C552841 H291872  1.086   .     S
C553842 C554843  1.404   .     S
C554843 C555844  1.427   .     D
C555844 C558847  1.421   .     S
C556845 C557846  1.402   .     S
C556845 H292873  1.086   .     S
C557846 C558847  1.382   .     D
C557846 H293874  1.087   .     S
C558847 H294875  1.087   .     S
C559848 H295876  1.089   .     S
C559848 H296877  1.091   .     S
C559848 H297878  1.088   .     S
C560849 H298879  1.087   .     S
C560849 H300881  1.090   .     S
C560849 C517806  1.500   1_554 S
C560849 H299880  1.091   1_554 S
C561850 H301882  1.090   .     S
C561850 H302883  1.087   .     S
C561850 H303884  1.090   .     S
C562851 H304885  1.089   .     S
C562851 H305886  1.087   .     S
C562851 H306887  1.092   .     S
C564857 N18888  1.157   .     T
H299880 C560849  1.091   1_556 S
