data_708
_audit_creation_date              2023-09-08
_audit_creation_method            'Materials Studio'
_symmetry_space_group_name_H-M    'P1'
_symmetry_Int_Tables_number       1
_symmetry_cell_setting            triclinic
loop_
_symmetry_equiv_pos_as_xyz
  x,y,z
_cell_length_a                    49.4385
_cell_length_b                    49.2021
_cell_length_c                    5.5362
_cell_angle_alpha                 88.0245
_cell_angle_beta                  86.7419
_cell_angle_gamma                 59.2427
loop_
_atom_site_label
_atom_site_type_symbol
_atom_site_fract_x
_atom_site_fract_y
_atom_site_fract_z
_atom_site_U_iso_or_equiv
_atom_site_adp_type
_atom_site_occupancy
C11    C     0.60147   0.58877   0.91888   0.00000  Uiso   1.00
C22    C     0.63486   0.57036   0.90326   0.00000  Uiso   1.00
C33    C     0.65297   0.58574   0.89741   0.00000  Uiso   1.00
C44    C     0.60702   0.63617   0.90277   0.00000  Uiso   1.00
C55    C     0.58781   0.62219   0.92025   0.00000  Uiso   1.00
C66    C     0.55399   0.64075   0.94259   0.00000  Uiso   1.00
C77    C     0.65097   0.53645   0.88227   0.00000  Uiso   1.00
N18    N     0.52686   0.65408   0.96346   0.00000  Uiso   1.00
N29    N     0.66398   0.50944   0.85592   0.00000  Uiso   1.00
C810   C     0.58043   0.57590   0.92184   0.00000  Uiso   1.00
H111   H     0.55611   0.59284   0.87192   0.00000  Uiso   1.00
C912   C     0.59593   0.67027   0.89339   0.00000  Uiso   1.00
H213   H     0.61530   0.67527   0.87335   0.00000  Uiso   1.00
C1014  C     0.68763   0.56743   0.89125   0.00000  Uiso   1.00
H315   H     0.69898   0.54155   0.87693   0.00000  Uiso   1.00
N316   N     0.63880   0.61746   0.89534   0.00000  Uiso   1.00
C1117  C     0.58797   0.54607   0.98709   0.00000  Uiso   1.00
H418   H     0.61132   0.52945   0.05633   0.00000  Uiso   1.00
C1219  C     0.70555   0.58070   0.91648   0.00000  Uiso   1.00
H520   H     0.69364   0.60656   0.93967   0.00000  Uiso   1.00
C1321  C     0.56594   0.69498   0.92109   0.00000  Uiso   1.00
H622   H     0.54633   0.69049   0.94882   0.00000  Uiso   1.00
C1423  C     0.56646   0.53396   0.98555   0.00000  Uiso   1.00
C1524  C     0.57048   0.51030   0.15487   0.00000  Uiso   1.00
C1625  C     0.54257   0.54432   0.81845   0.00000  Uiso   1.00
C1726  C     0.55093   0.49737   0.16232   0.00000  Uiso   1.00
H727   H     0.58880   0.50242   0.28828   0.00000  Uiso   1.00
C1828  C     0.52328   0.53111   0.81647   0.00000  Uiso   1.00
H829   H     0.53960   0.56224   0.68080   0.00000  Uiso   1.00
C1930  C     0.52731   0.50738   0.98981   0.00000  Uiso   1.00
C2031  C     0.74012   0.56255   0.92313   0.00000  Uiso   1.00
C2132  C     0.75586   0.56974   0.09145   0.00000  Uiso   1.00
C2233  C     0.75849   0.53759   0.76186   0.00000  Uiso   1.00
C2334  C     0.78867   0.55194   0.10918   0.00000  Uiso   1.00
H935   H     0.74216   0.58909   0.22025   0.00000  Uiso   1.00
C2436  C     0.79142   0.51984   0.76873   0.00000  Uiso   1.00
H1037  H     0.74709   0.53242   0.62057   0.00000  Uiso   1.00
C2538  C     0.80698   0.52640   0.94647   0.00000  Uiso   1.00
C2639  C     0.55703   0.72844   0.93575   0.00000  Uiso   1.00
C2740  C     0.56959   0.74215   0.77311   0.00000  Uiso   1.00
C2841  C     0.53475   0.74772   0.11684   0.00000  Uiso   1.00
C2942  C     0.55885   0.77464   0.77789   0.00000  Uiso   1.00
H1143  H     0.58679   0.72777   0.62829   0.00000  Uiso   1.00
C3044  C     0.52513   0.77979   0.13648   0.00000  Uiso   1.00
H1245  H     0.52547   0.73720   0.25181   0.00000  Uiso   1.00
C3146  C     0.53645   0.79392   0.96103   0.00000  Uiso   1.00
C3247  C     0.49899   0.54263   0.62720   0.00000  Uiso   1.00
H1348  H     0.47691   0.56400   0.68747   0.00000  Uiso   1.00
H1449  H     0.50724   0.54909   0.45828   0.00000  Uiso   1.00
H1550  H     0.49293   0.52485   0.58205   0.00000  Uiso   1.00
C3351  C     0.55572   0.47353   0.35739   0.00000  Uiso   1.00
H1652  H     0.57673   0.45026   0.31688   0.00000  Uiso   1.00
H1753  H     0.55956   0.48102   0.53113   0.00000  Uiso   1.00
H1854  H     0.53550   0.47011   0.38587   0.00000  Uiso   1.00
C3455  C     0.80273   0.56103   0.30326   0.00000  Uiso   1.00
H1956  H     0.80715   0.58001   0.24024   0.00000  Uiso   1.00
H2057  H     0.78673   0.57025   0.46463   0.00000  Uiso   1.00
H2158  H     0.82522   0.54117   0.36284   0.00000  Uiso   1.00
C3559  C     0.80871   0.49476   0.57963   0.00000  Uiso   1.00
H2260  H     0.80701   0.47358   0.62058   0.00000  Uiso   1.00
H2361  H     0.79827   0.50356   0.40253   0.00000  Uiso   1.00
H2462  H     0.83381   0.48714   0.55714   0.00000  Uiso   1.00
C3663  C     0.50265   0.79818   0.34343   0.00000  Uiso   1.00
H2564  H     0.47807   0.80604   0.30442   0.00000  Uiso   1.00
H2665  H     0.50795   0.78358   0.50866   0.00000  Uiso   1.00
H2766  H     0.50351   0.81935   0.38647   0.00000  Uiso   1.00
C3767  C     0.57112   0.78770   0.57990   0.00000  Uiso   1.00
H2868  H     0.59512   0.78243   0.61300   0.00000  Uiso   1.00
H2969  H     0.57253   0.77695   0.40488   0.00000  Uiso   1.00
H3070  H     0.55618   0.81343   0.55832   0.00000  Uiso   1.00
C3871  C     0.52181   0.45956   0.94557   0.00000  Uiso   1.00
C3972  C     0.47408   0.51108   0.03759   0.00000  Uiso   1.00
C4073  C     0.50302   0.44485   0.96124   0.00000  Uiso   1.00
C4174  C     0.55522   0.43954   0.89191   0.00000  Uiso   1.00
C4275  C     0.45486   0.49722   0.01681   0.00000  Uiso   1.00
C4376  C     0.45900   0.54344   0.10642   0.00000  Uiso   1.00
C4477  C     0.51788   0.41109   0.95385   0.00000  Uiso   1.00
C4578  C     0.46966   0.46382   0.98700   0.00000  Uiso   1.00
C4679  C     0.56934   0.40733   0.88111   0.00000  Uiso   1.00
H3180  H     0.56989   0.45035   0.86159   0.00000  Uiso   1.00
C4781  C     0.42113   0.51660   0.03463   0.00000  Uiso   1.00
C4882  C     0.42646   0.56160   0.13489   0.00000  Uiso   1.00
H3283  H     0.47318   0.55429   0.13835   0.00000  Uiso   1.00
C4984  C     0.49935   0.39635   0.98451   0.00000  Uiso   1.00
C5085  C     0.55132   0.39199   0.92160   0.00000  Uiso   1.00
C5186  C     0.45091   0.44915   0.98898   0.00000  Uiso   1.00
H3387  H     0.59497   0.39281   0.84330   0.00000  Uiso   1.00
C5288  C     0.40220   0.50218   0.99448   0.00000  Uiso   1.00
C5389  C     0.40753   0.54869   0.09303   0.00000  Uiso   1.00
H3490  H     0.41520   0.58654   0.18844   0.00000  Uiso   1.00
C5491  C     0.51429   0.36275   0.00234   0.00000  Uiso   1.00
C5592  C     0.46562   0.41574   0.99278   0.00000  Uiso   1.00
C5693  C     0.56556   0.35870   0.92814   0.00000  Uiso   1.00
C5794  C     0.41727   0.46856   0.98375   0.00000  Uiso   1.00
C5895  C     0.36928   0.52035   0.96562   0.00000  Uiso   1.00
H3596  H     0.38180   0.56421   0.11331   0.00000  Uiso   1.00
C5997  C     0.49489   0.34836   0.04975   0.00000  Uiso   1.00
C6098  C     0.54755   0.34455   0.97203   0.00000  Uiso   1.00
C6199  C     0.44681   0.40111   0.00190   0.00000  Uiso   1.00
H36100 H     0.59132   0.34371   0.90138   0.00000  Uiso   1.00
C62101 C     0.39897   0.45379   0.96380   0.00000  Uiso   1.00
C63102 C     0.35166   0.50614   0.93097   0.00000  Uiso   1.00
H37103 H     0.35700   0.54635   0.96578   0.00000  Uiso   1.00
C64104 C     0.46129   0.36772   0.03634   0.00000  Uiso   1.00
C65105 C     0.50799   0.31619   0.10974   0.00000  Uiso   1.00
H38106 H     0.55986   0.31855   0.97840   0.00000  Uiso   1.00
C66107 C     0.41368   0.42007   0.97984   0.00000  Uiso   1.00
C67108 C     0.36587   0.47286   0.93357   0.00000  Uiso   1.00
H39109 H     0.32619   0.52109   0.90515   0.00000  Uiso   1.00
C68110 C     0.44184   0.35384   0.06460   0.00000  Uiso   1.00
C69111 C     0.48873   0.30305   0.15299   0.00000  Uiso   1.00
H40112 H     0.53352   0.30071   0.12836   0.00000  Uiso   1.00
C70113 C     0.39489   0.40543   0.97674   0.00000  Uiso   1.00
C71114 C     0.34813   0.45749   0.90485   0.00000  Uiso   1.00
C72115 C     0.45646   0.32120   0.12841   0.00000  Uiso   1.00
H41116 H     0.49952   0.27793   0.20441   0.00000  Uiso   1.00
C73117 C     0.36201   0.42535   0.92572   0.00000  Uiso   1.00
H42118 H     0.32292   0.47195   0.86815   0.00000  Uiso   1.00
H43119 H     0.44210   0.31006   0.15948   0.00000  Uiso   1.00
H44120 H     0.34761   0.41446   0.90450   0.00000  Uiso   1.00
C74121 C     0.49126   0.84976   0.92267   0.00000  Uiso   1.00
C75122 C     0.54381   0.84150   0.99180   0.00000  Uiso   1.00
C76123 C     0.47827   0.88340   0.93067   0.00000  Uiso   1.00
C77124 C     0.47010   0.83854   0.87887   0.00000  Uiso   1.00
C78125 C     0.53159   0.87492   0.96759   0.00000  Uiso   1.00
C79126 C     0.57617   0.82165   0.04362   0.00000  Uiso   1.00
C80127 C     0.44488   0.90444   0.92586   0.00000  Uiso   1.00
C81128 C     0.49855   0.89580   0.94423   0.00000  Uiso   1.00
C82129 C     0.43825   0.85868   0.87270   0.00000  Uiso   1.00
H45130 H     0.47973   0.81310   0.85153   0.00000  Uiso   1.00
C83131 C     0.55227   0.88736   0.97257   0.00000  Uiso   1.00
C84132 C     0.59560   0.83410   0.06044   0.00000  Uiso   1.00
H46133 H     0.58608   0.79607   0.07059   0.00000  Uiso   1.00
C85134 C     0.43176   0.93783   0.94542   0.00000  Uiso   1.00
C86135 C     0.42450   0.89212   0.90564   0.00000  Uiso   1.00
C87136 C     0.48559   0.92944   0.93556   0.00000  Uiso   1.00
H47137 H     0.42272   0.84927   0.84320   0.00000  Uiso   1.00
C88138 C     0.53959   0.92117   0.92657   0.00000  Uiso   1.00
C89139 C     0.58408   0.86650   0.02096   0.00000  Uiso   1.00
H48140 H     0.62049   0.81839   0.10218   0.00000  Uiso   1.00
C90141 C     0.39843   0.95851   0.96430   0.00000  Uiso   1.00
C91142 C     0.45251   0.95021   0.94020   0.00000  Uiso   1.00
C92143 C     0.39155   0.91318   0.91415   0.00000  Uiso   1.00
C93144 C     0.50633   0.94184   0.91696   0.00000  Uiso   1.00
C94145 C     0.55916   0.93431   0.88770   0.00000  Uiso   1.00
H49146 H     0.60056   0.87514   0.03269   0.00000  Uiso   1.00
C95147 C     0.38558   0.99237   0.99790   0.00000  Uiso   1.00
C96148 C     0.37892   0.94541   0.94732   0.00000  Uiso   1.00
C97149 C     0.43952   0.98384   0.93427   0.00000  Uiso   1.00
H50150 H     0.37563   0.90393   0.89687   0.00000  Uiso   1.00
C98151 C     0.49329   0.97516   0.88248   0.00000  Uiso   1.00
C99152 C     0.54670   0.96639   0.83987   0.00000  Uiso   1.00
H51153 H     0.58495   0.91908   0.88938   0.00000  Uiso   1.00
C100154 C     0.40634   0.00474   0.96853   0.00000  Uiso   1.00
C101155 C     0.35357   0.01328   0.05841   0.00000  Uiso   1.00
H52156 H     0.35311   0.96078   0.95515   0.00000  Uiso   1.00
C102157 C     0.45984   0.99625   0.89626   0.00000  Uiso   1.00
C103158 C     0.51377   0.98742   0.83779   0.00000  Uiso   1.00
H53159 H     0.56279   0.97552   0.80535   0.00000  Uiso   1.00
C104160 C     0.39401   0.03818   0.97951   0.00000  Uiso   1.00
C105161 C     0.34193   0.04572   0.08753   0.00000  Uiso   1.00
H54162 H     0.33709   0.00460   0.08843   0.00000  Uiso   1.00
C106163 C     0.44679   0.02988   0.87203   0.00000  Uiso   1.00
C107164 C     0.50014   0.02068   0.78723   0.00000  Uiso   1.00
C108165 C     0.36144   0.05810   0.04598   0.00000  Uiso   1.00
H55166 H     0.31692   0.06152   0.14066   0.00000  Uiso   1.00
C109167 C     0.46819   0.04085   0.80105   0.00000  Uiso   1.00
H56168 H     0.51581   0.02994   0.73701   0.00000  Uiso   1.00
H57169 H     0.35140   0.08371   0.06624   0.00000  Uiso   1.00
H58170 H     0.45862   0.06611   0.75979   0.00000  Uiso   1.00
C110171 C     0.38850   0.35798   0.03879   0.00000  Uiso   1.00
C111172 C     0.36387   0.36729   0.22042   0.00000  Uiso   1.00
C112173 C     0.39310   0.33530   0.86396   0.00000  Uiso   1.00
C113174 C     0.34402   0.35472   0.22019   0.00000  Uiso   1.00
C114175 C     0.35795   0.39075   0.41325   0.00000  Uiso   1.00
C115176 C     0.37308   0.32290   0.86990   0.00000  Uiso   1.00
C116177 C     0.41845   0.32449   0.66610   0.00000  Uiso   1.00
C117178 C     0.34806   0.33263   0.04505   0.00000  Uiso   1.00
H59179 H     0.32484   0.36229   0.36028   0.00000  Uiso   1.00
H60180 H     0.33981   0.41494   0.36167   0.00000  Uiso   1.00
H61181 H     0.34929   0.38524   0.58451   0.00000  Uiso   1.00
H62182 H     0.37923   0.39138   0.45042   0.00000  Uiso   1.00
H63183 H     0.37663   0.30600   0.72876   0.00000  Uiso   1.00
H64184 H     0.43916   0.30146   0.71042   0.00000  Uiso   1.00
H65185 H     0.41005   0.32132   0.49524   0.00000  Uiso   1.00
H66186 H     0.42661   0.34130   0.63092   0.00000  Uiso   1.00
C118187 C     0.32545   0.32179   0.04421   0.00000  Uiso   1.00
C119188 C     0.32989   0.29632   0.92150   0.00000  Uiso   1.00
H67189 H     0.30351   0.33570   0.15547   0.00000  Uiso   1.00
C120190 C     0.30717   0.28556   0.91145   0.00000  Uiso   1.00
H68191 H     0.35281   0.28065   0.82716   0.00000  Uiso   1.00
C121192 C     0.27394   0.30618   0.90326   0.00000  Uiso   1.00
N4193  N     0.32011   0.25402   0.89815   0.00000  Uiso   1.00
C122194 C     0.25405   0.29338   0.88973   0.00000  Uiso   1.00
C123195 C     0.25993   0.34009   0.90111   0.00000  Uiso   1.00
C124196 C     0.30213   0.24096   0.88057   0.00000  Uiso   1.00
C125197 C     0.26866   0.26006   0.87626   0.00000  Uiso   1.00
C126198 C     0.21975   0.31505   0.88456   0.00000  Uiso   1.00
N5199  N     0.24826   0.36719   0.89345   0.00000  Uiso   1.00
C127200 C     0.31854   0.20643   0.86437   0.00000  Uiso   1.00
C128201 C     0.25038   0.24519   0.84582   0.00000  Uiso   1.00
H69202 H     0.21218   0.33711   0.78017   0.00000  Uiso   1.00
C129203 C     0.19801   0.31058   0.01164   0.00000  Uiso   1.00
H70204 H     0.30485   0.19582   0.81063   0.00000  Uiso   1.00
C130205 C     0.34922   0.18787   0.92011   0.00000  Uiso   1.00
N6206  N     0.23644   0.23279   0.81648   0.00000  Uiso   1.00
H71207 H     0.20608   0.28949   0.12928   0.00000  Uiso   1.00
C131208 C     0.16386   0.33258   0.01619   0.00000  Uiso   1.00
H72209 H     0.36145   0.19948   0.98667   0.00000  Uiso   1.00
C132210 C     0.36696   0.15326   0.90908   0.00000  Uiso   1.00
C133211 C     0.14473   0.32921   0.19942   0.00000  Uiso   1.00
C134212 C     0.14911   0.35697   0.84358   0.00000  Uiso   1.00
C135213 C     0.36020   0.13684   0.74163   0.00000  Uiso   1.00
C136214 C     0.39138   0.13558   0.06863   0.00000  Uiso   1.00
C137215 C     0.11190   0.34948   0.21301   0.00000  Uiso   1.00
H73216 H     0.15581   0.31043   0.33701   0.00000  Uiso   1.00
C138217 C     0.11634   0.37737   0.85126   0.00000  Uiso   1.00
H74218 H     0.16326   0.35998   0.69572   0.00000  Uiso   1.00
C139219 C     0.37638   0.10372   0.73864   0.00000  Uiso   1.00
H75220 H     0.34221   0.15004   0.60786   0.00000  Uiso   1.00
C140221 C     0.40743   0.10238   0.07433   0.00000  Uiso   1.00
H76222 H     0.39711   0.14809   0.19913   0.00000  Uiso   1.00
C141223 C     0.09725   0.37380   0.03690   0.00000  Uiso   1.00
C142224 C     0.09327   0.34470   0.41623   0.00000  Uiso   1.00
C143225 C     0.10244   0.40251   0.65914   0.00000  Uiso   1.00
C144226 C     0.39971   0.08602   0.90984   0.00000  Uiso   1.00
C145227 C     0.36813   0.08802   0.55178   0.00000  Uiso   1.00
C146228 C     0.43201   0.08540   0.25909   0.00000  Uiso   1.00
H77229 H     0.08948   0.32507   0.37882   0.00000  Uiso   1.00
H78230 H     0.10581   0.33865   0.58569   0.00000  Uiso   1.00
H79231 H     0.07002   0.36587   0.45000   0.00000  Uiso   1.00
H80232 H     0.10275   0.42388   0.70824   0.00000  Uiso   1.00
H81233 H     0.11602   0.39425   0.48587   0.00000  Uiso   1.00
H82234 H     0.07789   0.40982   0.62722   0.00000  Uiso   1.00
H83235 H     0.34705   0.08680   0.60928   0.00000  Uiso   1.00
H84236 H     0.36267   0.10147   0.38065   0.00000  Uiso   1.00
H85237 H     0.38728   0.06378   0.51185   0.00000  Uiso   1.00
H86238 H     0.45454   0.08352   0.19843   0.00000  Uiso   1.00
H87239 H     0.42482   0.09811   0.43241   0.00000  Uiso   1.00
H88240 H     0.43680   0.06131   0.29717   0.00000  Uiso   1.00
C147241 C     0.04259   0.38266   0.99665   0.00000  Uiso   1.00
C148242 C     0.04803   0.42823   0.09035   0.00000  Uiso   1.00
C149243 C     0.00888   0.40309   0.00194   0.00000  Uiso   1.00
C150244 C     0.05538   0.34959   0.94608   0.00000  Uiso   1.00
C151245 C     0.01463   0.44911   0.07478   0.00000  Uiso   1.00
C152246 C     0.06655   0.44132   0.15301   0.00000  Uiso   1.00
C153247 C     0.98907   0.39007   0.97583   0.00000  Uiso   1.00
C154248 C     0.99516   0.43624   0.03297   0.00000  Uiso   1.00
C155249 C     0.03644   0.33724   0.91960   0.00000  Uiso   1.00
H89250 H     0.08111   0.33373   0.92961   0.00000  Uiso   1.00
C156251 C     0.00090   0.48260   0.10469   0.00000  Uiso   1.00
C157252 C     0.05280   0.47342   0.19486   0.00000  Uiso   1.00
H90253 H     0.09211   0.42585   0.16984   0.00000  Uiso   1.00
C158254 C     0.95551   0.41015   0.98780   0.00000  Uiso   1.00
C159255 C     0.00271   0.35691   0.93990   0.00000  Uiso   1.00
C160256 C     0.96163   0.45672   0.02220   0.00000  Uiso   1.00
H91257 H     0.04709   0.31183   0.88327   0.00000  Uiso   1.00
C161258 C     0.96734   0.50368   0.06489   0.00000  Uiso   1.00
C162259 C     0.02039   0.49405   0.16799   0.00000  Uiso   1.00
H92260 H     0.06746   0.48300   0.24654   0.00000  Uiso   1.00
C163261 C     0.93578   0.39689   0.98024   0.00000  Uiso   1.00
C164262 C     0.94203   0.44375   0.00203   0.00000  Uiso   1.00
C165263 C     0.98272   0.34443   0.92281   0.00000  Uiso   1.00
C166264 C     0.94815   0.49039   0.02738   0.00000  Uiso   1.00
C167265 C     0.95311   0.53703   0.05680   0.00000  Uiso   1.00
H93266 H     0.01068   0.51940   0.19935   0.00000  Uiso   1.00
C168267 C     0.90157   0.41766   0.00628   0.00000  Uiso   1.00
C169268 C     0.95016   0.36386   0.94632   0.00000  Uiso   1.00
C170269 C     0.90852   0.46424   0.99008   0.00000  Uiso   1.00
H94270 H     0.99303   0.31893   0.89258   0.00000  Uiso   1.00
C171271 C     0.91527   0.51060   0.98854   0.00000  Uiso   1.00
C172272 C     0.92153   0.55668   0.00704   0.00000  Uiso   1.00
H95273 H     0.96715   0.54815   0.08438   0.00000  Uiso   1.00
C173274 C     0.88841   0.45129   0.99839   0.00000  Uiso   1.00
C174275 C     0.88104   0.40588   0.03926   0.00000  Uiso   1.00
H96276 H     0.93566   0.35293   0.93348   0.00000  Uiso   1.00
C175277 C     0.89540   0.49750   0.97187   0.00000  Uiso   1.00
C176278 C     0.90209   0.54401   0.97057   0.00000  Uiso   1.00
H97279 H     0.91159   0.58245   0.99627   0.00000  Uiso   1.00
C177280 C     0.85489   0.47228   0.00577   0.00000  Uiso   1.00
C178281 C     0.84835   0.42652   0.06791   0.00000  Uiso   1.00
H98282 H     0.89019   0.38028   0.04886   0.00000  Uiso   1.00
C179283 C     0.86223   0.51791   0.93703   0.00000  Uiso   1.00
C180284 C     0.86979   0.56344   0.90642   0.00000  Uiso   1.00
C181285 C     0.83537   0.45896   0.05097   0.00000  Uiso   1.00
H99286 H     0.83275   0.41684   0.10092   0.00000  Uiso   1.00
C182287 C     0.85105   0.55081   0.88196   0.00000  Uiso   1.00
H100288 H     0.86025   0.58889   0.87468   0.00000  Uiso   1.00
H101289 H     0.80962   0.47435   0.07309   0.00000  Uiso   1.00
H102290 H     0.82683   0.56615   0.82273   0.00000  Uiso   1.00
C183291 C     0.06207   0.39507   0.04211   0.00000  Uiso   1.00
C184292 C     0.84188   0.50562   0.96330   0.00000  Uiso   1.00
C185293 C     0.40864   0.37271   0.02675   0.00000  Uiso   1.00
C186294 C     0.50753   0.49238   0.98939   0.00000  Uiso   1.00
C187295 C     0.52364   0.82889   0.96047   0.00000  Uiso   1.00
C188296 C     0.41420   0.05079   0.92052   0.00000  Uiso   1.00
C189297 C     0.95149   0.92566   0.34095   0.00000  Uiso   1.00
C190298 C     0.98434   0.90605   0.36503   0.00000  Uiso   1.00
C191299 C     0.00331   0.92000   0.38338   0.00000  Uiso   1.00
C192300 C     0.95917   0.97103   0.36725   0.00000  Uiso   1.00
C193301 C     0.93904   0.95876   0.33368   0.00000  Uiso   1.00
C194302 C     0.90618   0.97929   0.28561   0.00000  Uiso   1.00
C195303 C     0.99907   0.87206   0.35995   0.00000  Uiso   1.00
N7304  N     0.88021   0.99489   0.23779   0.00000  Uiso   1.00
N8305  N     0.01117   0.84494   0.35295   0.00000  Uiso   1.00
C196306 C     0.93029   0.91310   0.32323   0.00000  Uiso   1.00
H103307 H     0.91262   0.92394   0.18343   0.00000  Uiso   1.00
C197308 C     0.94732   0.00522   0.37145   0.00000  Uiso   1.00
H104309 H     0.96351   0.01253   0.28938   0.00000  Uiso   1.00
C198310 C     0.03756   0.89989   0.39363   0.00000  Uiso   1.00
H105311 H     0.04769   0.87500   0.34163   0.00000  Uiso   1.00
N9312  N     0.99039   0.95163   0.38773   0.00000  Uiso   1.00
C199313 C     0.93049   0.89114   0.47947   0.00000  Uiso   1.00
H106314 H     0.94758   0.88202   0.62410   0.00000  Uiso   1.00
C200315 C     0.05676   0.90994   0.46640   0.00000  Uiso   1.00
H107316 H     0.04618   0.93439   0.53248   0.00000  Uiso   1.00
C201317 C     0.91920   0.02691   0.47640   0.00000  Uiso   1.00
H108318 H     0.90479   0.01870   0.57802   0.00000  Uiso   1.00
C202319 C     0.90945   0.87839   0.48034   0.00000  Uiso   1.00
C203320 C     0.91317   0.85555   0.65717   0.00000  Uiso   1.00
C204321 C     0.88568   0.88774   0.31316   0.00000  Uiso   1.00
C205322 C     0.89433   0.84177   0.66627   0.00000  Uiso   1.00
H109323 H     0.93137   0.84820   0.79099   0.00000  Uiso   1.00
C206324 C     0.86642   0.87447   0.31832   0.00000  Uiso   1.00
H110325 H     0.88203   0.90563   0.17332   0.00000  Uiso   1.00
C207326 C     0.87078   0.85098   0.49470   0.00000  Uiso   1.00
C208327 C     0.09115   0.88972   0.46878   0.00000  Uiso   1.00
C209328 C     0.10832   0.89526   0.63550   0.00000  Uiso   1.00
C210329 C     0.10788   0.86473   0.30337   0.00000  Uiso   1.00
C211330 C     0.14120   0.87611   0.64263   0.00000  Uiso   1.00
H111331 H     0.09558   0.91454   0.76734   0.00000  Uiso   1.00
C212332 C     0.14080   0.84565   0.30226   0.00000  Uiso   1.00
H112333 H     0.09522   0.86040   0.16662   0.00000  Uiso   1.00
C213334 C     0.15791   0.85101   0.47372   0.00000  Uiso   1.00
C214335 C     0.90605   0.06121   0.47304   0.00000  Uiso   1.00
C215336 C     0.91488   0.07630   0.29091   0.00000  Uiso   1.00
C216337 C     0.88283   0.08007   0.65043   0.00000  Uiso   1.00
C217338 C     0.90134   0.10923   0.28640   0.00000  Uiso   1.00
H113339 H     0.93214   0.06226   0.14513   0.00000  Uiso   1.00
C218340 C     0.86927   0.11306   0.65311   0.00000  Uiso   1.00
H114341 H     0.87558   0.06862   0.79330   0.00000  Uiso   1.00
C219342 C     0.87857   0.12803   0.46994   0.00000  Uiso   1.00
C220343 C     0.84157   0.88567   0.13427   0.00000  Uiso   1.00
H115344 H     0.81923   0.90625   0.20081   0.00000  Uiso   1.00
H116345 H     0.84875   0.89318   0.96530   0.00000  Uiso   1.00
H117346 H     0.83638   0.86730   0.08828   0.00000  Uiso   1.00
C221347 C     0.89972   0.81773   0.86078   0.00000  Uiso   1.00
H118348 H     0.92102   0.79473   0.81916   0.00000  Uiso   1.00
H119349 H     0.90332   0.82532   0.03490   0.00000  Uiso   1.00
H120350 H     0.87986   0.81373   0.88813   0.00000  Uiso   1.00
C222351 C     0.15768   0.88302   0.83058   0.00000  Uiso   1.00
H121352 H     0.16322   0.90119   0.76668   0.00000  Uiso   1.00
H122353 H     0.14286   0.89217   0.99784   0.00000  Uiso   1.00
H123354 H     0.17998   0.86199   0.87984   0.00000  Uiso   1.00
C223355 C     0.15672   0.82037   0.11323   0.00000  Uiso   1.00
H124356 H     0.15444   0.79966   0.16055   0.00000  Uiso   1.00
H125357 H     0.14582   0.82917   0.93765   0.00000  Uiso   1.00
H126358 H     0.18195   0.81198   0.08502   0.00000  Uiso   1.00
C224359 C     0.84523   0.13130   0.85216   0.00000  Uiso   1.00
H127360 H     0.82181   0.13549   0.81166   0.00000  Uiso   1.00
H128361 H     0.85150   0.11819   0.02472   0.00000  Uiso   1.00
H129362 H     0.84267   0.15447   0.88235   0.00000  Uiso   1.00
C225363 C     0.91137   0.12360   0.08292   0.00000  Uiso   1.00
H130364 H     0.93345   0.12279   0.11985   0.00000  Uiso   1.00
H131365 H     0.91584   0.11053   0.91395   0.00000  Uiso   1.00
H132366 H     0.89357   0.14841   0.04856   0.00000  Uiso   1.00
C226367 C     0.86583   0.80300   0.43784   0.00000  Uiso   1.00
C227368 C     0.81803   0.85357   0.54973   0.00000  Uiso   1.00
C228369 C     0.84728   0.78806   0.44061   0.00000  Uiso   1.00
C229370 C     0.89921   0.78367   0.38002   0.00000  Uiso   1.00
C230371 C     0.79902   0.83953   0.52579   0.00000  Uiso   1.00
C231372 C     0.80292   0.88554   0.62817   0.00000  Uiso   1.00
C232373 C     0.86233   0.75456   0.40748   0.00000  Uiso   1.00
C233374 C     0.81397   0.80652   0.47682   0.00000  Uiso   1.00
C234375 C     0.91344   0.75182   0.34296   0.00000  Uiso   1.00
H133376 H     0.91374   0.79475   0.36643   0.00000  Uiso   1.00
C235377 C     0.76531   0.85842   0.55654   0.00000  Uiso   1.00
C236378 C     0.77053   0.90305   0.67034   0.00000  Uiso   1.00
H134379 H     0.81700   0.89659   0.65678   0.00000  Uiso   1.00
C237380 C     0.84418   0.73934   0.42481   0.00000  Uiso   1.00
C238381 C     0.89563   0.73609   0.36211   0.00000  Uiso   1.00
C239382 C     0.79545   0.79167   0.46935   0.00000  Uiso   1.00
H135383 H     0.93900   0.73785   0.30076   0.00000  Uiso   1.00
C240384 C     0.74635   0.84416   0.51229   0.00000  Uiso   1.00
C241385 C     0.75171   0.88998   0.63019   0.00000  Uiso   1.00
H136386 H     0.75931   0.92761   0.73331   0.00000  Uiso   1.00
C242387 C     0.85947   0.70569   0.41373   0.00000  Uiso   1.00
C243388 C     0.81048   0.75835   0.44973   0.00000  Uiso   1.00
C244389 C     0.91006   0.70297   0.33653   0.00000  Uiso   1.00
C245390 C     0.76169   0.81079   0.47938   0.00000  Uiso   1.00
C246391 C     0.71314   0.86226   0.49986   0.00000  Uiso   1.00
H137392 H     0.72606   0.90499   0.66195   0.00000  Uiso   1.00
C247393 C     0.84075   0.69051   0.45592   0.00000  Uiso   1.00
C248394 C     0.89249   0.68818   0.36555   0.00000  Uiso   1.00
C249395 C     0.79197   0.74342   0.45397   0.00000  Uiso   1.00
H138396 H     0.93565   0.68859   0.29690   0.00000  Uiso   1.00
C250397 C     0.74348   0.79606   0.45308   0.00000  Uiso   1.00
C251398 C     0.69551   0.84824   0.45893   0.00000  Uiso   1.00
H139399 H     0.70057   0.88814   0.51844   0.00000  Uiso   1.00
C252400 C     0.80700   0.70978   0.46834   0.00000  Uiso   1.00
C253401 C     0.85461   0.65765   0.48835   0.00000  Uiso   1.00
H140402 H     0.90494   0.66230   0.34722   0.00000  Uiso   1.00
C254403 C     0.75862   0.76229   0.44881   0.00000  Uiso   1.00
C255404 C     0.71008   0.81506   0.43856   0.00000  Uiso   1.00
H141405 H     0.66978   0.86320   0.44646   0.00000  Uiso   1.00
C256406 C     0.78795   0.69554   0.50371   0.00000  Uiso   1.00
C257407 C     0.83593   0.64408   0.54217   0.00000  Uiso   1.00
H142408 H     0.88037   0.64193   0.47975   0.00000  Uiso   1.00
C258409 C     0.74004   0.74745   0.44336   0.00000  Uiso   1.00
C259410 C     0.69247   0.79974   0.40152   0.00000  Uiso   1.00
C260411 C     0.80334   0.66248   0.55431   0.00000  Uiso   1.00
H143412 H     0.84744   0.61841   0.57313   0.00000  Uiso   1.00
C261413 C     0.70681   0.76747   0.40361   0.00000  Uiso   1.00
H144414 H     0.66699   0.81432   0.37413   0.00000  Uiso   1.00
H145415 H     0.78943   0.65114   0.60087   0.00000  Uiso   1.00
H146416 H     0.69254   0.75657   0.37651   0.00000  Uiso   1.00
C262417 C     0.83300   0.18448   0.43401   0.00000  Uiso   1.00
C263418 C     0.88595   0.17502   0.50532   0.00000  Uiso   1.00
C264419 C     0.82059   0.21802   0.44689   0.00000  Uiso   1.00
C265420 C     0.81135   0.17399   0.38702   0.00000  Uiso   1.00
C266421 C     0.87429   0.20836   0.48826   0.00000  Uiso   1.00
C267422 C     0.91827   0.15449   0.55507   0.00000  Uiso   1.00
C268423 C     0.78730   0.23965   0.44180   0.00000  Uiso   1.00
C269424 C     0.84134   0.22978   0.46587   0.00000  Uiso   1.00
C270425 C     0.77961   0.19470   0.37867   0.00000  Uiso   1.00
H147426 H     0.82054   0.14863   0.35921   0.00000  Uiso   1.00
C271427 C     0.89549   0.22008   0.49945   0.00000  Uiso   1.00
C272428 C     0.93817   0.16623   0.57855   0.00000  Uiso   1.00
H148429 H     0.92777   0.12890   0.57660   0.00000  Uiso   1.00
C273430 C     0.77476   0.27290   0.46712   0.00000  Uiso   1.00
C274431 C     0.76644   0.22803   0.41510   0.00000  Uiso   1.00
C275432 C     0.82900   0.26331   0.46388   0.00000  Uiso   1.00
H149433 H     0.76375   0.18582   0.34514   0.00000  Uiso   1.00
C276434 C     0.88346   0.25386   0.46057   0.00000  Uiso   1.00
C277435 C     0.92719   0.19863   0.54685   0.00000  Uiso   1.00
H150436 H     0.96298   0.14997   0.61950   0.00000  Uiso   1.00
C278437 C     0.74151   0.29417   0.48478   0.00000  Uiso   1.00
C279438 C     0.79602   0.28462   0.46877   0.00000  Uiso   1.00
C280439 C     0.73361   0.24969   0.42226   0.00000  Uiso   1.00
C281440 C     0.85030   0.27505   0.45155   0.00000  Uiso   1.00
C282441 C     0.90361   0.26640   0.42791   0.00000  Uiso   1.00
H151442 H     0.94398   0.20677   0.56368   0.00000  Uiso   1.00
C283443 C     0.72928   0.32786   0.52406   0.00000  Uiso   1.00
C284444 C     0.72153   0.28175   0.46067   0.00000  Uiso   1.00
C285445 C     0.78368   0.31815   0.46932   0.00000  Uiso   1.00
H152446 H     0.71728   0.24105   0.39984   0.00000  Uiso   1.00
C286447 C     0.83793   0.30832   0.42348   0.00000  Uiso   1.00
C287448 C     0.89179   0.29849   0.38651   0.00000  Uiso   1.00
H153449 H     0.92934   0.25068   0.42915   0.00000  Uiso   1.00
C288450 C     0.75059   0.33961   0.50253   0.00000  Uiso   1.00
C289451 C     0.69730   0.34923   0.58224   0.00000  Uiso   1.00
H154452 H     0.69578   0.29751   0.46716   0.00000  Uiso   1.00
C290453 C     0.80460   0.32991   0.43737   0.00000  Uiso   1.00
C291454 C     0.85897   0.32002   0.38486   0.00000  Uiso   1.00
H155455 H     0.90826   0.30723   0.35626   0.00000  Uiso   1.00
C292456 C     0.73894   0.37293   0.51892   0.00000  Uiso   1.00
C293457 C     0.68627   0.38148   0.61637   0.00000  Uiso   1.00
H156458 H     0.68032   0.34109   0.60613   0.00000  Uiso   1.00
C294459 C     0.79225   0.36343   0.41729   0.00000  Uiso   1.00
C295460 C     0.84601   0.35323   0.33817   0.00000  Uiso   1.00
C296461 C     0.70637   0.39329   0.58264   0.00000  Uiso   1.00
H157462 H     0.66123   0.39760   0.66707   0.00000  Uiso   1.00
C297463 C     0.81416   0.37383   0.34929   0.00000  Uiso   1.00
H158464 H     0.86219   0.36199   0.29272   0.00000  Uiso   1.00
H159465 H     0.69676   0.41879   0.60566   0.00000  Uiso   1.00
H160466 H     0.80497   0.39902   0.30767   0.00000  Uiso   1.00
C298467 C     0.73478   0.69928   0.50190   0.00000  Uiso   1.00
C299468 C     0.71088   0.70832   0.68960   0.00000  Uiso   1.00
C300469 C     0.73944   0.67613   0.33080   0.00000  Uiso   1.00
C301470 C     0.69201   0.69458   0.70200   0.00000  Uiso   1.00
C302471 C     0.70478   0.73227   0.87889   0.00000  Uiso   1.00
C303472 C     0.72034   0.66271   0.34952   0.00000  Uiso   1.00
C304473 C     0.76380   0.66565   0.12480   0.00000  Uiso   1.00
C305474 C     0.69643   0.67169   0.53357   0.00000  Uiso   1.00
H161475 H     0.67350   0.70170   0.84723   0.00000  Uiso   1.00
H162476 H     0.68452   0.75571   0.83596   0.00000  Uiso   1.00
H163477 H     0.69893   0.72541   0.05689   0.00000  Uiso   1.00
H164478 H     0.72506   0.73526   0.90015   0.00000  Uiso   1.00
H165479 H     0.72372   0.64554   0.21136   0.00000  Uiso   1.00
H166480 H     0.78544   0.64337   0.16856   0.00000  Uiso   1.00
H167481 H     0.75520   0.66101   0.96111   0.00000  Uiso   1.00
H168482 H     0.77058   0.68325   0.07624   0.00000  Uiso   1.00
C306483 C     0.67512   0.65930   0.54482   0.00000  Uiso   1.00
C307484 C     0.68108   0.63305   0.42568   0.00000  Uiso   1.00
H169485 H     0.65323   0.67263   0.65765   0.00000  Uiso   1.00
C308486 C     0.65994   0.62059   0.41154   0.00000  Uiso   1.00
H170487 H     0.70447   0.61831   0.33684   0.00000  Uiso   1.00
C309488 C     0.62675   0.64045   0.39953   0.00000  Uiso   1.00
N10489 N     0.67411   0.58886   0.39949   0.00000  Uiso   1.00
C310490 C     0.60679   0.62731   0.40725   0.00000  Uiso   1.00
C311491 C     0.61437   0.67390   0.37047   0.00000  Uiso   1.00
C312492 C     0.65656   0.57522   0.39310   0.00000  Uiso   1.00
C313493 C     0.62278   0.59369   0.40678   0.00000  Uiso   1.00
C314494 C     0.57241   0.64906   0.41859   0.00000  Uiso   1.00
N11495 N     0.60683   0.70000   0.33385   0.00000  Uiso   1.00
C315496 C     0.67284   0.54054   0.38268   0.00000  Uiso   1.00
C316497 C     0.60655   0.57626   0.42279   0.00000  Uiso   1.00
H171498 H     0.56523   0.67429   0.41125   0.00000  Uiso   1.00
C317499 C     0.54943   0.64151   0.44607   0.00000  Uiso   1.00
H172500 H     0.65798   0.52997   0.37114   0.00000  Uiso   1.00
C318501 C     0.70444   0.52127   0.39911   0.00000  Uiso   1.00
N12502 N     0.59538   0.56063   0.44153   0.00000  Uiso   1.00
H173503 H     0.55615   0.61645   0.46173   0.00000  Uiso   1.00
C319504 C     0.51520   0.66395   0.46080   0.00000  Uiso   1.00
H174505 H     0.71909   0.53203   0.41610   0.00000  Uiso   1.00
C320506 C     0.71985   0.48658   0.41059   0.00000  Uiso   1.00
C321507 C     0.49558   0.65587   0.60096   0.00000  Uiso   1.00
C322508 C     0.50071   0.69289   0.33328   0.00000  Uiso   1.00
C323509 C     0.71094   0.47048   0.25863   0.00000  Uiso   1.00
C324510 C     0.74306   0.46883   0.57897   0.00000  Uiso   1.00
C325511 C     0.46316   0.67745   0.63516   0.00000  Uiso   1.00
H175512 H     0.50586   0.63308   0.69860   0.00000  Uiso   1.00
C326513 C     0.46786   0.71134   0.32159   0.00000  Uiso   1.00
H176514 H     0.51507   0.70008   0.22124   0.00000  Uiso   1.00
C327515 C     0.72447   0.43759   0.27199   0.00000  Uiso   1.00
H177516 H     0.69372   0.48358   0.11942   0.00000  Uiso   1.00
C328517 C     0.75606   0.43600   0.60405   0.00000  Uiso   1.00
H178518 H     0.75012   0.48103   0.70162   0.00000  Uiso   1.00
C329519 C     0.44852   0.70463   0.48276   0.00000  Uiso   1.00
C330520 C     0.44583   0.67136   0.84154   0.00000  Uiso   1.00
C331521 C     0.45514   0.73622   0.12625   0.00000  Uiso   1.00
C332522 C     0.74677   0.41991   0.44946   0.00000  Uiso   1.00
C333523 C     0.71467   0.42254   0.09124   0.00000  Uiso   1.00
C334524 C     0.77954   0.41905   0.79671   0.00000  Uiso   1.00
H179525 H     0.44698   0.64855   0.82458   0.00000  Uiso   1.00
H180526 H     0.45669   0.67041   0.01305   0.00000  Uiso   1.00
H181527 H     0.42094   0.68996   0.86161   0.00000  Uiso   1.00
H182528 H     0.46122   0.75460   0.15008   0.00000  Uiso   1.00
H183529 H     0.46550   0.72531   0.94810   0.00000  Uiso   1.00
H184530 H     0.42948   0.74799   0.11515   0.00000  Uiso   1.00
H185531 H     0.69157   0.42520   0.14325   0.00000  Uiso   1.00
H186532 H     0.71212   0.43403   0.91288   0.00000  Uiso   1.00
H187533 H     0.73164   0.39718   0.06701   0.00000  Uiso   1.00
H188534 H     0.80332   0.41380   0.73417   0.00000  Uiso   1.00
H189535 H     0.77330   0.43350   0.96054   0.00000  Uiso   1.00
H190536 H     0.78140   0.39651   0.85195   0.00000  Uiso   1.00
C335537 C     0.39463   0.71188   0.44340   0.00000  Uiso   1.00
C336538 C     0.39876   0.75845   0.53129   0.00000  Uiso   1.00
C337539 C     0.36086   0.73153   0.45659   0.00000  Uiso   1.00
C338540 C     0.40793   0.67878   0.39028   0.00000  Uiso   1.00
C339541 C     0.36541   0.77868   0.50867   0.00000  Uiso   1.00
C340542 C     0.41640   0.77246   0.59580   0.00000  Uiso   1.00
C341543 C     0.34162   0.71759   0.44805   0.00000  Uiso   1.00
C342544 C     0.34652   0.76486   0.47888   0.00000  Uiso   1.00
C343545 C     0.38953   0.66551   0.38015   0.00000  Uiso   1.00
H191546 H     0.43362   0.66360   0.36047   0.00000  Uiso   1.00
C344547 C     0.35110   0.81242   0.52210   0.00000  Uiso   1.00
C345548 C     0.40207   0.80493   0.62062   0.00000  Uiso   1.00
H192549 H     0.44176   0.75751   0.62510   0.00000  Uiso   1.00
C346550 C     0.30805   0.73694   0.47318   0.00000  Uiso   1.00
C347551 C     0.35588   0.68424   0.41874   0.00000  Uiso   1.00
C348552 C     0.31286   0.78455   0.47402   0.00000  Uiso   1.00
H193553 H     0.40059   0.64006   0.34325   0.00000  Uiso   1.00
C349554 C     0.31758   0.83247   0.47588   0.00000  Uiso   1.00
C350555 C     0.36992   0.82494   0.57874   0.00000  Uiso   1.00
H194556 H     0.41615   0.81524   0.67043   0.00000  Uiso   1.00
C351557 C     0.28899   0.72282   0.48946   0.00000  Uiso   1.00
C352558 C     0.29383   0.77069   0.47566   0.00000  Uiso   1.00
C353559 C     0.33646   0.67085   0.42464   0.00000  Uiso   1.00
C354560 C     0.29876   0.81828   0.46204   0.00000  Uiso   1.00
C355561 C     0.30297   0.86560   0.44132   0.00000  Uiso   1.00
H195562 H     0.35979   0.85060   0.59620   0.00000  Uiso   1.00
C356563 C     0.25484   0.74303   0.52928   0.00000  Uiso   1.00
C357564 C     0.30399   0.68959   0.46393   0.00000  Uiso   1.00
C358565 C     0.26015   0.79042   0.47447   0.00000  Uiso   1.00
H196566 H     0.34720   0.64517   0.40050   0.00000  Uiso   1.00
C359567 C     0.26561   0.83751   0.42994   0.00000  Uiso   1.00
C360568 C     0.27115   0.88415   0.39431   0.00000  Uiso   1.00
H197569 H     0.31686   0.87730   0.44566   0.00000  Uiso   1.00
C361570 C     0.24077   0.77672   0.50725   0.00000  Uiso   1.00
C362571 C     0.23524   0.73065   0.58913   0.00000  Uiso   1.00
H198572 H     0.28999   0.67793   0.46959   0.00000  Uiso   1.00
C363573 C     0.24620   0.82363   0.44225   0.00000  Uiso   1.00
C364574 C     0.25183   0.87073   0.38997   0.00000  Uiso   1.00
H199575 H     0.26085   0.90973   0.36297   0.00000  Uiso   1.00
C365576 C     0.20713   0.79705   0.52510   0.00000  Uiso   1.00
C366577 C     0.20252   0.75071   0.62423   0.00000  Uiso   1.00
H200578 H     0.24516   0.70505   0.61403   0.00000  Uiso   1.00
C367579 C     0.21262   0.84325   0.42381   0.00000  Uiso   1.00
C368580 C     0.21886   0.88920   0.34209   0.00000  Uiso   1.00
C369581 C     0.18859   0.78310   0.59015   0.00000  Uiso   1.00
H201582 H     0.18775   0.74048   0.67634   0.00000  Uiso   1.00
C370583 C     0.20023   0.87602   0.35660   0.00000  Uiso   1.00
H202584 H     0.20853   0.91439   0.29399   0.00000  Uiso   1.00
H203585 H     0.16282   0.79804   0.61469   0.00000  Uiso   1.00
H204586 H     0.17513   0.89088   0.31789   0.00000  Uiso   1.00
C371587 C     0.41349   0.72512   0.48656   0.00000  Uiso   1.00
C372588 C     0.19307   0.83034   0.47445   0.00000  Uiso   1.00
C373589 C     0.75441   0.71445   0.48267   0.00000  Uiso   1.00
C374590 C     0.85138   0.83548   0.49483   0.00000  Uiso   1.00
C375591 C     0.86531   0.16309   0.46981   0.00000  Uiso   1.00
C376592 C     0.75980   0.38492   0.46582   0.00000  Uiso   1.00
loop_
_geom_bond_atom_site_label_1
_geom_bond_atom_site_label_2
_geom_bond_distance
_geom_bond_site_symmetry_2
_ccdc_geom_bond_type
C11    C22     1.419   .     S
C11    C55     1.423   .     D
C11    C810    1.468   .     S
C22    C33     1.436   .     D
C22    C77     1.441   .     S
C33    C1014   1.472   .     S
C33    N316    1.345   .     S
C44    C55     1.427   .     S
C44    C912    1.475   .     S
C44    N316    1.354   .     D
C55    C66     1.438   .     S
C66    N18     1.153   .     T
C77    N29     1.153   .     T
C810   H111    1.102   .     S
C810   C1117   1.357   .     D
C912   H213    1.103   .     S
C912   C1321   1.358   .     D
C1014  H315    1.102   .     S
C1014  C1219   1.357   .     D
C1117  C1423   1.461   .     S
C1117  H418    1.101   1_556 S
H418   C1117   1.101   1_554 S
C1219  H520    1.104   .     S
C1219  C2031   1.471   .     S
C1321  H622    1.101   .     S
C1321  C2639   1.475   .     S
C1423  C1625   1.409   .     S
C1423  C1524   1.408   1_556 D
C1524  C1726   1.401   .     S
C1524  H727    1.101   .     S
C1524  C1423   1.408   1_554 D
C1625  C1828   1.403   .     D
C1625  H829    1.102   .     S
C1726  C3351   1.502   .     S
C1726  C1930   1.423   1_554 D
C1828  C1930   1.425   .     S
C1828  C3247   1.506   .     S
C1930  C186294  1.497   .     S
C1930  C1726   1.423   1_556 D
C2031  C2233   1.405   .     D
C2031  C2132   1.409   1_556 S
C2132  C2334   1.402   .     D
C2132  H935    1.098   .     S
C2132  C2031   1.409   1_554 S
C2233  C2436   1.402   .     S
C2233  H1037   1.098   .     S
C2334  C3455   1.508   .     S
C2334  C2538   1.425   1_554 S
C2436  C2538   1.423   .     D
C2436  C3559   1.503   .     S
C2538  C184292  1.496   .     S
C2538  C2334   1.425   1_556 S
C2639  C2740   1.405   .     D
C2639  C2841   1.411   1_556 S
C2740  C2942   1.404   .     S
C2740  H1143   1.101   .     S
C2841  C3044   1.402   .     D
C2841  H1245   1.102   .     S
C2841  C2639   1.411   1_554 S
C2942  C3146   1.421   .     D
C2942  C3767   1.502   .     S
C3044  C3663   1.505   .     S
C3044  C3146   1.425   1_554 S
C3146  C187295  1.499   .     S
C3146  C3044   1.425   1_556 S
C3247  H1348   1.103   .     S
C3247  H1449   1.100   .     S
C3247  H1550   1.100   .     S
C3351  H1652   1.102   .     S
C3351  H1753   1.102   .     S
C3351  H1854   1.098   .     S
C3455  H1956   1.104   .     S
C3455  H2057   1.100   .     S
C3455  H2158   1.099   .     S
C3559  H2260   1.103   .     S
C3559  H2361   1.102   .     S
C3559  H2462   1.098   .     S
C3663  H2564   1.103   .     S
C3663  H2665   1.100   .     S
C3663  H2766   1.099   .     S
C3767  H2868   1.102   .     S
C3767  H2969   1.102   .     S
C3767  H3070   1.098   .     S
C3871  C4073   1.438   .     S
C3871  C4174   1.445   .     S
C3871  C186294  1.416   .     D
C3972  C4275   1.436   .     D
C3972  C4376   1.425   .     S
C3972  C186294  1.436   1_554 S
C4073  C4477   1.433   .     D
C4073  C4578   1.421   .     S
C4174  C4679   1.368   .     D
C4174  H3180   1.101   .     S
C4275  C4781   1.436   .     S
C4275  C4578   1.428   1_554 S
C4376  C4882   1.386   .     D
C4376  H3283   1.100   .     S
C4477  C4984   1.431   .     S
C4477  C5085   1.427   .     S
C4578  C5186   1.436   .     D
C4578  C4275   1.428   1_556 S
C4679  C5085   1.438   .     S
C4679  H3387   1.102   .     S
C4781  C5389   1.405   .     D
C4781  C5288   1.464   1_554 S
C4882  C5389   1.406   .     S
C4882  H3490   1.101   .     S
C4984  C5592   1.435   .     D
C4984  C5491   1.427   1_556 S
C5085  C5693   1.414   .     D
C5186  C5592   1.417   .     S
C5186  C5794   1.435   .     S
C5288  C5794   1.427   .     S
C5288  C5895   1.416   .     D
C5288  C4781   1.464   1_556 S
C5389  H3596   1.100   .     S
C5491  C5997   1.464   .     S
C5491  C4984   1.427   1_554 S
C5491  C6098   1.417   1_554 D
C5592  C6199   1.436   1_556 S
C5693  C6098   1.391   .     S
C5693  H36100  1.101   .     S
C5794  C62101  1.431   .     D
C5895  C63102  1.391   .     S
C5895  H37103  1.100   .     S
C5997  C64104  1.436   .     S
C5997  C65105  1.405   .     D
C6098  H38106  1.101   .     S
C6098  C5491   1.417   1_556 D
C6199  C64104  1.428   .     S
C6199  C5592   1.436   1_554 S
C6199  C66107  1.421   1_554 D
C62101 C66107  1.433   .     S
C62101 C67108  1.427   .     S
C63102 C67108  1.413   .     D
C63102 H39109  1.101   .     S
C64104 C68110  1.436   .     D
C65105 C69111  1.405   .     S
C65105 H40112  1.100   .     S
C66107 C70113  1.438   .     S
C66107 C6199   1.421   1_556 D
C67108 C71114  1.438   .     S
C68110 C72115  1.424   .     S
C68110 C185293  1.438   .     S
C69111 C72115  1.386   .     D
C69111 H41116  1.101   .     S
C70113 C73117  1.444   .     S
C70113 C185293  1.415   1_556 D
C71114 C73117  1.368   .     D
C71114 H42118  1.101   .     S
C72115 H43119  1.101   .     S
C73117 H44120  1.101   .     S
C74121 C76123  1.438   .     S
C74121 C77124  1.445   .     S
C74121 C187295  1.415   .     D
C75122 C78125  1.437   .     D
C75122 C187295  1.438   .     S
C75122 C79126  1.425   1_556 S
C76123 C80127  1.433   .     D
C76123 C81128  1.421   .     S
C77124 C82129  1.368   .     D
C77124 H45130  1.101   .     S
C78125 C81128  1.428   .     S
C78125 C83131  1.437   .     S
C79126 C84132  1.387   .     D
C79126 H46133  1.100   .     S
C79126 C75122  1.425   1_554 S
C80127 C85134  1.430   .     S
C80127 C86135  1.427   .     S
C81128 C87136  1.437   .     D
C82129 C86135  1.437   .     S
C82129 H47137  1.102   .     S
C83131 C88138  1.465   .     S
C83131 C89139  1.406   1_556 D
C84132 C89139  1.405   .     S
C84132 H48140  1.101   .     S
C85134 C90141  1.426   .     S
C85134 C91142  1.435   .     D
C86135 C92143  1.413   .     D
C87136 C91142  1.417   .     S
C87136 C93144  1.434   .     S
C88138 C93144  1.427   .     S
C88138 C94145  1.417   .     D
C89139 H49146  1.100   .     S
C89139 C83131  1.406   1_554 D
C90141 C95147  1.463   .     S
C90141 C96148  1.416   .     D
C91142 C97149  1.436   .     S
C92143 C96148  1.390   .     S
C92143 H50150  1.102   .     S
C93144 C98151  1.432   .     D
C94145 C99152  1.391   .     S
C94145 H51153  1.100   .     S
C95147 C100154  1.436   1_565 D
C95147 C101155  1.405   1_566 S
C96148 H52156  1.100   .     S
C97149 C102157  1.422   .     D
C97149 C100154  1.427   1_565 S
C98151 C102157  1.433   .     S
C98151 C103158  1.427   .     S
C99152 C103158  1.414   .     D
C99152 H53159  1.102   .     S
C100154 C104160  1.435   .     S
C100154 C95147  1.436   1_545 D
C100154 C97149  1.427   1_545 S
C101155 C105161  1.404   .     D
C101155 H54162  1.100   .     S
C101155 C95147  1.405   1_544 S
C102157 C106163  1.440   1_565 S
C103158 C107164  1.440   1_565 S
C104160 C188296  1.439   .     S
C104160 C108165  1.426   1_556 D
C105161 C108165  1.386   .     S
C105161 H55166  1.100   .     S
C106163 C109167  1.445   .     S
C106163 C188296  1.415   .     D
C106163 C102157  1.440   1_545 S
C107164 C109167  1.369   .     D
C107164 H56168  1.101   .     S
C107164 C103158  1.440   1_545 S
C108165 H57169  1.100   .     S
C108165 C104160  1.426   1_554 D
C109167 H58170  1.101   .     S
C110171 C111172  1.423   .     S
C110171 C185293  1.499   .     S
C110171 C112173  1.423   1_554 D
C111172 C113174  1.402   .     D
C111172 C114175  1.504   .     S
C112173 C115176  1.402   .     S
C112173 C116177  1.502   .     S
C112173 C110171  1.423   1_556 D
C113174 C117178  1.411   .     S
C113174 H59179  1.102   .     S
C114175 H60180  1.103   .     S
C114175 H61181  1.100   .     S
C114175 H62182  1.099   .     S
C115176 H63183  1.101   .     S
C115176 C117178  1.410   1_556 D
C116177 H64184  1.102   .     S
C116177 H65185  1.101   .     S
C116177 H66186  1.098   .     S
C117178 C118187  1.464   .     S
C117178 C115176  1.410   1_554 D
C118187 H67189  1.104   .     S
C118187 C119188  1.357   1_554 D
C119188 C120190  1.471   .     S
C119188 H68191  1.104   .     S
C119188 C118187  1.357   1_556 D
C120190 C121192  1.425   .     S
C120190 N4193   1.345   .     D
C121192 C122194  1.419   .     D
C121192 C123195  1.443   .     S
N4193  C124196  1.346   .     S
C122194 C125197  1.416   .     S
C122194 C126198  1.472   .     S
C123195 N5199   1.151   .     T
C124196 C125197  1.426   .     D
C124196 C127200  1.465   .     S
C125197 C128201  1.443   .     S
C126198 H69202  1.104   .     S
C126198 C129203  1.358   1_556 D
C127200 H70204  1.102   .     S
C127200 C130205  1.359   .     D
C128201 N6206   1.150   .     T
C129203 H71207  1.104   .     S
C129203 C131208  1.466   .     S
C129203 C126198  1.358   1_554 D
C130205 H72209  1.105   .     S
C130205 C132210  1.465   .     S
C131208 C133211  1.411   .     D
C131208 C134212  1.411   1_554 S
C132210 C135213  1.410   .     S
C132210 C136214  1.410   1_556 D
C133211 C137215  1.404   .     S
C133211 H73216  1.102   .     S
C134212 C138217  1.402   .     D
C134212 H74218  1.102   .     S
C134212 C131208  1.411   1_556 S
C135213 C139219  1.401   .     D
C135213 H75220  1.101   .     S
C136214 C140221  1.404   .     S
C136214 H76222  1.102   .     S
C136214 C132210  1.410   1_554 D
C137215 C141223  1.421   .     D
C137215 C142224  1.502   .     S
C138217 C143225  1.502   .     S
C138217 C141223  1.423   1_556 S
C139219 C144226  1.424   .     S
C139219 C145227  1.503   .     S
C140221 C146228  1.505   .     S
C140221 C144226  1.424   1_554 D
C141223 C183291  1.502   .     S
C141223 C138217  1.423   1_554 S
C142224 H77229  1.102   .     S
C142224 H78230  1.101   .     S
C142224 H79231  1.098   .     S
C143225 H80232  1.103   .     S
C143225 H81233  1.100   .     S
C143225 H82234  1.099   .     S
C144226 C188296  1.500   .     S
C144226 C140221  1.424   1_556 D
C145227 H83235  1.103   .     S
C145227 H84236  1.101   .     S
C145227 H85237  1.099   .     S
C146228 H86238  1.103   .     S
C146228 H87239  1.102   .     S
C146228 H88240  1.099   .     S
C147241 C150244  1.444   .     S
C147241 C149243  1.439   1_556 S
C147241 C183291  1.415   1_556 D
C148242 C151245  1.437   .     S
C148242 C152246  1.424   .     D
C148242 C183291  1.437   .     S
C149243 C147241  1.439   1_554 S
C149243 C153247  1.433   1_454 D
C149243 C154248  1.423   1_455 S
C150244 C155249  1.368   .     D
C150244 H89250  1.101   .     S
C151245 C156251  1.437   .     D
C151245 C154248  1.428   1_455 S
C152246 C157252  1.385   .     S
C152246 H90253  1.100   .     S
C153247 C158254  1.431   .     S
C153247 C149243  1.433   1_656 D
C153247 C159255  1.428   1_655 S
C154248 C160256  1.437   .     D
C154248 C149243  1.423   1_655 S
C154248 C151245  1.428   1_655 S
C155249 C159255  1.437   .     S
C155249 H91257  1.101   .     S
C156251 C162259  1.406   .     S
C156251 C161258  1.464   1_455 S
C157252 C162259  1.405   .     D
C157252 H92260  1.101   .     S
C158254 C163261  1.427   .     S
C158254 C164262  1.435   1_556 D
C159255 C153247  1.428   1_455 S
C159255 C165263  1.414   1_455 D
C160256 C164262  1.417   .     S
C160256 C166264  1.436   .     S
C161258 C166264  1.427   .     D
C161258 C167265  1.417   .     S
C161258 C156251  1.464   1_655 S
C162259 H93266  1.100   .     S
C163261 C169268  1.416   .     D
C163261 C168267  1.463   1_556 S
C164262 C158254  1.435   1_554 D
C164262 C170269  1.437   1_554 S
C165263 C169268  1.390   .     S
C165263 H94270  1.101   .     S
C165263 C159255  1.414   1_655 D
C166264 C171271  1.431   1_554 S
C167265 C172272  1.391   .     D
C167265 H95273  1.100   .     S
C168267 C174275  1.405   .     S
C168267 C163261  1.463   1_554 S
C168267 C173274  1.435   1_554 D
C169268 H96276  1.100   .     S
C170269 C173274  1.427   .     S
C170269 C175277  1.421   .     D
C170269 C164262  1.437   1_556 S
C171271 C175277  1.432   .     S
C171271 C176278  1.427   .     D
C171271 C166264  1.431   1_556 S
C172272 C176278  1.413   1_554 S
C172272 H97279  1.102   1_554 S
C173274 C168267  1.435   1_556 D
C173274 C177280  1.435   1_556 S
C174275 C178281  1.404   .     D
C174275 H98282  1.100   .     S
C175277 C179283  1.440   .     S
C176278 C180284  1.439   .     S
C176278 C172272  1.413   1_556 S
H97279 C172272  1.102   1_556 S
C177280 C181285  1.425   .     D
C177280 C173274  1.435   1_554 S
C177280 C184292  1.439   1_554 S
C178281 C181285  1.385   .     S
C178281 H99286  1.099   .     S
C179283 C182287  1.445   .     S
C179283 C184292  1.414   .     D
C180284 C182287  1.368   .     D
C180284 H100288  1.101   .     S
C181285 H101289  1.101   .     S
C182287 H102290  1.102   .     S
C183291 C147241  1.415   1_554 D
C184292 C177280  1.439   1_556 S
C185293 C70113  1.415   1_554 D
C186294 C3972   1.436   1_556 S
C189297 C190298  1.414   .     D
C189297 C193301  1.416   .     S
C189297 C196306  1.473   .     S
C190298 C195303  1.443   .     S
C190298 C191299  1.427   1_655 S
C191299 C198310  1.464   .     S
C191299 C190298  1.427   1_455 S
C191299 N9312   1.347   1_455 D
C192300 C193301  1.426   .     D
C192300 N9312   1.346   .     S
C192300 C197308  1.472   1_565 S
C193301 C194302  1.443   .     S
C194302 N7304   1.151   .     T
C195303 N8305   1.151   1_655 T
N8305  C195303  1.151   1_455 T
C196306 H103307  1.104   .     S
C196306 C199313  1.357   .     D
C197308 H104309  1.104   .     S
C197308 C201317  1.357   .     D
C197308 C192300  1.472   1_545 S
C198310 H105311  1.102   .     S
C198310 C200315  1.358   .     D
N9312  C191299  1.347   1_655 D
C199313 H106314  1.105   .     S
C199313 C202319  1.464   .     S
C200315 H107316  1.104   .     S
C200315 C208327  1.467   .     S
C201317 H108318  1.105   .     S
C201317 C214335  1.466   .     S
C202319 C203320  1.410   .     D
C202319 C204321  1.411   .     S
C203320 C205322  1.403   .     S
C203320 H109323  1.102   .     S
C204321 C206324  1.402   .     D
C204321 H110325  1.101   .     S
C205322 C207326  1.421   .     D
C205322 C221347  1.501   .     S
C206324 C207326  1.424   .     S
C206324 C220343  1.504   .     S
C207326 C374590  1.500   .     S
C208327 C209328  1.411   .     S
C208327 C210329  1.409   .     D
C209328 C211330  1.404   .     D
C209328 H111331  1.102   .     S
C210329 C212332  1.402   .     S
C210329 H112333  1.101   .     S
C211330 C213334  1.425   .     S
C211330 C222351  1.505   .     S
C212332 C213334  1.422   .     D
C212332 C223355  1.502   .     S
C213334 C372588  1.499   .     S
C214335 C215336  1.410   .     D
C214335 C216337  1.410   .     S
C215336 C217338  1.401   .     S
C215336 H113339  1.102   .     S
C216337 C218340  1.404   .     D
C216337 H114341  1.102   .     S
C217338 C219342  1.423   .     D
C217338 C225363  1.502   .     S
C218340 C219342  1.423   .     S
C218340 C224359  1.504   .     S
C219342 C375591  1.500   .     S
C220343 H115344  1.103   .     S
C220343 H117346  1.099   .     S
C220343 H116345  1.100   1_554 S
H116345 C220343  1.100   1_556 S
C221347 H118348  1.102   .     S
C221347 H120350  1.097   .     S
C221347 H119349  1.101   1_556 S
H119349 C221347  1.101   1_554 S
C222351 H121352  1.103   .     S
C222351 H122353  1.101   .     S
C222351 H123354  1.099   .     S
C223355 H124356  1.102   .     S
C223355 H126358  1.098   .     S
C223355 H125357  1.102   1_554 S
H125357 C223355  1.102   1_556 S
C224359 H127360  1.103   .     S
C224359 H129362  1.099   .     S
C224359 H128361  1.101   1_556 S
H128361 C224359  1.101   1_554 S
C225363 H130364  1.102   .     S
C225363 H132366  1.098   .     S
C225363 H131365  1.100   1_554 S
H131365 C225363  1.100   1_556 S
C226367 C228369  1.438   .     S
C226367 C229370  1.444   .     D
C226367 C374590  1.416   .     S
C227368 C230371  1.436   .     S
C227368 C231372  1.425   .     S
C227368 C374590  1.437   .     D
C228369 C232373  1.434   .     D
C228369 C233374  1.422   .     S
C229370 C234375  1.368   .     S
C229370 H133376  1.100   .     S
C230371 C233374  1.427   .     D
C230371 C235377  1.437   .     S
C231372 C236378  1.386   .     D
C231372 H134379  1.100   .     S
C232373 C237380  1.431   .     S
C232373 C238381  1.428   .     S
C233374 C239382  1.437   .     S
C234375 C238381  1.437   .     D
C234375 H135383  1.101   .     S
C235377 C240384  1.463   .     S
C235377 C241385  1.405   .     D
C236378 C241385  1.405   .     S
C236378 H136386  1.100   .     S
C237380 C242387  1.428   .     D
C237380 C243388  1.435   .     S
C238381 C244389  1.414   .     S
C239382 C243388  1.417   .     S
C239382 C245390  1.436   .     D
C240384 C245390  1.427   .     S
C240384 C246391  1.417   .     D
C241385 H137392  1.100   .     S
C242387 C247393  1.463   .     S
C242387 C248394  1.416   .     S
C243388 C249395  1.436   .     D
C244389 C248394  1.390   .     D
C244389 H138396  1.101   .     S
C245390 C250397  1.431   .     S
C246391 C251398  1.391   .     S
C246391 H139399  1.100   .     S
C247393 C252400  1.436   .     D
C247393 C253401  1.406   .     S
C248394 H140402  1.100   .     S
C249395 C252400  1.427   .     S
C249395 C254403  1.421   .     S
C250397 C254403  1.432   .     D
C250397 C255404  1.428   .     S
C251398 C255404  1.413   .     D
C251398 H141405  1.102   .     S
C252400 C256406  1.436   .     S
C253401 C257407  1.405   .     D
C253401 H142408  1.100   .     S
C254403 C258409  1.438   .     S
C255404 C259410  1.439   .     S
C256406 C260411  1.425   .     D
C256406 C373589  1.437   .     S
C257407 C260411  1.386   .     S
C257407 H143412  1.100   .     S
C258409 C261413  1.445   .     S
C258409 C373589  1.415   .     D
C259410 C261413  1.368   .     D
C259410 H144414  1.102   .     S
C260411 H145415  1.101   .     S
C261413 H146416  1.101   .     S
C262417 C264419  1.440   .     S
C262417 C265420  1.444   .     D
C262417 C375591  1.414   .     S
C263418 C266421  1.435   .     S
C263418 C267422  1.425   .     S
C263418 C375591  1.438   .     D
C264419 C268423  1.433   .     D
C264419 C269424  1.422   .     S
C265420 C270425  1.368   .     S
C265420 H147426  1.101   .     S
C266421 C269424  1.427   .     D
C266421 C271427  1.436   .     S
C267422 C272428  1.385   .     D
C267422 H148429  1.101   .     S
C268423 C273430  1.431   .     S
C268423 C274431  1.428   .     S
C269424 C275432  1.437   .     S
C270425 C274431  1.439   .     D
C270425 H149433  1.101   .     S
C271427 C276434  1.463   .     S
C271427 C277435  1.405   .     D
C272428 C277435  1.405   .     S
C272428 H150436  1.101   .     S
C273430 C278437  1.427   .     D
C273430 C279438  1.435   .     S
C274431 C280439  1.414   .     S
C275432 C279438  1.417   .     S
C275432 C281440  1.435   .     D
C276434 C281440  1.426   .     S
C276434 C282441  1.416   .     D
C277435 H151442  1.100   .     S
C278437 C283443  1.465   .     S
C278437 C284444  1.416   .     S
C279438 C285445  1.437   .     D
C280439 C284444  1.391   .     D
C280439 H152446  1.102   .     S
C281440 C286447  1.431   .     S
C282441 C287448  1.391   .     S
C282441 H153449  1.100   .     S
C283443 C288450  1.436   .     D
C283443 C289451  1.405   .     S
C284444 H154452  1.100   .     S
C285445 C288450  1.427   .     S
C285445 C290453  1.421   .     S
C286447 C290453  1.432   .     D
C286447 C291454  1.428   .     S
C287448 C291454  1.413   .     D
C287448 H155455  1.102   .     S
C288450 C292456  1.437   .     S
C289451 C293457  1.405   .     D
C289451 H156458  1.100   .     S
C290453 C294459  1.439   .     S
C291454 C295460  1.437   .     S
C292456 C296461  1.425   .     D
C292456 C376592  1.440   .     S
C293457 C296461  1.386   .     S
C293457 H157462  1.101   .     S
C294459 C297463  1.444   .     S
C294459 C376592  1.414   .     D
C295460 C297463  1.368   .     D
C295460 H158464  1.101   .     S
C296461 H159465  1.100   .     S
C297463 H160466  1.101   .     S
C298467 C299468  1.424   .     S
C298467 C300469  1.424   .     D
C298467 C373589  1.495   .     S
C299468 C301470  1.402   .     D
C299468 C302471  1.504   .     S
C300469 C303472  1.400   .     S
C300469 C304473  1.505   .     S
C301470 C305474  1.408   .     S
C301470 H161475  1.102   .     S
C302471 H162476  1.103   .     S
C302471 H164478  1.098   .     S
C302471 H163477  1.101   1_556 S
C303472 C305474  1.411   .     D
C303472 H165479  1.101   .     S
C304473 H166480  1.103   .     S
C304473 H168482  1.098   .     S
C304473 H167481  1.101   1_554 S
C305474 C306483  1.460   .     S
H163477 C302471  1.101   1_554 S
H167481 C304473  1.101   1_556 S
C306483 C307484  1.356   .     D
C306483 H169485  1.103   .     S
C307484 C308486  1.464   .     S
C307484 H170487  1.099   .     S
C308486 C309488  1.421   .     S
C308486 N10489  1.347   .     D
C309488 C310490  1.428   .     D
C309488 C311491  1.439   .     S
N10489 C312492  1.344   .     S
C310490 C313493  1.423   .     S
C310490 C314494  1.473   .     S
C311491 N11495  1.153   .     T
C312492 C313493  1.435   .     D
C312492 C315496  1.470   .     S
C313493 C316497  1.441   .     S
C314494 H171498  1.103   .     S
C314494 C317499  1.364   .     D
C315496 H172500  1.101   .     S
C315496 C318501  1.358   .     D
C316497 N12502  1.153   .     T
C317499 H173503  1.102   .     S
C317499 C319504  1.473   .     S
C318501 H174505  1.103   .     S
C318501 C320506  1.472   .     S
C319504 C321507  1.410   .     S
C319504 C322508  1.409   .     D
C320506 C323509  1.405   .     S
C320506 C324510  1.410   .     D
C321507 C325511  1.404   .     D
C321507 H175512  1.102   .     S
C322508 C326513  1.402   .     S
C322508 H176514  1.098   .     S
C323509 C327515  1.401   .     D
C323509 H177516  1.101   .     S
C324510 C328517  1.405   .     S
C324510 H178518  1.101   .     S
C325511 C329519  1.423   .     S
C325511 C330520  1.502   .     S
C326513 C329519  1.423   .     D
C326513 C331521  1.504   .     S
C327515 C332522  1.422   .     S
C327515 C333523  1.503   .     S
C328517 C332522  1.426   .     D
C328517 C334524  1.507   .     S
C329519 C371587  1.493   .     S
C330520 H179525  1.101   .     S
C330520 H181527  1.097   .     S
C330520 H180526  1.105   1_556 S
C331521 H182528  1.103   .     S
C331521 H184530  1.097   .     S
C331521 H183529  1.105   1_554 S
C332522 C376592  1.500   .     S
C333523 H185531  1.103   .     S
C333523 H187533  1.099   .     S
C333523 H186532  1.101   1_554 S
C334524 H188534  1.104   .     S
C334524 H189535  1.101   .     S
C334524 H190536  1.099   .     S
H180526 C330520  1.105   1_554 S
H183529 C331521  1.105   1_556 S
H186532 C333523  1.101   1_556 S
C335537 C337539  1.438   .     D
C335537 C338540  1.445   .     S
C335537 C371587  1.417   .     S
C336538 C339541  1.436   .     S
C336538 C340542  1.425   .     S
C336538 C371587  1.438   .     D
C337539 C341543  1.433   .     S
C337539 C342544  1.422   .     S
C338540 C343545  1.368   .     D
C338540 H191546  1.101   .     S
C339541 C342544  1.427   .     D
C339541 C344547  1.436   .     S
C340542 C345548  1.385   .     D
C340542 H192549  1.100   .     S
C341543 C346550  1.431   .     D
C341543 C347551  1.428   .     S
C342544 C348552  1.436   .     S
C343545 C347551  1.438   .     S
C343545 H193553  1.102   .     S
C344547 C349554  1.464   .     S
C344547 C350555  1.406   .     D
C345548 C350555  1.405   .     S
C345548 H194556  1.100   .     S
C346550 C351557  1.426   .     S
C346550 C352558  1.435   .     S
C347551 C353559  1.414   .     D
C348552 C352558  1.416   .     D
C348552 C354560  1.435   .     S
C349554 C354560  1.427   .     D
C349554 C355561  1.416   .     S
C350555 H195562  1.100   .     S
C351557 C356563  1.464   .     S
C351557 C357564  1.417   .     D
C352558 C358565  1.436   .     S
C353559 C357564  1.391   .     S
C353559 H196566  1.102   .     S
C354560 C359567  1.431   .     S
C355561 C360568  1.392   .     D
C355561 H197569  1.100   .     S
C356563 C361570  1.436   .     S
C356563 C362571  1.405   .     D
C357564 H198572  1.101   .     S
C358565 C361570  1.427   .     D
C358565 C363573  1.421   .     S
C359567 C363573  1.432   .     D
C359567 C364574  1.428   .     S
C360568 C364574  1.413   .     S
C360568 H199575  1.101   .     S
C361570 C365576  1.436   .     S
C362571 C366577  1.405   .     S
C362571 H200578  1.100   .     S
C363573 C367579  1.439   .     S
C364574 C368580  1.439   .     D
C365576 C369581  1.425   .     S
C365576 C372588  1.439   .     D
C366577 C369581  1.386   .     D
C366577 H201582  1.101   .     S
C367579 C370583  1.445   .     D
C367579 C372588  1.415   .     S
C368580 C370583  1.369   .     S
C368580 H202584  1.101   .     S
C369581 H203585  1.101   .     S
C370583 H204586  1.101   .     S
