data_709
_audit_creation_date              2023-09-08
_audit_creation_method            'Materials Studio'
_symmetry_space_group_name_H-M    'P1'
_symmetry_Int_Tables_number       1
_symmetry_cell_setting            triclinic
loop_
_symmetry_equiv_pos_as_xyz
  x,y,z
_cell_length_a                    54.1841
_cell_length_b                    54.1841
_cell_length_c                    49.0914
_cell_angle_alpha                 90.0000
_cell_angle_beta                  90.0000
_cell_angle_gamma                 120.0000
loop_
_atom_site_label
_atom_site_type_symbol
_atom_site_fract_x
_atom_site_fract_y
_atom_site_fract_z
_atom_site_U_iso_or_equiv
_atom_site_adp_type
_atom_site_occupancy
C1     C     0.33086   0.63976   0.38778   0.00000  Uiso   1.00
C2     C     0.32872   0.61641   0.37368   0.00000  Uiso   1.00
C3     C     0.32667   0.59313   0.38842   0.00000  Uiso   1.00
C4     C     0.34578   0.57037   0.35724   0.00000  Uiso   1.00
C5     C     0.32346   0.56807   0.37349   0.00000  Uiso   1.00
C6     C     0.29935   0.54124   0.37785   0.00000  Uiso   1.00
C7     C     0.29833   0.51676   0.36749   0.00000  Uiso   1.00
C8     C     0.32152   0.51879   0.35290   0.00000  Uiso   1.00
C9     C     0.34494   0.54585   0.34716   0.00000  Uiso   1.00
C10    C     0.32198   0.49252   0.34621   0.00000  Uiso   1.00
N11    N     0.34577   0.49368   0.33967   0.00000  Uiso   1.00
C12    C     0.37552   0.47451   0.32435   0.00000  Uiso   1.00
C13    C     0.35023   0.46984   0.33662   0.00000  Uiso   1.00
C14    C     0.33149   0.44283   0.34771   0.00000  Uiso   1.00
C15    C     0.33813   0.42106   0.34645   0.00000  Uiso   1.00
C16    C     0.36359   0.42582   0.33429   0.00000  Uiso   1.00
C17    C     0.38222   0.45275   0.32304   0.00000  Uiso   1.00
C18    C     0.38507   0.35912   0.33364   0.00000  Uiso   1.00
C19    C     0.35689   0.42491   0.62618   0.00000  Uiso   1.00
C20    C     0.33255   0.40728   0.64202   0.00000  Uiso   1.00
C21    C     0.30746   0.40832   0.63684   0.00000  Uiso   1.00
C22    C     0.30602   0.42444   0.61542   0.00000  Uiso   1.00
C23    C     0.32996   0.44094   0.59909   0.00000  Uiso   1.00
C24    C     0.35543   0.44111   0.60474   0.00000  Uiso   1.00
C25    C     0.31580   0.47511   0.58002   0.00000  Uiso   1.00
C26    C     0.32839   0.45807   0.57634   0.00000  Uiso   1.00
C27    C     0.33922   0.45719   0.55057   0.00000  Uiso   1.00
C28    C     0.33738   0.47287   0.52883   0.00000  Uiso   1.00
C29    C     0.32480   0.48991   0.53261   0.00000  Uiso   1.00
C30    C     0.31393   0.49067   0.55825   0.00000  Uiso   1.00
N31    N     0.32234   0.50660   0.51118   0.00000  Uiso   1.00
C32    C     0.33587   0.51337   0.48809   0.00000  Uiso   1.00
C33    C     0.32789   0.57111   0.43391   0.00000  Uiso   1.00
C34    C     0.32744   0.59381   0.41744   0.00000  Uiso   1.00
C35    C     0.32922   0.61729   0.43132   0.00000  Uiso   1.00
C36    C     0.33088   0.63995   0.41664   0.00000  Uiso   1.00
C37    C     0.30846   0.55833   0.45536   0.00000  Uiso   1.00
C38    C     0.31048   0.53896   0.47265   0.00000  Uiso   1.00
C39    C     0.33201   0.53202   0.46876   0.00000  Uiso   1.00
C40    C     0.34902   0.56372   0.42964   0.00000  Uiso   1.00
C41    C     0.35089   0.54414   0.44680   0.00000  Uiso   1.00
C42    C     0.36523   0.37437   0.64264   0.00000  Uiso   1.00
C43    C     0.38702   0.36775   0.64236   0.00000  Uiso   1.00
C44    C     0.40284   0.37080   0.66600   0.00000  Uiso   1.00
C45    C     0.39608   0.38005   0.69004   0.00000  Uiso   1.00
C46    C     0.37429   0.38667   0.69036   0.00000  Uiso   1.00
F47    F     0.40744   0.45844   0.31187   0.00000  Uiso   1.00
F48    F     0.50470   0.36071   0.27147   0.00000  Uiso   1.00
H49    H     0.32838   0.61619   0.35162   0.00000  Uiso   1.00
H50    H     0.36454   0.59097   0.35374   0.00000  Uiso   1.00
H51    H     0.28191   0.53919   0.39030   0.00000  Uiso   1.00
H52    H     0.28006   0.49614   0.37209   0.00000  Uiso   1.00
H53    H     0.36303   0.54800   0.33577   0.00000  Uiso   1.00
H54    H     0.30263   0.47229   0.34897   0.00000  Uiso   1.00
H55    H     0.39039   0.49535   0.31624   0.00000  Uiso   1.00
H56    H     0.31218   0.43850   0.35814   0.00000  Uiso   1.00
H57    H     0.32342   0.40049   0.35520   0.00000  Uiso   1.00
H58    H     0.37731   0.42679   0.63053   0.00000  Uiso   1.00
H59    H     0.28869   0.39624   0.64932   0.00000  Uiso   1.00
H60    H     0.28606   0.42384   0.61151   0.00000  Uiso   1.00
H61    H     0.37443   0.45431   0.59289   0.00000  Uiso   1.00
H62    H     0.34869   0.44395   0.54715   0.00000  Uiso   1.00
H63    H     0.34540   0.47113   0.50920   0.00000  Uiso   1.00
H64    H     0.30424   0.50375   0.56141   0.00000  Uiso   1.00
H65    H     0.35152   0.50715   0.48345   0.00000  Uiso   1.00
H66    H     0.32999   0.61824   0.45337   0.00000  Uiso   1.00
H67    H     0.29202   0.56375   0.45900   0.00000  Uiso   1.00
H68    H     0.29549   0.52981   0.48932   0.00000  Uiso   1.00
H69    H     0.36460   0.57376   0.41357   0.00000  Uiso   1.00
H70    H     0.36770   0.53917   0.44345   0.00000  Uiso   1.00
H71    H     0.35300   0.37110   0.62420   0.00000  Uiso   1.00
H72    H     0.39155   0.36024   0.62360   0.00000  Uiso   1.00
H73    H     0.40719   0.38143   0.70883   0.00000  Uiso   1.00
H74    H     0.36897   0.39227   0.70975   0.00000  Uiso   1.00
C75    C     0.99753   0.97309   0.72111   0.00000  Uiso   1.00
C76    C     0.99539   0.94974   0.70701   0.00000  Uiso   1.00
C77    C     0.99334   0.92646   0.72175   0.00000  Uiso   1.00
C78    C     0.01245   0.90370   0.69057   0.00000  Uiso   1.00
C79    C     0.99013   0.90140   0.70682   0.00000  Uiso   1.00
C80    C     0.96602   0.87457   0.71118   0.00000  Uiso   1.00
C81    C     0.96500   0.85009   0.70082   0.00000  Uiso   1.00
C82    C     0.98819   0.85212   0.68623   0.00000  Uiso   1.00
C83    C     0.01161   0.87918   0.68049   0.00000  Uiso   1.00
C84    C     0.98865   0.82585   0.67954   0.00000  Uiso   1.00
N85    N     0.01244   0.82701   0.67300   0.00000  Uiso   1.00
C86    C     0.04219   0.80784   0.65768   0.00000  Uiso   1.00
C87    C     0.01690   0.80317   0.66995   0.00000  Uiso   1.00
C88    C     0.99816   0.77616   0.68104   0.00000  Uiso   1.00
C89    C     0.00480   0.75439   0.67978   0.00000  Uiso   1.00
C90    C     0.03026   0.75915   0.66762   0.00000  Uiso   1.00
C91    C     0.04889   0.78608   0.65637   0.00000  Uiso   1.00
C92    C     0.05174   0.69245   0.66697   0.00000  Uiso   1.00
C93    C     0.02356   0.75824   0.95951   0.00000  Uiso   1.00
C94    C     0.99922   0.74061   0.97535   0.00000  Uiso   1.00
C95    C     0.97413   0.74165   0.97017   0.00000  Uiso   1.00
C96    C     0.97269   0.75777   0.94875   0.00000  Uiso   1.00
C97    C     0.99663   0.77427   0.93242   0.00000  Uiso   1.00
C98    C     0.02210   0.77444   0.93807   0.00000  Uiso   1.00
C99    C     0.98247   0.80844   0.91335   0.00000  Uiso   1.00
C100   C     0.99506   0.79140   0.90967   0.00000  Uiso   1.00
C101   C     0.00589   0.79052   0.88390   0.00000  Uiso   1.00
C102   C     0.00405   0.80620   0.86216   0.00000  Uiso   1.00
C103   C     0.99147   0.82324   0.86594   0.00000  Uiso   1.00
C104   C     0.98060   0.82400   0.89158   0.00000  Uiso   1.00
N105   N     0.98901   0.83993   0.84451   0.00000  Uiso   1.00
C106   C     0.00254   0.84670   0.82142   0.00000  Uiso   1.00
C107   C     0.99456   0.90444   0.76724   0.00000  Uiso   1.00
C108   C     0.99411   0.92714   0.75077   0.00000  Uiso   1.00
C109   C     0.99589   0.95062   0.76465   0.00000  Uiso   1.00
C110   C     0.99755   0.97328   0.74997   0.00000  Uiso   1.00
C111   C     0.97513   0.89166   0.78869   0.00000  Uiso   1.00
C112   C     0.97715   0.87229   0.80598   0.00000  Uiso   1.00
C113   C     0.99868   0.86535   0.80209   0.00000  Uiso   1.00
C114   C     0.01569   0.89705   0.76297   0.00000  Uiso   1.00
C115   C     0.01756   0.87747   0.78013   0.00000  Uiso   1.00
C116   C     0.03190   0.70770   0.97597   0.00000  Uiso   1.00
C117   C     0.05369   0.70108   0.97569   0.00000  Uiso   1.00
C118   C     0.06951   0.70413   0.99933   0.00000  Uiso   1.00
C119   C     0.06275   0.71338   0.02337   0.00000  Uiso   1.00
C120   C     0.04096   0.72000   0.02369   0.00000  Uiso   1.00
F121   F     0.07411   0.79177   0.64520   0.00000  Uiso   1.00
F122   F     0.17137   0.69404   0.60480   0.00000  Uiso   1.00
H123   H     0.99505   0.94952   0.68495   0.00000  Uiso   1.00
H124   H     0.03121   0.92430   0.68707   0.00000  Uiso   1.00
H125   H     0.94858   0.87252   0.72363   0.00000  Uiso   1.00
H126   H     0.94673   0.82947   0.70542   0.00000  Uiso   1.00
H127   H     0.02970   0.88133   0.66910   0.00000  Uiso   1.00
H128   H     0.96930   0.80562   0.68230   0.00000  Uiso   1.00
H129   H     0.05706   0.82868   0.64957   0.00000  Uiso   1.00
H130   H     0.97885   0.77183   0.69147   0.00000  Uiso   1.00
H131   H     0.99009   0.73382   0.68853   0.00000  Uiso   1.00
H132   H     0.04398   0.76012   0.96386   0.00000  Uiso   1.00
H133   H     0.95536   0.72957   0.98265   0.00000  Uiso   1.00
H134   H     0.95273   0.75717   0.94484   0.00000  Uiso   1.00
H135   H     0.04110   0.78764   0.92622   0.00000  Uiso   1.00
H136   H     0.01536   0.77728   0.88048   0.00000  Uiso   1.00
H137   H     0.01207   0.80446   0.84253   0.00000  Uiso   1.00
H138   H     0.97091   0.83708   0.89474   0.00000  Uiso   1.00
H139   H     0.01819   0.84048   0.81678   0.00000  Uiso   1.00
H140   H     0.99666   0.95157   0.78670   0.00000  Uiso   1.00
H141   H     0.95869   0.89708   0.79233   0.00000  Uiso   1.00
H142   H     0.96216   0.86314   0.82265   0.00000  Uiso   1.00
H143   H     0.03127   0.90709   0.74690   0.00000  Uiso   1.00
H144   H     0.03437   0.87250   0.77678   0.00000  Uiso   1.00
H145   H     0.01967   0.70443   0.95753   0.00000  Uiso   1.00
H146   H     0.05822   0.69357   0.95693   0.00000  Uiso   1.00
H147   H     0.07386   0.71476   0.04216   0.00000  Uiso   1.00
H148   H     0.03564   0.72560   0.04308   0.00000  Uiso   1.00
C149   C     0.66419   0.30643   0.05445   0.00000  Uiso   1.00
C150   C     0.66205   0.28308   0.04035   0.00000  Uiso   1.00
C151   C     0.66000   0.25980   0.05509   0.00000  Uiso   1.00
C152   C     0.67911   0.23704   0.02391   0.00000  Uiso   1.00
C153   C     0.65679   0.23474   0.04016   0.00000  Uiso   1.00
C154   C     0.63268   0.20791   0.04452   0.00000  Uiso   1.00
C155   C     0.63166   0.18343   0.03416   0.00000  Uiso   1.00
C156   C     0.65485   0.18546   0.01957   0.00000  Uiso   1.00
C157   C     0.67827   0.21252   0.01383   0.00000  Uiso   1.00
C158   C     0.65531   0.15919   0.01288   0.00000  Uiso   1.00
N159   N     0.67910   0.16035   0.00634   0.00000  Uiso   1.00
C160   C     0.70885   0.14118   0.99102   0.00000  Uiso   1.00
C161   C     0.68356   0.13651   0.00329   0.00000  Uiso   1.00
C162   C     0.66482   0.10950   0.01438   0.00000  Uiso   1.00
C163   C     0.67146   0.08773   0.01312   0.00000  Uiso   1.00
C164   C     0.69692   0.09249   0.00096   0.00000  Uiso   1.00
C165   C     0.71555   0.11942   0.98971   0.00000  Uiso   1.00
C166   C     0.71840   0.02579   0.00031   0.00000  Uiso   1.00
C167   C     0.69022   0.09158   0.29285   0.00000  Uiso   1.00
C168   C     0.66588   0.07395   0.30869   0.00000  Uiso   1.00
C169   C     0.64079   0.07499   0.30351   0.00000  Uiso   1.00
C170   C     0.63935   0.09111   0.28209   0.00000  Uiso   1.00
C171   C     0.66329   0.10761   0.26576   0.00000  Uiso   1.00
C172   C     0.68876   0.10778   0.27141   0.00000  Uiso   1.00
C173   C     0.64913   0.14178   0.24669   0.00000  Uiso   1.00
C174   C     0.66172   0.12474   0.24301   0.00000  Uiso   1.00
C175   C     0.67255   0.12386   0.21724   0.00000  Uiso   1.00
C176   C     0.67071   0.13954   0.19550   0.00000  Uiso   1.00
C177   C     0.65813   0.15658   0.19928   0.00000  Uiso   1.00
C178   C     0.64726   0.15734   0.22492   0.00000  Uiso   1.00
N179   N     0.65567   0.17327   0.17785   0.00000  Uiso   1.00
C180   C     0.66920   0.18004   0.15476   0.00000  Uiso   1.00
C181   C     0.66122   0.23778   0.10058   0.00000  Uiso   1.00
C182   C     0.66077   0.26048   0.08411   0.00000  Uiso   1.00
C183   C     0.66255   0.28396   0.09799   0.00000  Uiso   1.00
C184   C     0.66421   0.30662   0.08331   0.00000  Uiso   1.00
C185   C     0.64179   0.22500   0.12203   0.00000  Uiso   1.00
C186   C     0.64381   0.20563   0.13932   0.00000  Uiso   1.00
C187   C     0.66534   0.19869   0.13543   0.00000  Uiso   1.00
C188   C     0.68235   0.23039   0.09631   0.00000  Uiso   1.00
C189   C     0.68422   0.21081   0.11347   0.00000  Uiso   1.00
C190   C     0.69856   0.04104   0.30931   0.00000  Uiso   1.00
C191   C     0.72035   0.03442   0.30903   0.00000  Uiso   1.00
C192   C     0.73617   0.03747   0.33267   0.00000  Uiso   1.00
C193   C     0.72941   0.04672   0.35671   0.00000  Uiso   1.00
C194   C     0.70762   0.05334   0.35703   0.00000  Uiso   1.00
F195   F     0.74077   0.12511   0.97854   0.00000  Uiso   1.00
F196   F     0.83803   0.02738   0.93814   0.00000  Uiso   1.00
H197   H     0.66171   0.28286   0.01829   0.00000  Uiso   1.00
H198   H     0.69787   0.25764   0.02041   0.00000  Uiso   1.00
H199   H     0.61524   0.20586   0.05697   0.00000  Uiso   1.00
H200   H     0.61339   0.16281   0.03876   0.00000  Uiso   1.00
H201   H     0.69636   0.21467   0.00244   0.00000  Uiso   1.00
H202   H     0.63596   0.13896   0.01564   0.00000  Uiso   1.00
H203   H     0.72372   0.16202   0.98291   0.00000  Uiso   1.00
H204   H     0.64551   0.10517   0.02481   0.00000  Uiso   1.00
H205   H     0.65675   0.06716   0.02187   0.00000  Uiso   1.00
H206   H     0.71064   0.09346   0.29720   0.00000  Uiso   1.00
H207   H     0.62202   0.06291   0.31599   0.00000  Uiso   1.00
H208   H     0.61939   0.09051   0.27818   0.00000  Uiso   1.00
H209   H     0.70776   0.12098   0.25956   0.00000  Uiso   1.00
H210   H     0.68202   0.11062   0.21382   0.00000  Uiso   1.00
H211   H     0.67873   0.13780   0.17587   0.00000  Uiso   1.00
H212   H     0.63757   0.17042   0.22808   0.00000  Uiso   1.00
H213   H     0.68485   0.17382   0.15012   0.00000  Uiso   1.00
H214   H     0.66332   0.28491   0.12004   0.00000  Uiso   1.00
H215   H     0.62535   0.23042   0.12567   0.00000  Uiso   1.00
H216   H     0.62882   0.19648   0.15599   0.00000  Uiso   1.00
H217   H     0.69793   0.24043   0.08024   0.00000  Uiso   1.00
H218   H     0.70103   0.20584   0.11012   0.00000  Uiso   1.00
H219   H     0.68633   0.03777   0.29087   0.00000  Uiso   1.00
H220   H     0.72488   0.02691   0.29027   0.00000  Uiso   1.00
H221   H     0.74052   0.04810   0.37550   0.00000  Uiso   1.00
H222   H     0.70230   0.05894   0.37642   0.00000  Uiso   1.00
C223   C     0.36024   0.69110   0.38778   0.00000  Uiso   1.00
C224   C     0.38359   0.71231   0.37368   0.00000  Uiso   1.00
C225   C     0.40687   0.73354   0.38842   0.00000  Uiso   1.00
C226   C     0.42963   0.77541   0.35724   0.00000  Uiso   1.00
C227   C     0.43193   0.75539   0.37349   0.00000  Uiso   1.00
C228   C     0.45876   0.75811   0.37785   0.00000  Uiso   1.00
C229   C     0.48324   0.78157   0.36749   0.00000  Uiso   1.00
C230   C     0.48121   0.80273   0.35290   0.00000  Uiso   1.00
C231   C     0.45415   0.79909   0.34716   0.00000  Uiso   1.00
C232   C     0.50748   0.82946   0.34621   0.00000  Uiso   1.00
N233   N     0.50632   0.85209   0.33967   0.00000  Uiso   1.00
C234   C     0.52549   0.90101   0.32435   0.00000  Uiso   1.00
C235   C     0.53016   0.88039   0.33662   0.00000  Uiso   1.00
C236   C     0.55717   0.88866   0.34771   0.00000  Uiso   1.00
C237   C     0.57894   0.91707   0.34645   0.00000  Uiso   1.00
C238   C     0.57418   0.93777   0.33429   0.00000  Uiso   1.00
C239   C     0.54725   0.92947   0.32304   0.00000  Uiso   1.00
C240   C     0.64088   0.02595   0.33364   0.00000  Uiso   1.00
C241   C     0.57509   0.93198   0.62618   0.00000  Uiso   1.00
C242   C     0.59272   0.92527   0.64202   0.00000  Uiso   1.00
C243   C     0.59168   0.89914   0.63684   0.00000  Uiso   1.00
C244   C     0.57556   0.88158   0.61542   0.00000  Uiso   1.00
C245   C     0.55906   0.88902   0.59909   0.00000  Uiso   1.00
C246   C     0.55889   0.91432   0.60474   0.00000  Uiso   1.00
C247   C     0.52489   0.84069   0.58002   0.00000  Uiso   1.00
C248   C     0.54193   0.87032   0.57634   0.00000  Uiso   1.00
C249   C     0.54281   0.88203   0.55057   0.00000  Uiso   1.00
C250   C     0.52713   0.86451   0.52883   0.00000  Uiso   1.00
C251   C     0.51009   0.83489   0.53261   0.00000  Uiso   1.00
C252   C     0.50933   0.82326   0.55825   0.00000  Uiso   1.00
N253   N     0.49340   0.81574   0.51118   0.00000  Uiso   1.00
C254   C     0.48663   0.82250   0.48809   0.00000  Uiso   1.00
C255   C     0.42889   0.75678   0.43391   0.00000  Uiso   1.00
C256   C     0.40619   0.73363   0.41744   0.00000  Uiso   1.00
C257   C     0.38271   0.71193   0.43132   0.00000  Uiso   1.00
C258   C     0.36005   0.69093   0.41664   0.00000  Uiso   1.00
C259   C     0.44167   0.75013   0.45536   0.00000  Uiso   1.00
C260   C     0.46104   0.77152   0.47265   0.00000  Uiso   1.00
C261   C     0.46798   0.79999   0.46876   0.00000  Uiso   1.00
C262   C     0.43628   0.78530   0.42964   0.00000  Uiso   1.00
C263   C     0.45586   0.80675   0.44680   0.00000  Uiso   1.00
C264   C     0.62563   0.99086   0.64264   0.00000  Uiso   1.00
C265   C     0.63225   0.01927   0.64236   0.00000  Uiso   1.00
C266   C     0.62920   0.03204   0.66600   0.00000  Uiso   1.00
C267   C     0.61995   0.01603   0.69004   0.00000  Uiso   1.00
C268   C     0.61333   0.98762   0.69036   0.00000  Uiso   1.00
F269   F     0.54156   0.94900   0.31187   0.00000  Uiso   1.00
F270   F     0.63929   0.14399   0.27147   0.00000  Uiso   1.00
H271   H     0.38381   0.71219   0.35162   0.00000  Uiso   1.00
H272   H     0.40903   0.77357   0.35374   0.00000  Uiso   1.00
H273   H     0.46081   0.74272   0.39030   0.00000  Uiso   1.00
H274   H     0.50386   0.78392   0.37209   0.00000  Uiso   1.00
H275   H     0.45200   0.81503   0.33577   0.00000  Uiso   1.00
H276   H     0.52771   0.83034   0.34897   0.00000  Uiso   1.00
H277   H     0.50465   0.89504   0.31624   0.00000  Uiso   1.00
H278   H     0.56150   0.87368   0.35814   0.00000  Uiso   1.00
H279   H     0.59951   0.92293   0.35520   0.00000  Uiso   1.00
H280   H     0.57321   0.95052   0.63053   0.00000  Uiso   1.00
H281   H     0.60376   0.89245   0.64932   0.00000  Uiso   1.00
H282   H     0.57616   0.86222   0.61151   0.00000  Uiso   1.00
H283   H     0.54569   0.92012   0.59289   0.00000  Uiso   1.00
H284   H     0.55605   0.90474   0.54715   0.00000  Uiso   1.00
H285   H     0.52887   0.87427   0.50920   0.00000  Uiso   1.00
H286   H     0.49625   0.80049   0.56141   0.00000  Uiso   1.00
H287   H     0.49285   0.84437   0.48345   0.00000  Uiso   1.00
H288   H     0.38176   0.71175   0.45337   0.00000  Uiso   1.00
H289   H     0.43625   0.72827   0.45900   0.00000  Uiso   1.00
H290   H     0.47019   0.76568   0.48932   0.00000  Uiso   1.00
H291   H     0.42624   0.79084   0.41357   0.00000  Uiso   1.00
H292   H     0.46083   0.82853   0.44345   0.00000  Uiso   1.00
H293   H     0.62890   0.98190   0.62420   0.00000  Uiso   1.00
H294   H     0.63976   0.03131   0.62360   0.00000  Uiso   1.00
H295   H     0.61857   0.02576   0.70883   0.00000  Uiso   1.00
H296   H     0.60773   0.97670   0.70975   0.00000  Uiso   1.00
C297   C     0.02691   0.02443   0.72111   0.00000  Uiso   1.00
C298   C     0.05026   0.04564   0.70701   0.00000  Uiso   1.00
C299   C     0.07354   0.06687   0.72175   0.00000  Uiso   1.00
C300   C     0.09630   0.10874   0.69057   0.00000  Uiso   1.00
C301   C     0.09860   0.08872   0.70682   0.00000  Uiso   1.00
C302   C     0.12543   0.09144   0.71118   0.00000  Uiso   1.00
C303   C     0.14991   0.11490   0.70082   0.00000  Uiso   1.00
C304   C     0.14788   0.13606   0.68623   0.00000  Uiso   1.00
C305   C     0.12082   0.13242   0.68049   0.00000  Uiso   1.00
C306   C     0.17415   0.16279   0.67954   0.00000  Uiso   1.00
N307   N     0.17299   0.18542   0.67300   0.00000  Uiso   1.00
C308   C     0.19216   0.23434   0.65768   0.00000  Uiso   1.00
C309   C     0.19683   0.21372   0.66995   0.00000  Uiso   1.00
C310   C     0.22384   0.22199   0.68104   0.00000  Uiso   1.00
C311   C     0.24561   0.25040   0.67978   0.00000  Uiso   1.00
C312   C     0.24085   0.27110   0.66762   0.00000  Uiso   1.00
C313   C     0.21392   0.26280   0.65637   0.00000  Uiso   1.00
C314   C     0.30755   0.35928   0.66697   0.00000  Uiso   1.00
C315   C     0.24176   0.26531   0.95951   0.00000  Uiso   1.00
C316   C     0.25939   0.25860   0.97535   0.00000  Uiso   1.00
C317   C     0.25835   0.23247   0.97017   0.00000  Uiso   1.00
C318   C     0.24223   0.21491   0.94875   0.00000  Uiso   1.00
C319   C     0.22573   0.22235   0.93242   0.00000  Uiso   1.00
C320   C     0.22556   0.24765   0.93807   0.00000  Uiso   1.00
C321   C     0.19156   0.17402   0.91335   0.00000  Uiso   1.00
C322   C     0.20860   0.20365   0.90967   0.00000  Uiso   1.00
C323   C     0.20948   0.21536   0.88390   0.00000  Uiso   1.00
C324   C     0.19380   0.19784   0.86216   0.00000  Uiso   1.00
C325   C     0.17676   0.16822   0.86594   0.00000  Uiso   1.00
C326   C     0.17600   0.15659   0.89158   0.00000  Uiso   1.00
N327   N     0.16007   0.14907   0.84451   0.00000  Uiso   1.00
C328   C     0.15330   0.15583   0.82142   0.00000  Uiso   1.00
C329   C     0.09556   0.09011   0.76724   0.00000  Uiso   1.00
C330   C     0.07286   0.06696   0.75077   0.00000  Uiso   1.00
C331   C     0.04938   0.04526   0.76465   0.00000  Uiso   1.00
C332   C     0.02672   0.02426   0.74997   0.00000  Uiso   1.00
C333   C     0.10834   0.08346   0.78869   0.00000  Uiso   1.00
C334   C     0.12771   0.10485   0.80598   0.00000  Uiso   1.00
C335   C     0.13465   0.13332   0.80209   0.00000  Uiso   1.00
C336   C     0.10295   0.11863   0.76297   0.00000  Uiso   1.00
C337   C     0.12253   0.14008   0.78013   0.00000  Uiso   1.00
C338   C     0.29230   0.32419   0.97597   0.00000  Uiso   1.00
C339   C     0.29892   0.35260   0.97569   0.00000  Uiso   1.00
C340   C     0.29587   0.36537   0.99933   0.00000  Uiso   1.00
C341   C     0.28662   0.34936   0.02337   0.00000  Uiso   1.00
C342   C     0.28000   0.32095   0.02369   0.00000  Uiso   1.00
F343   F     0.20823   0.28233   0.64520   0.00000  Uiso   1.00
F344   F     0.30596   0.47732   0.60480   0.00000  Uiso   1.00
H345   H     0.05048   0.04552   0.68495   0.00000  Uiso   1.00
H346   H     0.07570   0.10690   0.68707   0.00000  Uiso   1.00
H347   H     0.12748   0.07605   0.72363   0.00000  Uiso   1.00
H348   H     0.17053   0.11725   0.70542   0.00000  Uiso   1.00
H349   H     0.11867   0.14836   0.66910   0.00000  Uiso   1.00
H350   H     0.19438   0.16367   0.68230   0.00000  Uiso   1.00
H351   H     0.17132   0.22837   0.64957   0.00000  Uiso   1.00
H352   H     0.22817   0.20701   0.69147   0.00000  Uiso   1.00
H353   H     0.26618   0.25626   0.68853   0.00000  Uiso   1.00
H354   H     0.23988   0.28385   0.96386   0.00000  Uiso   1.00
H355   H     0.27043   0.22578   0.98265   0.00000  Uiso   1.00
H356   H     0.24283   0.19555   0.94484   0.00000  Uiso   1.00
H357   H     0.21236   0.25345   0.92622   0.00000  Uiso   1.00
H358   H     0.22272   0.23807   0.88048   0.00000  Uiso   1.00
H359   H     0.19554   0.20760   0.84253   0.00000  Uiso   1.00
H360   H     0.16292   0.13382   0.89474   0.00000  Uiso   1.00
H361   H     0.15952   0.17770   0.81678   0.00000  Uiso   1.00
H362   H     0.04843   0.04508   0.78670   0.00000  Uiso   1.00
H363   H     0.10292   0.06160   0.79233   0.00000  Uiso   1.00
H364   H     0.13686   0.09901   0.82265   0.00000  Uiso   1.00
H365   H     0.09291   0.12417   0.74690   0.00000  Uiso   1.00
H366   H     0.12750   0.16186   0.77678   0.00000  Uiso   1.00
H367   H     0.29557   0.31523   0.95753   0.00000  Uiso   1.00
H368   H     0.30643   0.36464   0.95693   0.00000  Uiso   1.00
H369   H     0.28524   0.35909   0.04216   0.00000  Uiso   1.00
H370   H     0.27440   0.31003   0.04308   0.00000  Uiso   1.00
C371   C     0.69357   0.35777   0.05445   0.00000  Uiso   1.00
C372   C     0.71692   0.37898   0.04035   0.00000  Uiso   1.00
C373   C     0.74020   0.40021   0.05509   0.00000  Uiso   1.00
C374   C     0.76296   0.44208   0.02391   0.00000  Uiso   1.00
C375   C     0.76526   0.42206   0.04016   0.00000  Uiso   1.00
C376   C     0.79209   0.42478   0.04452   0.00000  Uiso   1.00
C377   C     0.81657   0.44824   0.03416   0.00000  Uiso   1.00
C378   C     0.81454   0.46940   0.01957   0.00000  Uiso   1.00
C379   C     0.78748   0.46576   0.01383   0.00000  Uiso   1.00
C380   C     0.84081   0.49613   0.01288   0.00000  Uiso   1.00
N381   N     0.83965   0.51876   0.00634   0.00000  Uiso   1.00
C382   C     0.85882   0.56768   0.99102   0.00000  Uiso   1.00
C383   C     0.86349   0.54706   0.00329   0.00000  Uiso   1.00
C384   C     0.89050   0.55533   0.01438   0.00000  Uiso   1.00
C385   C     0.91227   0.58374   0.01312   0.00000  Uiso   1.00
C386   C     0.90751   0.60444   0.00096   0.00000  Uiso   1.00
C387   C     0.88058   0.59614   0.98971   0.00000  Uiso   1.00
C388   C     0.97421   0.69262   0.00031   0.00000  Uiso   1.00
C389   C     0.90842   0.59865   0.29285   0.00000  Uiso   1.00
C390   C     0.92605   0.59194   0.30869   0.00000  Uiso   1.00
C391   C     0.92501   0.56581   0.30351   0.00000  Uiso   1.00
C392   C     0.90889   0.54825   0.28209   0.00000  Uiso   1.00
C393   C     0.89239   0.55569   0.26576   0.00000  Uiso   1.00
C394   C     0.89222   0.58099   0.27141   0.00000  Uiso   1.00
C395   C     0.85822   0.50736   0.24669   0.00000  Uiso   1.00
C396   C     0.87526   0.53699   0.24301   0.00000  Uiso   1.00
C397   C     0.87614   0.54870   0.21724   0.00000  Uiso   1.00
C398   C     0.86046   0.53118   0.19550   0.00000  Uiso   1.00
C399   C     0.84342   0.50156   0.19928   0.00000  Uiso   1.00
C400   C     0.84266   0.48993   0.22492   0.00000  Uiso   1.00
N401   N     0.82673   0.48241   0.17785   0.00000  Uiso   1.00
C402   C     0.81996   0.48917   0.15476   0.00000  Uiso   1.00
C403   C     0.76222   0.42345   0.10058   0.00000  Uiso   1.00
C404   C     0.73952   0.40030   0.08411   0.00000  Uiso   1.00
C405   C     0.71604   0.37860   0.09799   0.00000  Uiso   1.00
C406   C     0.69338   0.35760   0.08331   0.00000  Uiso   1.00
C407   C     0.77500   0.41680   0.12203   0.00000  Uiso   1.00
C408   C     0.79437   0.43819   0.13932   0.00000  Uiso   1.00
C409   C     0.80131   0.46666   0.13543   0.00000  Uiso   1.00
C410   C     0.76961   0.45197   0.09631   0.00000  Uiso   1.00
C411   C     0.78919   0.47342   0.11347   0.00000  Uiso   1.00
C412   C     0.95896   0.65753   0.30931   0.00000  Uiso   1.00
C413   C     0.96558   0.68594   0.30903   0.00000  Uiso   1.00
C414   C     0.96253   0.69871   0.33267   0.00000  Uiso   1.00
C415   C     0.95328   0.68270   0.35671   0.00000  Uiso   1.00
C416   C     0.94666   0.65429   0.35703   0.00000  Uiso   1.00
F417   F     0.87489   0.61567   0.97854   0.00000  Uiso   1.00
F418   F     0.97262   0.81066   0.93814   0.00000  Uiso   1.00
H419   H     0.71714   0.37886   0.01829   0.00000  Uiso   1.00
H420   H     0.74236   0.44024   0.02041   0.00000  Uiso   1.00
H421   H     0.79414   0.40939   0.05697   0.00000  Uiso   1.00
H422   H     0.83719   0.45059   0.03876   0.00000  Uiso   1.00
H423   H     0.78533   0.48170   0.00244   0.00000  Uiso   1.00
H424   H     0.86104   0.49701   0.01564   0.00000  Uiso   1.00
H425   H     0.83798   0.56171   0.98291   0.00000  Uiso   1.00
H426   H     0.89483   0.54035   0.02481   0.00000  Uiso   1.00
H427   H     0.93284   0.58960   0.02187   0.00000  Uiso   1.00
H428   H     0.90654   0.61719   0.29720   0.00000  Uiso   1.00
H429   H     0.93709   0.55912   0.31599   0.00000  Uiso   1.00
H430   H     0.90949   0.52889   0.27818   0.00000  Uiso   1.00
H431   H     0.87902   0.58679   0.25956   0.00000  Uiso   1.00
H432   H     0.88938   0.57141   0.21382   0.00000  Uiso   1.00
H433   H     0.86220   0.54094   0.17587   0.00000  Uiso   1.00
H434   H     0.82958   0.46716   0.22808   0.00000  Uiso   1.00
H435   H     0.82618   0.51104   0.15012   0.00000  Uiso   1.00
H436   H     0.71509   0.37842   0.12004   0.00000  Uiso   1.00
H437   H     0.76958   0.39494   0.12567   0.00000  Uiso   1.00
H438   H     0.80352   0.43235   0.15599   0.00000  Uiso   1.00
H439   H     0.75957   0.45751   0.08024   0.00000  Uiso   1.00
H440   H     0.79416   0.49520   0.11012   0.00000  Uiso   1.00
H441   H     0.96223   0.64857   0.29087   0.00000  Uiso   1.00
H442   H     0.97309   0.69798   0.29027   0.00000  Uiso   1.00
H443   H     0.95190   0.69243   0.37550   0.00000  Uiso   1.00
H444   H     0.94106   0.64337   0.37642   0.00000  Uiso   1.00
C445   C     0.30890   0.66914   0.38778   0.00000  Uiso   1.00
C446   C     0.28769   0.67128   0.37368   0.00000  Uiso   1.00
C447   C     0.26646   0.67333   0.38842   0.00000  Uiso   1.00
C448   C     0.22459   0.65422   0.35724   0.00000  Uiso   1.00
C449   C     0.24461   0.67654   0.37349   0.00000  Uiso   1.00
C450   C     0.24189   0.70065   0.37785   0.00000  Uiso   1.00
C451   C     0.21843   0.70167   0.36749   0.00000  Uiso   1.00
C452   C     0.19727   0.67848   0.35290   0.00000  Uiso   1.00
C453   C     0.20091   0.65506   0.34716   0.00000  Uiso   1.00
C454   C     0.17054   0.67802   0.34621   0.00000  Uiso   1.00
N455   N     0.14791   0.65423   0.33967   0.00000  Uiso   1.00
C456   C     0.09899   0.62448   0.32435   0.00000  Uiso   1.00
C457   C     0.11961   0.64977   0.33662   0.00000  Uiso   1.00
C458   C     0.11134   0.66851   0.34771   0.00000  Uiso   1.00
C459   C     0.08293   0.66187   0.34645   0.00000  Uiso   1.00
C460   C     0.06223   0.63641   0.33429   0.00000  Uiso   1.00
C461   C     0.07053   0.61778   0.32304   0.00000  Uiso   1.00
C462   C     0.97405   0.61493   0.33364   0.00000  Uiso   1.00
C463   C     0.06802   0.64311   0.62618   0.00000  Uiso   1.00
C464   C     0.07473   0.66745   0.64202   0.00000  Uiso   1.00
C465   C     0.10086   0.69254   0.63684   0.00000  Uiso   1.00
C466   C     0.11842   0.69398   0.61542   0.00000  Uiso   1.00
C467   C     0.11098   0.67004   0.59909   0.00000  Uiso   1.00
C468   C     0.08568   0.64457   0.60474   0.00000  Uiso   1.00
C469   C     0.15931   0.68420   0.58002   0.00000  Uiso   1.00
C470   C     0.12968   0.67161   0.57634   0.00000  Uiso   1.00
C471   C     0.11797   0.66078   0.55057   0.00000  Uiso   1.00
C472   C     0.13549   0.66262   0.52883   0.00000  Uiso   1.00
C473   C     0.16511   0.67520   0.53261   0.00000  Uiso   1.00
C474   C     0.17674   0.68607   0.55825   0.00000  Uiso   1.00
N475   N     0.18426   0.67766   0.51118   0.00000  Uiso   1.00
C476   C     0.17750   0.66413   0.48809   0.00000  Uiso   1.00
C477   C     0.24322   0.67211   0.43391   0.00000  Uiso   1.00
C478   C     0.26637   0.67256   0.41744   0.00000  Uiso   1.00
C479   C     0.28807   0.67078   0.43132   0.00000  Uiso   1.00
C480   C     0.30907   0.66912   0.41664   0.00000  Uiso   1.00
C481   C     0.24987   0.69154   0.45536   0.00000  Uiso   1.00
C482   C     0.22848   0.68952   0.47265   0.00000  Uiso   1.00
C483   C     0.20001   0.66799   0.46876   0.00000  Uiso   1.00
C484   C     0.21470   0.65098   0.42964   0.00000  Uiso   1.00
C485   C     0.19325   0.64911   0.44680   0.00000  Uiso   1.00
C486   C     0.00914   0.63477   0.64264   0.00000  Uiso   1.00
C487   C     0.98073   0.61298   0.64236   0.00000  Uiso   1.00
C488   C     0.96796   0.59716   0.66600   0.00000  Uiso   1.00
C489   C     0.98397   0.60392   0.69004   0.00000  Uiso   1.00
C490   C     0.01238   0.62571   0.69036   0.00000  Uiso   1.00
F491   F     0.05100   0.59256   0.31187   0.00000  Uiso   1.00
F492   F     0.85601   0.49530   0.27147   0.00000  Uiso   1.00
H493   H     0.28781   0.67162   0.35162   0.00000  Uiso   1.00
H494   H     0.22643   0.63546   0.35374   0.00000  Uiso   1.00
H495   H     0.25728   0.71809   0.39030   0.00000  Uiso   1.00
H496   H     0.21608   0.71994   0.37209   0.00000  Uiso   1.00
H497   H     0.18497   0.63697   0.33577   0.00000  Uiso   1.00
H498   H     0.16966   0.69737   0.34897   0.00000  Uiso   1.00
H499   H     0.10496   0.60961   0.31624   0.00000  Uiso   1.00
H500   H     0.12632   0.68782   0.35814   0.00000  Uiso   1.00
H501   H     0.07707   0.67658   0.35520   0.00000  Uiso   1.00
H502   H     0.04948   0.62269   0.63053   0.00000  Uiso   1.00
H503   H     0.10755   0.71131   0.64932   0.00000  Uiso   1.00
H504   H     0.13778   0.71394   0.61151   0.00000  Uiso   1.00
H505   H     0.07988   0.62557   0.59289   0.00000  Uiso   1.00
H506   H     0.09526   0.65131   0.54715   0.00000  Uiso   1.00
H507   H     0.12573   0.65460   0.50920   0.00000  Uiso   1.00
H508   H     0.19951   0.69576   0.56141   0.00000  Uiso   1.00
H509   H     0.15563   0.64848   0.48345   0.00000  Uiso   1.00
H510   H     0.28825   0.67001   0.45337   0.00000  Uiso   1.00
H511   H     0.27173   0.70798   0.45900   0.00000  Uiso   1.00
H512   H     0.23432   0.70451   0.48932   0.00000  Uiso   1.00
H513   H     0.20916   0.63540   0.41357   0.00000  Uiso   1.00
H514   H     0.17147   0.63230   0.44345   0.00000  Uiso   1.00
H515   H     0.01810   0.64700   0.62420   0.00000  Uiso   1.00
H516   H     0.96869   0.60845   0.62360   0.00000  Uiso   1.00
H517   H     0.97424   0.59281   0.70883   0.00000  Uiso   1.00
H518   H     0.02330   0.63103   0.70975   0.00000  Uiso   1.00
C519   C     0.97557   0.00247   0.72111   0.00000  Uiso   1.00
C520   C     0.95436   0.00461   0.70701   0.00000  Uiso   1.00
C521   C     0.93313   0.00666   0.72175   0.00000  Uiso   1.00
C522   C     0.89126   0.98755   0.69057   0.00000  Uiso   1.00
C523   C     0.91128   0.00987   0.70682   0.00000  Uiso   1.00
C524   C     0.90856   0.03398   0.71118   0.00000  Uiso   1.00
C525   C     0.88510   0.03500   0.70082   0.00000  Uiso   1.00
C526   C     0.86394   0.01181   0.68623   0.00000  Uiso   1.00
C527   C     0.86758   0.98839   0.68049   0.00000  Uiso   1.00
C528   C     0.83721   0.01135   0.67954   0.00000  Uiso   1.00
N529   N     0.81458   0.98756   0.67300   0.00000  Uiso   1.00
C530   C     0.76566   0.95781   0.65768   0.00000  Uiso   1.00
C531   C     0.78628   0.98310   0.66995   0.00000  Uiso   1.00
C532   C     0.77801   0.00184   0.68104   0.00000  Uiso   1.00
C533   C     0.74960   0.99520   0.67978   0.00000  Uiso   1.00
C534   C     0.72890   0.96974   0.66762   0.00000  Uiso   1.00
C535   C     0.73720   0.95111   0.65637   0.00000  Uiso   1.00
C536   C     0.64072   0.94826   0.66697   0.00000  Uiso   1.00
C537   C     0.73469   0.97644   0.95951   0.00000  Uiso   1.00
C538   C     0.74140   0.00078   0.97535   0.00000  Uiso   1.00
C539   C     0.76753   0.02587   0.97017   0.00000  Uiso   1.00
C540   C     0.78509   0.02731   0.94875   0.00000  Uiso   1.00
C541   C     0.77765   0.00337   0.93242   0.00000  Uiso   1.00
C542   C     0.75235   0.97790   0.93807   0.00000  Uiso   1.00
C543   C     0.82598   0.01753   0.91335   0.00000  Uiso   1.00
C544   C     0.79635   0.00494   0.90967   0.00000  Uiso   1.00
C545   C     0.78464   0.99411   0.88390   0.00000  Uiso   1.00
C546   C     0.80216   0.99595   0.86216   0.00000  Uiso   1.00
C547   C     0.83178   0.00853   0.86594   0.00000  Uiso   1.00
C548   C     0.84341   0.01940   0.89158   0.00000  Uiso   1.00
N549   N     0.85093   0.01099   0.84451   0.00000  Uiso   1.00
C550   C     0.84417   0.99746   0.82142   0.00000  Uiso   1.00
C551   C     0.90989   0.00544   0.76724   0.00000  Uiso   1.00
C552   C     0.93304   0.00589   0.75077   0.00000  Uiso   1.00
C553   C     0.95474   0.00411   0.76465   0.00000  Uiso   1.00
C554   C     0.97574   0.00245   0.74997   0.00000  Uiso   1.00
C555   C     0.91654   0.02487   0.78869   0.00000  Uiso   1.00
C556   C     0.89515   0.02285   0.80598   0.00000  Uiso   1.00
C557   C     0.86668   0.00132   0.80209   0.00000  Uiso   1.00
C558   C     0.88137   0.98431   0.76297   0.00000  Uiso   1.00
C559   C     0.85992   0.98244   0.78013   0.00000  Uiso   1.00
C560   C     0.67581   0.96810   0.97597   0.00000  Uiso   1.00
C561   C     0.64740   0.94631   0.97569   0.00000  Uiso   1.00
C562   C     0.63463   0.93049   0.99933   0.00000  Uiso   1.00
C563   C     0.65064   0.93725   0.02337   0.00000  Uiso   1.00
C564   C     0.67905   0.95904   0.02369   0.00000  Uiso   1.00
F565   F     0.71767   0.92589   0.64520   0.00000  Uiso   1.00
F566   F     0.52268   0.82863   0.60480   0.00000  Uiso   1.00
H567   H     0.95448   0.00495   0.68495   0.00000  Uiso   1.00
H568   H     0.89310   0.96879   0.68707   0.00000  Uiso   1.00
H569   H     0.92395   0.05142   0.72363   0.00000  Uiso   1.00
H570   H     0.88275   0.05327   0.70542   0.00000  Uiso   1.00
H571   H     0.85164   0.97030   0.66910   0.00000  Uiso   1.00
H572   H     0.83633   0.03070   0.68230   0.00000  Uiso   1.00
H573   H     0.77163   0.94294   0.64957   0.00000  Uiso   1.00
H574   H     0.79299   0.02115   0.69147   0.00000  Uiso   1.00
H575   H     0.74374   0.00991   0.68853   0.00000  Uiso   1.00
H576   H     0.71615   0.95602   0.96386   0.00000  Uiso   1.00
H577   H     0.77422   0.04464   0.98265   0.00000  Uiso   1.00
H578   H     0.80445   0.04727   0.94484   0.00000  Uiso   1.00
H579   H     0.74655   0.95890   0.92622   0.00000  Uiso   1.00
H580   H     0.76193   0.98464   0.88048   0.00000  Uiso   1.00
H581   H     0.79240   0.98793   0.84253   0.00000  Uiso   1.00
H582   H     0.86618   0.02909   0.89474   0.00000  Uiso   1.00
H583   H     0.82230   0.98181   0.81678   0.00000  Uiso   1.00
H584   H     0.95492   0.00334   0.78670   0.00000  Uiso   1.00
H585   H     0.93840   0.04131   0.79233   0.00000  Uiso   1.00
H586   H     0.90099   0.03784   0.82265   0.00000  Uiso   1.00
H587   H     0.87583   0.96873   0.74690   0.00000  Uiso   1.00
H588   H     0.83814   0.96563   0.77678   0.00000  Uiso   1.00
H589   H     0.68477   0.98033   0.95753   0.00000  Uiso   1.00
H590   H     0.63536   0.94178   0.95693   0.00000  Uiso   1.00
H591   H     0.64091   0.92614   0.04216   0.00000  Uiso   1.00
H592   H     0.68997   0.96436   0.04308   0.00000  Uiso   1.00
C593   C     0.64223   0.33581   0.05445   0.00000  Uiso   1.00
C594   C     0.62102   0.33795   0.04035   0.00000  Uiso   1.00
C595   C     0.59979   0.34000   0.05509   0.00000  Uiso   1.00
C596   C     0.55792   0.32089   0.02391   0.00000  Uiso   1.00
C597   C     0.57794   0.34321   0.04016   0.00000  Uiso   1.00
C598   C     0.57522   0.36732   0.04452   0.00000  Uiso   1.00
C599   C     0.55176   0.36834   0.03416   0.00000  Uiso   1.00
C600   C     0.53060   0.34515   0.01957   0.00000  Uiso   1.00
C601   C     0.53424   0.32173   0.01383   0.00000  Uiso   1.00
C602   C     0.50387   0.34469   0.01288   0.00000  Uiso   1.00
N603   N     0.48124   0.32090   0.00634   0.00000  Uiso   1.00
C604   C     0.43232   0.29115   0.99102   0.00000  Uiso   1.00
C605   C     0.45294   0.31644   0.00329   0.00000  Uiso   1.00
C606   C     0.44467   0.33518   0.01438   0.00000  Uiso   1.00
C607   C     0.41626   0.32854   0.01312   0.00000  Uiso   1.00
C608   C     0.39556   0.30308   0.00096   0.00000  Uiso   1.00
C609   C     0.40386   0.28445   0.98971   0.00000  Uiso   1.00
C610   C     0.30738   0.28160   0.00031   0.00000  Uiso   1.00
C611   C     0.40135   0.30978   0.29285   0.00000  Uiso   1.00
C612   C     0.40806   0.33412   0.30869   0.00000  Uiso   1.00
C613   C     0.43419   0.35921   0.30351   0.00000  Uiso   1.00
C614   C     0.45175   0.36065   0.28209   0.00000  Uiso   1.00
C615   C     0.44431   0.33671   0.26576   0.00000  Uiso   1.00
C616   C     0.41901   0.31124   0.27141   0.00000  Uiso   1.00
C617   C     0.49264   0.35087   0.24669   0.00000  Uiso   1.00
C618   C     0.46301   0.33828   0.24301   0.00000  Uiso   1.00
C619   C     0.45130   0.32745   0.21724   0.00000  Uiso   1.00
C620   C     0.46882   0.32929   0.19550   0.00000  Uiso   1.00
C621   C     0.49844   0.34187   0.19928   0.00000  Uiso   1.00
C622   C     0.51007   0.35274   0.22492   0.00000  Uiso   1.00
N623   N     0.51759   0.34433   0.17785   0.00000  Uiso   1.00
C624   C     0.51083   0.33080   0.15476   0.00000  Uiso   1.00
C625   C     0.57655   0.33878   0.10058   0.00000  Uiso   1.00
C626   C     0.59970   0.33923   0.08411   0.00000  Uiso   1.00
C627   C     0.62140   0.33745   0.09799   0.00000  Uiso   1.00
C628   C     0.64240   0.33579   0.08331   0.00000  Uiso   1.00
C629   C     0.58320   0.35821   0.12203   0.00000  Uiso   1.00
C630   C     0.56181   0.35619   0.13932   0.00000  Uiso   1.00
C631   C     0.53334   0.33466   0.13543   0.00000  Uiso   1.00
C632   C     0.54803   0.31765   0.09631   0.00000  Uiso   1.00
C633   C     0.52658   0.31578   0.11347   0.00000  Uiso   1.00
C634   C     0.34247   0.30144   0.30931   0.00000  Uiso   1.00
C635   C     0.31406   0.27965   0.30903   0.00000  Uiso   1.00
C636   C     0.30129   0.26383   0.33267   0.00000  Uiso   1.00
C637   C     0.31730   0.27059   0.35671   0.00000  Uiso   1.00
C638   C     0.34571   0.29238   0.35703   0.00000  Uiso   1.00
F639   F     0.38433   0.25923   0.97854   0.00000  Uiso   1.00
F640   F     0.18934   0.16197   0.93814   0.00000  Uiso   1.00
H641   H     0.62114   0.33829   0.01829   0.00000  Uiso   1.00
H642   H     0.55976   0.30213   0.02041   0.00000  Uiso   1.00
H643   H     0.59061   0.38476   0.05697   0.00000  Uiso   1.00
H644   H     0.54941   0.38661   0.03876   0.00000  Uiso   1.00
H645   H     0.51830   0.30364   0.00244   0.00000  Uiso   1.00
H646   H     0.50299   0.36404   0.01564   0.00000  Uiso   1.00
H647   H     0.43829   0.27628   0.98291   0.00000  Uiso   1.00
H648   H     0.45965   0.35449   0.02481   0.00000  Uiso   1.00
H649   H     0.41040   0.34325   0.02187   0.00000  Uiso   1.00
H650   H     0.38281   0.28936   0.29720   0.00000  Uiso   1.00
H651   H     0.44088   0.37798   0.31599   0.00000  Uiso   1.00
H652   H     0.47111   0.38061   0.27818   0.00000  Uiso   1.00
H653   H     0.41321   0.29224   0.25956   0.00000  Uiso   1.00
H654   H     0.42859   0.31798   0.21382   0.00000  Uiso   1.00
H655   H     0.45906   0.32127   0.17587   0.00000  Uiso   1.00
H656   H     0.53284   0.36243   0.22808   0.00000  Uiso   1.00
H657   H     0.48896   0.31515   0.15012   0.00000  Uiso   1.00
H658   H     0.62158   0.33668   0.12004   0.00000  Uiso   1.00
H659   H     0.60506   0.37465   0.12567   0.00000  Uiso   1.00
H660   H     0.56765   0.37118   0.15599   0.00000  Uiso   1.00
H661   H     0.54249   0.30207   0.08024   0.00000  Uiso   1.00
H662   H     0.50480   0.29897   0.11012   0.00000  Uiso   1.00
H663   H     0.35143   0.31367   0.29087   0.00000  Uiso   1.00
H664   H     0.30202   0.27512   0.29027   0.00000  Uiso   1.00
H665   H     0.30757   0.25948   0.37550   0.00000  Uiso   1.00
H666   H     0.35663   0.29770   0.37642   0.00000  Uiso   1.00
C667   C     0.63976   0.33086   0.61222   0.00000  Uiso   1.00
C668   C     0.61641   0.32872   0.62632   0.00000  Uiso   1.00
C669   C     0.59313   0.32667   0.61158   0.00000  Uiso   1.00
C670   C     0.57037   0.34578   0.64276   0.00000  Uiso   1.00
C671   C     0.56807   0.32346   0.62651   0.00000  Uiso   1.00
C672   C     0.54124   0.29935   0.62215   0.00000  Uiso   1.00
C673   C     0.51676   0.29833   0.63251   0.00000  Uiso   1.00
C674   C     0.51879   0.32152   0.64710   0.00000  Uiso   1.00
C675   C     0.54585   0.34494   0.65284   0.00000  Uiso   1.00
C676   C     0.49252   0.32198   0.65379   0.00000  Uiso   1.00
N677   N     0.49368   0.34577   0.66033   0.00000  Uiso   1.00
C678   C     0.47451   0.37552   0.67565   0.00000  Uiso   1.00
C679   C     0.46984   0.35023   0.66338   0.00000  Uiso   1.00
C680   C     0.44283   0.33149   0.65229   0.00000  Uiso   1.00
C681   C     0.42106   0.33813   0.65355   0.00000  Uiso   1.00
C682   C     0.42582   0.36359   0.66571   0.00000  Uiso   1.00
C683   C     0.45275   0.38222   0.67696   0.00000  Uiso   1.00
C684   C     0.35912   0.38507   0.66636   0.00000  Uiso   1.00
C685   C     0.42491   0.35689   0.37382   0.00000  Uiso   1.00
C686   C     0.40728   0.33255   0.35798   0.00000  Uiso   1.00
C687   C     0.40832   0.30746   0.36316   0.00000  Uiso   1.00
C688   C     0.42444   0.30602   0.38458   0.00000  Uiso   1.00
C689   C     0.44094   0.32996   0.40091   0.00000  Uiso   1.00
C690   C     0.44111   0.35543   0.39526   0.00000  Uiso   1.00
C691   C     0.47511   0.31580   0.41998   0.00000  Uiso   1.00
C692   C     0.45807   0.32839   0.42366   0.00000  Uiso   1.00
C693   C     0.45719   0.33922   0.44943   0.00000  Uiso   1.00
C694   C     0.47287   0.33738   0.47117   0.00000  Uiso   1.00
C695   C     0.48991   0.32480   0.46739   0.00000  Uiso   1.00
C696   C     0.49067   0.31393   0.44175   0.00000  Uiso   1.00
N697   N     0.50660   0.32234   0.48882   0.00000  Uiso   1.00
C698   C     0.51337   0.33587   0.51191   0.00000  Uiso   1.00
C699   C     0.57111   0.32789   0.56609   0.00000  Uiso   1.00
C700   C     0.59381   0.32744   0.58256   0.00000  Uiso   1.00
C701   C     0.61729   0.32922   0.56868   0.00000  Uiso   1.00
C702   C     0.63995   0.33088   0.58336   0.00000  Uiso   1.00
C703   C     0.55833   0.30846   0.54464   0.00000  Uiso   1.00
C704   C     0.53896   0.31048   0.52735   0.00000  Uiso   1.00
C705   C     0.53202   0.33201   0.53124   0.00000  Uiso   1.00
C706   C     0.56372   0.34902   0.57036   0.00000  Uiso   1.00
C707   C     0.54414   0.35089   0.55320   0.00000  Uiso   1.00
C708   C     0.37437   0.36523   0.35736   0.00000  Uiso   1.00
C709   C     0.36775   0.38702   0.35764   0.00000  Uiso   1.00
C710   C     0.37080   0.40284   0.33400   0.00000  Uiso   1.00
C711   C     0.38005   0.39608   0.30996   0.00000  Uiso   1.00
C712   C     0.38667   0.37429   0.30964   0.00000  Uiso   1.00
F713   F     0.45844   0.40744   0.68813   0.00000  Uiso   1.00
F714   F     0.36071   0.50470   0.72853   0.00000  Uiso   1.00
H715   H     0.61619   0.32838   0.64838   0.00000  Uiso   1.00
H716   H     0.59097   0.36454   0.64626   0.00000  Uiso   1.00
H717   H     0.53919   0.28191   0.60970   0.00000  Uiso   1.00
H718   H     0.49614   0.28006   0.62791   0.00000  Uiso   1.00
H719   H     0.54800   0.36303   0.66423   0.00000  Uiso   1.00
H720   H     0.47229   0.30263   0.65103   0.00000  Uiso   1.00
H721   H     0.49535   0.39039   0.68376   0.00000  Uiso   1.00
H722   H     0.43850   0.31218   0.64186   0.00000  Uiso   1.00
H723   H     0.40049   0.32342   0.64480   0.00000  Uiso   1.00
H724   H     0.42679   0.37731   0.36947   0.00000  Uiso   1.00
H725   H     0.39624   0.28869   0.35068   0.00000  Uiso   1.00
H726   H     0.42384   0.28606   0.38849   0.00000  Uiso   1.00
H727   H     0.45431   0.37443   0.40711   0.00000  Uiso   1.00
H728   H     0.44395   0.34869   0.45285   0.00000  Uiso   1.00
H729   H     0.47113   0.34540   0.49080   0.00000  Uiso   1.00
H730   H     0.50375   0.30424   0.43859   0.00000  Uiso   1.00
H731   H     0.50715   0.35152   0.51655   0.00000  Uiso   1.00
H732   H     0.61824   0.32999   0.54663   0.00000  Uiso   1.00
H733   H     0.56375   0.29202   0.54100   0.00000  Uiso   1.00
H734   H     0.52981   0.29549   0.51068   0.00000  Uiso   1.00
H735   H     0.57376   0.36460   0.58643   0.00000  Uiso   1.00
H736   H     0.53917   0.36770   0.55655   0.00000  Uiso   1.00
H737   H     0.37110   0.35300   0.37580   0.00000  Uiso   1.00
H738   H     0.36024   0.39155   0.37640   0.00000  Uiso   1.00
H739   H     0.38143   0.40719   0.29117   0.00000  Uiso   1.00
H740   H     0.39227   0.36897   0.29025   0.00000  Uiso   1.00
C741   C     0.30643   0.66419   0.94555   0.00000  Uiso   1.00
C742   C     0.28308   0.66205   0.95965   0.00000  Uiso   1.00
C743   C     0.25980   0.66000   0.94491   0.00000  Uiso   1.00
C744   C     0.23704   0.67911   0.97609   0.00000  Uiso   1.00
C745   C     0.23474   0.65679   0.95984   0.00000  Uiso   1.00
C746   C     0.20791   0.63268   0.95548   0.00000  Uiso   1.00
C747   C     0.18343   0.63166   0.96584   0.00000  Uiso   1.00
C748   C     0.18546   0.65485   0.98043   0.00000  Uiso   1.00
C749   C     0.21252   0.67827   0.98617   0.00000  Uiso   1.00
C750   C     0.15919   0.65531   0.98712   0.00000  Uiso   1.00
N751   N     0.16035   0.67910   0.99366   0.00000  Uiso   1.00
C752   C     0.14118   0.70885   0.00898   0.00000  Uiso   1.00
C753   C     0.13651   0.68356   0.99671   0.00000  Uiso   1.00
C754   C     0.10950   0.66482   0.98562   0.00000  Uiso   1.00
C755   C     0.08773   0.67146   0.98688   0.00000  Uiso   1.00
C756   C     0.09249   0.69692   0.99904   0.00000  Uiso   1.00
C757   C     0.11942   0.71555   0.01029   0.00000  Uiso   1.00
C758   C     0.02579   0.71840   0.99969   0.00000  Uiso   1.00
C759   C     0.09158   0.69022   0.70715   0.00000  Uiso   1.00
C760   C     0.07395   0.66588   0.69131   0.00000  Uiso   1.00
C761   C     0.07499   0.64079   0.69649   0.00000  Uiso   1.00
C762   C     0.09111   0.63935   0.71791   0.00000  Uiso   1.00
C763   C     0.10761   0.66329   0.73424   0.00000  Uiso   1.00
C764   C     0.10778   0.68876   0.72859   0.00000  Uiso   1.00
C765   C     0.14178   0.64913   0.75331   0.00000  Uiso   1.00
C766   C     0.12474   0.66172   0.75699   0.00000  Uiso   1.00
C767   C     0.12386   0.67255   0.78276   0.00000  Uiso   1.00
C768   C     0.13954   0.67071   0.80450   0.00000  Uiso   1.00
C769   C     0.15658   0.65813   0.80072   0.00000  Uiso   1.00
C770   C     0.15734   0.64726   0.77508   0.00000  Uiso   1.00
N771   N     0.17327   0.65567   0.82215   0.00000  Uiso   1.00
C772   C     0.18004   0.66920   0.84524   0.00000  Uiso   1.00
C773   C     0.23778   0.66122   0.89942   0.00000  Uiso   1.00
C774   C     0.26048   0.66077   0.91589   0.00000  Uiso   1.00
C775   C     0.28396   0.66255   0.90201   0.00000  Uiso   1.00
C776   C     0.30662   0.66421   0.91669   0.00000  Uiso   1.00
C777   C     0.22500   0.64179   0.87797   0.00000  Uiso   1.00
C778   C     0.20563   0.64381   0.86068   0.00000  Uiso   1.00
C779   C     0.19869   0.66534   0.86457   0.00000  Uiso   1.00
C780   C     0.23039   0.68235   0.90369   0.00000  Uiso   1.00
C781   C     0.21081   0.68422   0.88653   0.00000  Uiso   1.00
C782   C     0.04104   0.69856   0.69069   0.00000  Uiso   1.00
C783   C     0.03442   0.72035   0.69097   0.00000  Uiso   1.00
C784   C     0.03747   0.73617   0.66733   0.00000  Uiso   1.00
C785   C     0.04672   0.72941   0.64329   0.00000  Uiso   1.00
C786   C     0.05334   0.70762   0.64297   0.00000  Uiso   1.00
F787   F     0.12511   0.74077   0.02146   0.00000  Uiso   1.00
F788   F     0.02738   0.83803   0.06186   0.00000  Uiso   1.00
H789   H     0.28286   0.66171   0.98171   0.00000  Uiso   1.00
H790   H     0.25764   0.69787   0.97959   0.00000  Uiso   1.00
H791   H     0.20586   0.61524   0.94303   0.00000  Uiso   1.00
H792   H     0.16281   0.61339   0.96124   0.00000  Uiso   1.00
H793   H     0.21467   0.69636   0.99756   0.00000  Uiso   1.00
H794   H     0.13896   0.63596   0.98436   0.00000  Uiso   1.00
H795   H     0.16202   0.72372   0.01709   0.00000  Uiso   1.00
H796   H     0.10517   0.64551   0.97519   0.00000  Uiso   1.00
H797   H     0.06716   0.65675   0.97813   0.00000  Uiso   1.00
H798   H     0.09346   0.71064   0.70280   0.00000  Uiso   1.00
H799   H     0.06291   0.62202   0.68401   0.00000  Uiso   1.00
H800   H     0.09051   0.61939   0.72182   0.00000  Uiso   1.00
H801   H     0.12098   0.70776   0.74044   0.00000  Uiso   1.00
H802   H     0.11062   0.68202   0.78618   0.00000  Uiso   1.00
H803   H     0.13780   0.67873   0.82413   0.00000  Uiso   1.00
H804   H     0.17042   0.63757   0.77192   0.00000  Uiso   1.00
H805   H     0.17382   0.68485   0.84988   0.00000  Uiso   1.00
H806   H     0.28491   0.66332   0.87996   0.00000  Uiso   1.00
H807   H     0.23042   0.62535   0.87433   0.00000  Uiso   1.00
H808   H     0.19648   0.62882   0.84401   0.00000  Uiso   1.00
H809   H     0.24043   0.69793   0.91976   0.00000  Uiso   1.00
H810   H     0.20584   0.70103   0.88988   0.00000  Uiso   1.00
H811   H     0.03777   0.68633   0.70913   0.00000  Uiso   1.00
H812   H     0.02691   0.72488   0.70973   0.00000  Uiso   1.00
H813   H     0.04810   0.74052   0.62450   0.00000  Uiso   1.00
H814   H     0.05894   0.70230   0.62358   0.00000  Uiso   1.00
C815   C     0.97309   0.99753   0.27889   0.00000  Uiso   1.00
C816   C     0.94974   0.99539   0.29299   0.00000  Uiso   1.00
C817   C     0.92646   0.99334   0.27825   0.00000  Uiso   1.00
C818   C     0.90370   0.01245   0.30943   0.00000  Uiso   1.00
C819   C     0.90140   0.99013   0.29318   0.00000  Uiso   1.00
C820   C     0.87457   0.96602   0.28882   0.00000  Uiso   1.00
C821   C     0.85009   0.96500   0.29918   0.00000  Uiso   1.00
C822   C     0.85212   0.98819   0.31377   0.00000  Uiso   1.00
C823   C     0.87918   0.01161   0.31951   0.00000  Uiso   1.00
C824   C     0.82585   0.98865   0.32046   0.00000  Uiso   1.00
N825   N     0.82701   0.01244   0.32700   0.00000  Uiso   1.00
C826   C     0.80784   0.04219   0.34232   0.00000  Uiso   1.00
C827   C     0.80317   0.01690   0.33005   0.00000  Uiso   1.00
C828   C     0.77616   0.99816   0.31896   0.00000  Uiso   1.00
C829   C     0.75439   0.00480   0.32022   0.00000  Uiso   1.00
C830   C     0.75915   0.03026   0.33238   0.00000  Uiso   1.00
C831   C     0.78608   0.04889   0.34363   0.00000  Uiso   1.00
C832   C     0.69245   0.05174   0.33303   0.00000  Uiso   1.00
C833   C     0.75824   0.02356   0.04049   0.00000  Uiso   1.00
C834   C     0.74061   0.99922   0.02465   0.00000  Uiso   1.00
C835   C     0.74165   0.97413   0.02983   0.00000  Uiso   1.00
C836   C     0.75777   0.97269   0.05125   0.00000  Uiso   1.00
C837   C     0.77427   0.99663   0.06758   0.00000  Uiso   1.00
C838   C     0.77444   0.02210   0.06193   0.00000  Uiso   1.00
C839   C     0.80844   0.98247   0.08665   0.00000  Uiso   1.00
C840   C     0.79140   0.99506   0.09033   0.00000  Uiso   1.00
C841   C     0.79052   0.00589   0.11610   0.00000  Uiso   1.00
C842   C     0.80620   0.00405   0.13784   0.00000  Uiso   1.00
C843   C     0.82324   0.99147   0.13406   0.00000  Uiso   1.00
C844   C     0.82400   0.98060   0.10842   0.00000  Uiso   1.00
N845   N     0.83993   0.98901   0.15549   0.00000  Uiso   1.00
C846   C     0.84670   0.00254   0.17858   0.00000  Uiso   1.00
C847   C     0.90444   0.99456   0.23276   0.00000  Uiso   1.00
C848   C     0.92714   0.99411   0.24923   0.00000  Uiso   1.00
C849   C     0.95062   0.99589   0.23535   0.00000  Uiso   1.00
C850   C     0.97328   0.99755   0.25003   0.00000  Uiso   1.00
C851   C     0.89166   0.97513   0.21131   0.00000  Uiso   1.00
C852   C     0.87229   0.97715   0.19402   0.00000  Uiso   1.00
C853   C     0.86535   0.99868   0.19791   0.00000  Uiso   1.00
C854   C     0.89705   0.01569   0.23703   0.00000  Uiso   1.00
C855   C     0.87747   0.01756   0.21987   0.00000  Uiso   1.00
C856   C     0.70770   0.03190   0.02403   0.00000  Uiso   1.00
C857   C     0.70108   0.05369   0.02431   0.00000  Uiso   1.00
C858   C     0.70413   0.06951   0.00067   0.00000  Uiso   1.00
C859   C     0.71338   0.06275   0.97663   0.00000  Uiso   1.00
C860   C     0.72000   0.04096   0.97631   0.00000  Uiso   1.00
F861   F     0.79177   0.07411   0.35480   0.00000  Uiso   1.00
F862   F     0.69404   0.17137   0.39520   0.00000  Uiso   1.00
H863   H     0.94952   0.99505   0.31505   0.00000  Uiso   1.00
H864   H     0.92430   0.03121   0.31293   0.00000  Uiso   1.00
H865   H     0.87252   0.94858   0.27637   0.00000  Uiso   1.00
H866   H     0.82947   0.94673   0.29458   0.00000  Uiso   1.00
H867   H     0.88133   0.02970   0.33090   0.00000  Uiso   1.00
H868   H     0.80562   0.96930   0.31770   0.00000  Uiso   1.00
H869   H     0.82868   0.05706   0.35043   0.00000  Uiso   1.00
H870   H     0.77183   0.97885   0.30853   0.00000  Uiso   1.00
H871   H     0.73382   0.99009   0.31147   0.00000  Uiso   1.00
H872   H     0.76012   0.04398   0.03614   0.00000  Uiso   1.00
H873   H     0.72957   0.95536   0.01735   0.00000  Uiso   1.00
H874   H     0.75717   0.95273   0.05516   0.00000  Uiso   1.00
H875   H     0.78764   0.04110   0.07378   0.00000  Uiso   1.00
H876   H     0.77728   0.01536   0.11952   0.00000  Uiso   1.00
H877   H     0.80446   0.01207   0.15747   0.00000  Uiso   1.00
H878   H     0.83708   0.97091   0.10526   0.00000  Uiso   1.00
H879   H     0.84048   0.01819   0.18322   0.00000  Uiso   1.00
H880   H     0.95157   0.99666   0.21330   0.00000  Uiso   1.00
H881   H     0.89708   0.95869   0.20767   0.00000  Uiso   1.00
H882   H     0.86314   0.96216   0.17735   0.00000  Uiso   1.00
H883   H     0.90709   0.03127   0.25310   0.00000  Uiso   1.00
H884   H     0.87250   0.03437   0.22322   0.00000  Uiso   1.00
H885   H     0.70443   0.01967   0.04247   0.00000  Uiso   1.00
H886   H     0.69357   0.05822   0.04307   0.00000  Uiso   1.00
H887   H     0.71476   0.07386   0.95784   0.00000  Uiso   1.00
H888   H     0.72560   0.03564   0.95692   0.00000  Uiso   1.00
C889   C     0.69110   0.36024   0.61222   0.00000  Uiso   1.00
C890   C     0.71231   0.38359   0.62632   0.00000  Uiso   1.00
C891   C     0.73354   0.40687   0.61158   0.00000  Uiso   1.00
C892   C     0.77541   0.42963   0.64276   0.00000  Uiso   1.00
C893   C     0.75539   0.43193   0.62651   0.00000  Uiso   1.00
C894   C     0.75811   0.45876   0.62215   0.00000  Uiso   1.00
C895   C     0.78157   0.48324   0.63251   0.00000  Uiso   1.00
C896   C     0.80273   0.48121   0.64710   0.00000  Uiso   1.00
C897   C     0.79909   0.45415   0.65284   0.00000  Uiso   1.00
C898   C     0.82946   0.50748   0.65379   0.00000  Uiso   1.00
N899   N     0.85209   0.50632   0.66033   0.00000  Uiso   1.00
C900   C     0.90101   0.52549   0.67565   0.00000  Uiso   1.00
C901   C     0.88039   0.53016   0.66338   0.00000  Uiso   1.00
C902   C     0.88866   0.55717   0.65229   0.00000  Uiso   1.00
C903   C     0.91707   0.57894   0.65355   0.00000  Uiso   1.00
C904   C     0.93777   0.57418   0.66571   0.00000  Uiso   1.00
C905   C     0.92947   0.54725   0.67696   0.00000  Uiso   1.00
C906   C     0.02595   0.64088   0.66636   0.00000  Uiso   1.00
C907   C     0.93198   0.57509   0.37382   0.00000  Uiso   1.00
C908   C     0.92527   0.59272   0.35798   0.00000  Uiso   1.00
C909   C     0.89914   0.59168   0.36316   0.00000  Uiso   1.00
C910   C     0.88158   0.57556   0.38458   0.00000  Uiso   1.00
C911   C     0.88902   0.55906   0.40091   0.00000  Uiso   1.00
C912   C     0.91432   0.55889   0.39526   0.00000  Uiso   1.00
C913   C     0.84069   0.52489   0.41998   0.00000  Uiso   1.00
C914   C     0.87032   0.54193   0.42366   0.00000  Uiso   1.00
C915   C     0.88203   0.54281   0.44943   0.00000  Uiso   1.00
C916   C     0.86451   0.52713   0.47117   0.00000  Uiso   1.00
C917   C     0.83489   0.51009   0.46739   0.00000  Uiso   1.00
C918   C     0.82326   0.50933   0.44175   0.00000  Uiso   1.00
N919   N     0.81574   0.49340   0.48882   0.00000  Uiso   1.00
C920   C     0.82250   0.48663   0.51191   0.00000  Uiso   1.00
C921   C     0.75678   0.42889   0.56609   0.00000  Uiso   1.00
C922   C     0.73363   0.40619   0.58256   0.00000  Uiso   1.00
C923   C     0.71193   0.38271   0.56868   0.00000  Uiso   1.00
C924   C     0.69093   0.36005   0.58336   0.00000  Uiso   1.00
C925   C     0.75013   0.44167   0.54464   0.00000  Uiso   1.00
C926   C     0.77152   0.46104   0.52735   0.00000  Uiso   1.00
C927   C     0.79999   0.46798   0.53124   0.00000  Uiso   1.00
C928   C     0.78530   0.43628   0.57036   0.00000  Uiso   1.00
C929   C     0.80675   0.45586   0.55320   0.00000  Uiso   1.00
C930   C     0.99086   0.62563   0.35736   0.00000  Uiso   1.00
C931   C     0.01927   0.63225   0.35764   0.00000  Uiso   1.00
C932   C     0.03204   0.62920   0.33400   0.00000  Uiso   1.00
C933   C     0.01603   0.61995   0.30996   0.00000  Uiso   1.00
C934   C     0.98762   0.61333   0.30964   0.00000  Uiso   1.00
F935   F     0.94900   0.54156   0.68813   0.00000  Uiso   1.00
F936   F     0.14399   0.63929   0.72853   0.00000  Uiso   1.00
H937   H     0.71219   0.38381   0.64838   0.00000  Uiso   1.00
H938   H     0.77357   0.40903   0.64626   0.00000  Uiso   1.00
H939   H     0.74272   0.46081   0.60970   0.00000  Uiso   1.00
H940   H     0.78392   0.50386   0.62791   0.00000  Uiso   1.00
H941   H     0.81503   0.45200   0.66423   0.00000  Uiso   1.00
H942   H     0.83034   0.52771   0.65103   0.00000  Uiso   1.00
H943   H     0.89504   0.50465   0.68376   0.00000  Uiso   1.00
H944   H     0.87368   0.56150   0.64186   0.00000  Uiso   1.00
H945   H     0.92293   0.59951   0.64480   0.00000  Uiso   1.00
H946   H     0.95052   0.57321   0.36947   0.00000  Uiso   1.00
H947   H     0.89245   0.60376   0.35068   0.00000  Uiso   1.00
H948   H     0.86222   0.57616   0.38849   0.00000  Uiso   1.00
H949   H     0.92012   0.54569   0.40711   0.00000  Uiso   1.00
H950   H     0.90474   0.55605   0.45285   0.00000  Uiso   1.00
H951   H     0.87427   0.52887   0.49080   0.00000  Uiso   1.00
H952   H     0.80049   0.49625   0.43859   0.00000  Uiso   1.00
H953   H     0.84437   0.49285   0.51655   0.00000  Uiso   1.00
H954   H     0.71175   0.38176   0.54663   0.00000  Uiso   1.00
H955   H     0.72827   0.43625   0.54100   0.00000  Uiso   1.00
H956   H     0.76568   0.47019   0.51068   0.00000  Uiso   1.00
H957   H     0.79084   0.42624   0.58643   0.00000  Uiso   1.00
H958   H     0.82853   0.46083   0.55655   0.00000  Uiso   1.00
H959   H     0.98190   0.62890   0.37580   0.00000  Uiso   1.00
H960   H     0.03131   0.63976   0.37640   0.00000  Uiso   1.00
H961   H     0.02576   0.61857   0.29117   0.00000  Uiso   1.00
H962   H     0.97670   0.60773   0.29025   0.00000  Uiso   1.00
C963   C     0.35777   0.69357   0.94555   0.00000  Uiso   1.00
C964   C     0.37898   0.71692   0.95965   0.00000  Uiso   1.00
C965   C     0.40021   0.74020   0.94491   0.00000  Uiso   1.00
C966   C     0.44208   0.76296   0.97609   0.00000  Uiso   1.00
C967   C     0.42206   0.76526   0.95984   0.00000  Uiso   1.00
C968   C     0.42478   0.79209   0.95548   0.00000  Uiso   1.00
C969   C     0.44824   0.81657   0.96584   0.00000  Uiso   1.00
C970   C     0.46940   0.81454   0.98043   0.00000  Uiso   1.00
C971   C     0.46576   0.78748   0.98617   0.00000  Uiso   1.00
C972   C     0.49613   0.84081   0.98712   0.00000  Uiso   1.00
N973   N     0.51876   0.83965   0.99366   0.00000  Uiso   1.00
C974   C     0.56768   0.85882   0.00898   0.00000  Uiso   1.00
C975   C     0.54706   0.86349   0.99671   0.00000  Uiso   1.00
C976   C     0.55533   0.89050   0.98562   0.00000  Uiso   1.00
C977   C     0.58374   0.91227   0.98688   0.00000  Uiso   1.00
C978   C     0.60444   0.90751   0.99904   0.00000  Uiso   1.00
C979   C     0.59614   0.88058   0.01029   0.00000  Uiso   1.00
C980   C     0.69262   0.97421   0.99969   0.00000  Uiso   1.00
C981   C     0.59865   0.90842   0.70715   0.00000  Uiso   1.00
C982   C     0.59194   0.92605   0.69131   0.00000  Uiso   1.00
C983   C     0.56581   0.92501   0.69649   0.00000  Uiso   1.00
C984   C     0.54825   0.90889   0.71791   0.00000  Uiso   1.00
C985   C     0.55569   0.89239   0.73424   0.00000  Uiso   1.00
C986   C     0.58099   0.89222   0.72859   0.00000  Uiso   1.00
C987   C     0.50736   0.85822   0.75331   0.00000  Uiso   1.00
C988   C     0.53699   0.87526   0.75699   0.00000  Uiso   1.00
C989   C     0.54870   0.87614   0.78276   0.00000  Uiso   1.00
C990   C     0.53118   0.86046   0.80450   0.00000  Uiso   1.00
C991   C     0.50156   0.84342   0.80072   0.00000  Uiso   1.00
C992   C     0.48993   0.84266   0.77508   0.00000  Uiso   1.00
N993   N     0.48241   0.82673   0.82215   0.00000  Uiso   1.00
C994   C     0.48917   0.81996   0.84524   0.00000  Uiso   1.00
C995   C     0.42345   0.76222   0.89942   0.00000  Uiso   1.00
C996   C     0.40030   0.73952   0.91589   0.00000  Uiso   1.00
C997   C     0.37860   0.71604   0.90201   0.00000  Uiso   1.00
C998   C     0.35760   0.69338   0.91669   0.00000  Uiso   1.00
C999   C     0.41680   0.77500   0.87797   0.00000  Uiso   1.00
C1000  C     0.43819   0.79437   0.86068   0.00000  Uiso   1.00
C1001  C     0.46666   0.80131   0.86457   0.00000  Uiso   1.00
C1002  C     0.45197   0.76961   0.90369   0.00000  Uiso   1.00
C1003  C     0.47342   0.78919   0.88653   0.00000  Uiso   1.00
C1004  C     0.65753   0.95896   0.69069   0.00000  Uiso   1.00
C1005  C     0.68594   0.96558   0.69097   0.00000  Uiso   1.00
C1006  C     0.69871   0.96253   0.66733   0.00000  Uiso   1.00
C1007  C     0.68270   0.95328   0.64329   0.00000  Uiso   1.00
C1008  C     0.65429   0.94666   0.64297   0.00000  Uiso   1.00
F1009  F     0.61567   0.87489   0.02146   0.00000  Uiso   1.00
F1010  F     0.81066   0.97262   0.06186   0.00000  Uiso   1.00
H1011  H     0.37886   0.71714   0.98171   0.00000  Uiso   1.00
H1012  H     0.44024   0.74236   0.97959   0.00000  Uiso   1.00
H1013  H     0.40939   0.79414   0.94303   0.00000  Uiso   1.00
H1014  H     0.45059   0.83719   0.96124   0.00000  Uiso   1.00
H1015  H     0.48170   0.78533   0.99756   0.00000  Uiso   1.00
H1016  H     0.49701   0.86104   0.98436   0.00000  Uiso   1.00
H1017  H     0.56171   0.83798   0.01709   0.00000  Uiso   1.00
H1018  H     0.54035   0.89483   0.97519   0.00000  Uiso   1.00
H1019  H     0.58960   0.93284   0.97813   0.00000  Uiso   1.00
H1020  H     0.61719   0.90654   0.70280   0.00000  Uiso   1.00
H1021  H     0.55912   0.93709   0.68401   0.00000  Uiso   1.00
H1022  H     0.52889   0.90949   0.72182   0.00000  Uiso   1.00
H1023  H     0.58679   0.87902   0.74044   0.00000  Uiso   1.00
H1024  H     0.57141   0.88938   0.78618   0.00000  Uiso   1.00
H1025  H     0.54094   0.86220   0.82413   0.00000  Uiso   1.00
H1026  H     0.46716   0.82958   0.77192   0.00000  Uiso   1.00
H1027  H     0.51104   0.82618   0.84988   0.00000  Uiso   1.00
H1028  H     0.37842   0.71509   0.87996   0.00000  Uiso   1.00
H1029  H     0.39494   0.76958   0.87433   0.00000  Uiso   1.00
H1030  H     0.43235   0.80352   0.84401   0.00000  Uiso   1.00
H1031  H     0.45751   0.75957   0.91976   0.00000  Uiso   1.00
H1032  H     0.49520   0.79416   0.88988   0.00000  Uiso   1.00
H1033  H     0.64857   0.96223   0.70913   0.00000  Uiso   1.00
H1034  H     0.69798   0.97309   0.70973   0.00000  Uiso   1.00
H1035  H     0.69243   0.95190   0.62450   0.00000  Uiso   1.00
H1036  H     0.64337   0.94106   0.62358   0.00000  Uiso   1.00
C1037  C     0.02443   0.02691   0.27889   0.00000  Uiso   1.00
C1038  C     0.04564   0.05026   0.29299   0.00000  Uiso   1.00
C1039  C     0.06687   0.07354   0.27825   0.00000  Uiso   1.00
C1040  C     0.10874   0.09630   0.30943   0.00000  Uiso   1.00
C1041  C     0.08872   0.09860   0.29318   0.00000  Uiso   1.00
C1042  C     0.09144   0.12543   0.28882   0.00000  Uiso   1.00
C1043  C     0.11490   0.14991   0.29918   0.00000  Uiso   1.00
C1044  C     0.13606   0.14788   0.31377   0.00000  Uiso   1.00
C1045  C     0.13242   0.12082   0.31951   0.00000  Uiso   1.00
C1046  C     0.16279   0.17415   0.32046   0.00000  Uiso   1.00
N1047  N     0.18542   0.17299   0.32700   0.00000  Uiso   1.00
C1048  C     0.23434   0.19216   0.34232   0.00000  Uiso   1.00
C1049  C     0.21372   0.19683   0.33005   0.00000  Uiso   1.00
C1050  C     0.22199   0.22384   0.31896   0.00000  Uiso   1.00
C1051  C     0.25040   0.24561   0.32022   0.00000  Uiso   1.00
C1052  C     0.27110   0.24085   0.33238   0.00000  Uiso   1.00
C1053  C     0.26280   0.21392   0.34363   0.00000  Uiso   1.00
C1054  C     0.35928   0.30755   0.33303   0.00000  Uiso   1.00
C1055  C     0.26531   0.24176   0.04049   0.00000  Uiso   1.00
C1056  C     0.25860   0.25939   0.02465   0.00000  Uiso   1.00
C1057  C     0.23247   0.25835   0.02983   0.00000  Uiso   1.00
C1058  C     0.21491   0.24223   0.05125   0.00000  Uiso   1.00
C1059  C     0.22235   0.22573   0.06758   0.00000  Uiso   1.00
C1060  C     0.24765   0.22556   0.06193   0.00000  Uiso   1.00
C1061  C     0.17402   0.19156   0.08665   0.00000  Uiso   1.00
C1062  C     0.20365   0.20860   0.09033   0.00000  Uiso   1.00
C1063  C     0.21536   0.20948   0.11610   0.00000  Uiso   1.00
C1064  C     0.19784   0.19380   0.13784   0.00000  Uiso   1.00
C1065  C     0.16822   0.17676   0.13406   0.00000  Uiso   1.00
C1066  C     0.15659   0.17600   0.10842   0.00000  Uiso   1.00
N1067  N     0.14907   0.16007   0.15549   0.00000  Uiso   1.00
C1068  C     0.15583   0.15330   0.17858   0.00000  Uiso   1.00
C1069  C     0.09011   0.09556   0.23276   0.00000  Uiso   1.00
C1070  C     0.06696   0.07286   0.24923   0.00000  Uiso   1.00
C1071  C     0.04526   0.04938   0.23535   0.00000  Uiso   1.00
C1072  C     0.02426   0.02672   0.25003   0.00000  Uiso   1.00
C1073  C     0.08346   0.10834   0.21131   0.00000  Uiso   1.00
C1074  C     0.10485   0.12771   0.19402   0.00000  Uiso   1.00
C1075  C     0.13332   0.13465   0.19791   0.00000  Uiso   1.00
C1076  C     0.11863   0.10295   0.23703   0.00000  Uiso   1.00
C1077  C     0.14008   0.12253   0.21987   0.00000  Uiso   1.00
C1078  C     0.32419   0.29230   0.02403   0.00000  Uiso   1.00
C1079  C     0.35260   0.29892   0.02431   0.00000  Uiso   1.00
C1080  C     0.36537   0.29587   0.00067   0.00000  Uiso   1.00
C1081  C     0.34936   0.28662   0.97663   0.00000  Uiso   1.00
C1082  C     0.32095   0.28000   0.97631   0.00000  Uiso   1.00
F1083  F     0.28233   0.20823   0.35480   0.00000  Uiso   1.00
F1084  F     0.47732   0.30596   0.39520   0.00000  Uiso   1.00
H1085  H     0.04552   0.05048   0.31505   0.00000  Uiso   1.00
H1086  H     0.10690   0.07570   0.31293   0.00000  Uiso   1.00
H1087  H     0.07605   0.12748   0.27637   0.00000  Uiso   1.00
H1088  H     0.11725   0.17053   0.29458   0.00000  Uiso   1.00
H1089  H     0.14836   0.11867   0.33090   0.00000  Uiso   1.00
H1090  H     0.16367   0.19438   0.31770   0.00000  Uiso   1.00
H1091  H     0.22837   0.17132   0.35043   0.00000  Uiso   1.00
H1092  H     0.20701   0.22817   0.30853   0.00000  Uiso   1.00
H1093  H     0.25626   0.26618   0.31147   0.00000  Uiso   1.00
H1094  H     0.28385   0.23988   0.03614   0.00000  Uiso   1.00
H1095  H     0.22578   0.27043   0.01735   0.00000  Uiso   1.00
H1096  H     0.19555   0.24283   0.05516   0.00000  Uiso   1.00
H1097  H     0.25345   0.21236   0.07378   0.00000  Uiso   1.00
H1098  H     0.23807   0.22272   0.11952   0.00000  Uiso   1.00
H1099  H     0.20760   0.19554   0.15747   0.00000  Uiso   1.00
H1100  H     0.13382   0.16292   0.10526   0.00000  Uiso   1.00
H1101  H     0.17770   0.15952   0.18322   0.00000  Uiso   1.00
H1102  H     0.04508   0.04843   0.21330   0.00000  Uiso   1.00
H1103  H     0.06160   0.10292   0.20767   0.00000  Uiso   1.00
H1104  H     0.09901   0.13686   0.17735   0.00000  Uiso   1.00
H1105  H     0.12417   0.09291   0.25310   0.00000  Uiso   1.00
H1106  H     0.16186   0.12750   0.22322   0.00000  Uiso   1.00
H1107  H     0.31523   0.29557   0.04247   0.00000  Uiso   1.00
H1108  H     0.36464   0.30643   0.04307   0.00000  Uiso   1.00
H1109  H     0.35909   0.28524   0.95784   0.00000  Uiso   1.00
H1110  H     0.31003   0.27440   0.95692   0.00000  Uiso   1.00
C1111  C     0.66914   0.30890   0.61222   0.00000  Uiso   1.00
C1112  C     0.67128   0.28769   0.62632   0.00000  Uiso   1.00
C1113  C     0.67333   0.26646   0.61158   0.00000  Uiso   1.00
C1114  C     0.65422   0.22459   0.64276   0.00000  Uiso   1.00
C1115  C     0.67654   0.24461   0.62651   0.00000  Uiso   1.00
C1116  C     0.70065   0.24189   0.62215   0.00000  Uiso   1.00
C1117  C     0.70167   0.21843   0.63251   0.00000  Uiso   1.00
C1118  C     0.67848   0.19727   0.64710   0.00000  Uiso   1.00
C1119  C     0.65506   0.20091   0.65284   0.00000  Uiso   1.00
C1120  C     0.67802   0.17054   0.65379   0.00000  Uiso   1.00
N1121  N     0.65423   0.14791   0.66033   0.00000  Uiso   1.00
C1122  C     0.62448   0.09899   0.67565   0.00000  Uiso   1.00
C1123  C     0.64977   0.11961   0.66338   0.00000  Uiso   1.00
C1124  C     0.66851   0.11134   0.65229   0.00000  Uiso   1.00
C1125  C     0.66187   0.08293   0.65355   0.00000  Uiso   1.00
C1126  C     0.63641   0.06223   0.66571   0.00000  Uiso   1.00
C1127  C     0.61778   0.07053   0.67696   0.00000  Uiso   1.00
C1128  C     0.61493   0.97405   0.66636   0.00000  Uiso   1.00
C1129  C     0.64311   0.06802   0.37382   0.00000  Uiso   1.00
C1130  C     0.66745   0.07473   0.35798   0.00000  Uiso   1.00
C1131  C     0.69254   0.10086   0.36316   0.00000  Uiso   1.00
C1132  C     0.69398   0.11842   0.38458   0.00000  Uiso   1.00
C1133  C     0.67004   0.11098   0.40091   0.00000  Uiso   1.00
C1134  C     0.64457   0.08568   0.39526   0.00000  Uiso   1.00
C1135  C     0.68420   0.15931   0.41998   0.00000  Uiso   1.00
C1136  C     0.67161   0.12968   0.42366   0.00000  Uiso   1.00
C1137  C     0.66078   0.11797   0.44943   0.00000  Uiso   1.00
C1138  C     0.66262   0.13549   0.47117   0.00000  Uiso   1.00
C1139  C     0.67520   0.16511   0.46739   0.00000  Uiso   1.00
C1140  C     0.68607   0.17674   0.44175   0.00000  Uiso   1.00
N1141  N     0.67766   0.18426   0.48882   0.00000  Uiso   1.00
C1142  C     0.66413   0.17750   0.51191   0.00000  Uiso   1.00
C1143  C     0.67211   0.24322   0.56609   0.00000  Uiso   1.00
C1144  C     0.67256   0.26637   0.58256   0.00000  Uiso   1.00
C1145  C     0.67078   0.28807   0.56868   0.00000  Uiso   1.00
C1146  C     0.66912   0.30907   0.58336   0.00000  Uiso   1.00
C1147  C     0.69154   0.24987   0.54464   0.00000  Uiso   1.00
C1148  C     0.68952   0.22848   0.52735   0.00000  Uiso   1.00
C1149  C     0.66799   0.20001   0.53124   0.00000  Uiso   1.00
C1150  C     0.65098   0.21470   0.57036   0.00000  Uiso   1.00
C1151  C     0.64911   0.19325   0.55320   0.00000  Uiso   1.00
C1152  C     0.63477   0.00914   0.35736   0.00000  Uiso   1.00
C1153  C     0.61298   0.98073   0.35764   0.00000  Uiso   1.00
C1154  C     0.59716   0.96796   0.33400   0.00000  Uiso   1.00
C1155  C     0.60392   0.98397   0.30996   0.00000  Uiso   1.00
C1156  C     0.62571   0.01238   0.30964   0.00000  Uiso   1.00
F1157  F     0.59256   0.05100   0.68813   0.00000  Uiso   1.00
F1158  F     0.49530   0.85601   0.72853   0.00000  Uiso   1.00
H1159  H     0.67162   0.28781   0.64838   0.00000  Uiso   1.00
H1160  H     0.63546   0.22643   0.64626   0.00000  Uiso   1.00
H1161  H     0.71809   0.25728   0.60970   0.00000  Uiso   1.00
H1162  H     0.71994   0.21608   0.62791   0.00000  Uiso   1.00
H1163  H     0.63697   0.18497   0.66423   0.00000  Uiso   1.00
H1164  H     0.69737   0.16966   0.65103   0.00000  Uiso   1.00
H1165  H     0.60961   0.10496   0.68376   0.00000  Uiso   1.00
H1166  H     0.68782   0.12632   0.64186   0.00000  Uiso   1.00
H1167  H     0.67658   0.07707   0.64480   0.00000  Uiso   1.00
H1168  H     0.62269   0.04948   0.36947   0.00000  Uiso   1.00
H1169  H     0.71131   0.10755   0.35068   0.00000  Uiso   1.00
H1170  H     0.71394   0.13778   0.38849   0.00000  Uiso   1.00
H1171  H     0.62557   0.07988   0.40711   0.00000  Uiso   1.00
H1172  H     0.65131   0.09526   0.45285   0.00000  Uiso   1.00
H1173  H     0.65460   0.12573   0.49080   0.00000  Uiso   1.00
H1174  H     0.69576   0.19951   0.43859   0.00000  Uiso   1.00
H1175  H     0.64848   0.15563   0.51655   0.00000  Uiso   1.00
H1176  H     0.67001   0.28825   0.54663   0.00000  Uiso   1.00
H1177  H     0.70798   0.27173   0.54100   0.00000  Uiso   1.00
H1178  H     0.70451   0.23432   0.51068   0.00000  Uiso   1.00
H1179  H     0.63540   0.20916   0.58643   0.00000  Uiso   1.00
H1180  H     0.63230   0.17147   0.55655   0.00000  Uiso   1.00
H1181  H     0.64700   0.01810   0.37580   0.00000  Uiso   1.00
H1182  H     0.60845   0.96869   0.37640   0.00000  Uiso   1.00
H1183  H     0.59281   0.97424   0.29117   0.00000  Uiso   1.00
H1184  H     0.63103   0.02330   0.29025   0.00000  Uiso   1.00
C1185  C     0.33581   0.64223   0.94555   0.00000  Uiso   1.00
C1186  C     0.33795   0.62102   0.95965   0.00000  Uiso   1.00
C1187  C     0.34000   0.59979   0.94491   0.00000  Uiso   1.00
C1188  C     0.32089   0.55792   0.97609   0.00000  Uiso   1.00
C1189  C     0.34321   0.57794   0.95984   0.00000  Uiso   1.00
C1190  C     0.36732   0.57522   0.95548   0.00000  Uiso   1.00
C1191  C     0.36834   0.55176   0.96584   0.00000  Uiso   1.00
C1192  C     0.34515   0.53060   0.98043   0.00000  Uiso   1.00
C1193  C     0.32173   0.53424   0.98617   0.00000  Uiso   1.00
C1194  C     0.34469   0.50387   0.98712   0.00000  Uiso   1.00
N1195  N     0.32090   0.48124   0.99366   0.00000  Uiso   1.00
C1196  C     0.29115   0.43232   0.00898   0.00000  Uiso   1.00
C1197  C     0.31644   0.45294   0.99671   0.00000  Uiso   1.00
C1198  C     0.33518   0.44467   0.98562   0.00000  Uiso   1.00
C1199  C     0.32854   0.41626   0.98688   0.00000  Uiso   1.00
C1200  C     0.30308   0.39556   0.99904   0.00000  Uiso   1.00
C1201  C     0.28445   0.40386   0.01029   0.00000  Uiso   1.00
C1202  C     0.28160   0.30738   0.99969   0.00000  Uiso   1.00
C1203  C     0.30978   0.40135   0.70715   0.00000  Uiso   1.00
C1204  C     0.33412   0.40806   0.69131   0.00000  Uiso   1.00
C1205  C     0.35921   0.43419   0.69649   0.00000  Uiso   1.00
C1206  C     0.36065   0.45175   0.71791   0.00000  Uiso   1.00
C1207  C     0.33671   0.44431   0.73424   0.00000  Uiso   1.00
C1208  C     0.31124   0.41901   0.72859   0.00000  Uiso   1.00
C1209  C     0.35087   0.49264   0.75331   0.00000  Uiso   1.00
C1210  C     0.33828   0.46301   0.75699   0.00000  Uiso   1.00
C1211  C     0.32745   0.45130   0.78276   0.00000  Uiso   1.00
C1212  C     0.32929   0.46882   0.80450   0.00000  Uiso   1.00
C1213  C     0.34187   0.49844   0.80072   0.00000  Uiso   1.00
C1214  C     0.35274   0.51007   0.77508   0.00000  Uiso   1.00
N1215  N     0.34433   0.51759   0.82215   0.00000  Uiso   1.00
C1216  C     0.33080   0.51083   0.84524   0.00000  Uiso   1.00
C1217  C     0.33878   0.57655   0.89942   0.00000  Uiso   1.00
C1218  C     0.33923   0.59970   0.91589   0.00000  Uiso   1.00
C1219  C     0.33745   0.62140   0.90201   0.00000  Uiso   1.00
C1220  C     0.33579   0.64240   0.91669   0.00000  Uiso   1.00
C1221  C     0.35821   0.58320   0.87797   0.00000  Uiso   1.00
C1222  C     0.35619   0.56181   0.86068   0.00000  Uiso   1.00
C1223  C     0.33466   0.53334   0.86457   0.00000  Uiso   1.00
C1224  C     0.31765   0.54803   0.90369   0.00000  Uiso   1.00
C1225  C     0.31578   0.52658   0.88653   0.00000  Uiso   1.00
C1226  C     0.30144   0.34247   0.69069   0.00000  Uiso   1.00
C1227  C     0.27965   0.31406   0.69097   0.00000  Uiso   1.00
C1228  C     0.26383   0.30129   0.66733   0.00000  Uiso   1.00
C1229  C     0.27059   0.31730   0.64329   0.00000  Uiso   1.00
C1230  C     0.29238   0.34571   0.64297   0.00000  Uiso   1.00
F1231  F     0.25923   0.38433   0.02146   0.00000  Uiso   1.00
F1232  F     0.16197   0.18934   0.06186   0.00000  Uiso   1.00
H1233  H     0.33829   0.62114   0.98171   0.00000  Uiso   1.00
H1234  H     0.30213   0.55976   0.97959   0.00000  Uiso   1.00
H1235  H     0.38476   0.59061   0.94303   0.00000  Uiso   1.00
H1236  H     0.38661   0.54941   0.96124   0.00000  Uiso   1.00
H1237  H     0.30364   0.51830   0.99756   0.00000  Uiso   1.00
H1238  H     0.36404   0.50299   0.98436   0.00000  Uiso   1.00
H1239  H     0.27628   0.43829   0.01709   0.00000  Uiso   1.00
H1240  H     0.35449   0.45965   0.97519   0.00000  Uiso   1.00
H1241  H     0.34325   0.41040   0.97813   0.00000  Uiso   1.00
H1242  H     0.28936   0.38281   0.70280   0.00000  Uiso   1.00
H1243  H     0.37798   0.44088   0.68401   0.00000  Uiso   1.00
H1244  H     0.38061   0.47111   0.72182   0.00000  Uiso   1.00
H1245  H     0.29224   0.41321   0.74044   0.00000  Uiso   1.00
H1246  H     0.31798   0.42859   0.78618   0.00000  Uiso   1.00
H1247  H     0.32127   0.45906   0.82413   0.00000  Uiso   1.00
H1248  H     0.36243   0.53284   0.77192   0.00000  Uiso   1.00
H1249  H     0.31515   0.48896   0.84988   0.00000  Uiso   1.00
H1250  H     0.33668   0.62158   0.87996   0.00000  Uiso   1.00
H1251  H     0.37465   0.60506   0.87433   0.00000  Uiso   1.00
H1252  H     0.37118   0.56765   0.84401   0.00000  Uiso   1.00
H1253  H     0.30207   0.54249   0.91976   0.00000  Uiso   1.00
H1254  H     0.29897   0.50480   0.88988   0.00000  Uiso   1.00
H1255  H     0.31367   0.35143   0.70913   0.00000  Uiso   1.00
H1256  H     0.27512   0.30202   0.70973   0.00000  Uiso   1.00
H1257  H     0.25948   0.30757   0.62450   0.00000  Uiso   1.00
H1258  H     0.29770   0.35663   0.62358   0.00000  Uiso   1.00
C1259  C     0.00247   0.97557   0.27889   0.00000  Uiso   1.00
C1260  C     0.00461   0.95436   0.29299   0.00000  Uiso   1.00
C1261  C     0.00666   0.93313   0.27825   0.00000  Uiso   1.00
C1262  C     0.98755   0.89126   0.30943   0.00000  Uiso   1.00
C1263  C     0.00987   0.91128   0.29318   0.00000  Uiso   1.00
C1264  C     0.03398   0.90856   0.28882   0.00000  Uiso   1.00
C1265  C     0.03500   0.88510   0.29918   0.00000  Uiso   1.00
C1266  C     0.01181   0.86394   0.31377   0.00000  Uiso   1.00
C1267  C     0.98839   0.86758   0.31951   0.00000  Uiso   1.00
C1268  C     0.01135   0.83721   0.32046   0.00000  Uiso   1.00
N1269  N     0.98756   0.81458   0.32700   0.00000  Uiso   1.00
C1270  C     0.95781   0.76566   0.34232   0.00000  Uiso   1.00
C1271  C     0.98310   0.78628   0.33005   0.00000  Uiso   1.00
C1272  C     0.00184   0.77801   0.31896   0.00000  Uiso   1.00
C1273  C     0.99520   0.74960   0.32022   0.00000  Uiso   1.00
C1274  C     0.96974   0.72890   0.33238   0.00000  Uiso   1.00
C1275  C     0.95111   0.73720   0.34363   0.00000  Uiso   1.00
C1276  C     0.94826   0.64072   0.33303   0.00000  Uiso   1.00
C1277  C     0.97644   0.73469   0.04049   0.00000  Uiso   1.00
C1278  C     0.00078   0.74140   0.02465   0.00000  Uiso   1.00
C1279  C     0.02587   0.76753   0.02983   0.00000  Uiso   1.00
C1280  C     0.02731   0.78509   0.05125   0.00000  Uiso   1.00
C1281  C     0.00337   0.77765   0.06758   0.00000  Uiso   1.00
C1282  C     0.97790   0.75235   0.06193   0.00000  Uiso   1.00
C1283  C     0.01753   0.82598   0.08665   0.00000  Uiso   1.00
C1284  C     0.00494   0.79635   0.09033   0.00000  Uiso   1.00
C1285  C     0.99411   0.78464   0.11610   0.00000  Uiso   1.00
C1286  C     0.99595   0.80216   0.13784   0.00000  Uiso   1.00
C1287  C     0.00853   0.83178   0.13406   0.00000  Uiso   1.00
C1288  C     0.01940   0.84341   0.10842   0.00000  Uiso   1.00
N1289  N     0.01099   0.85093   0.15549   0.00000  Uiso   1.00
C1290  C     0.99746   0.84417   0.17858   0.00000  Uiso   1.00
C1291  C     0.00544   0.90989   0.23276   0.00000  Uiso   1.00
C1292  C     0.00589   0.93304   0.24923   0.00000  Uiso   1.00
C1293  C     0.00411   0.95474   0.23535   0.00000  Uiso   1.00
C1294  C     0.00245   0.97574   0.25003   0.00000  Uiso   1.00
C1295  C     0.02487   0.91654   0.21131   0.00000  Uiso   1.00
C1296  C     0.02285   0.89515   0.19402   0.00000  Uiso   1.00
C1297  C     0.00132   0.86668   0.19791   0.00000  Uiso   1.00
C1298  C     0.98431   0.88137   0.23703   0.00000  Uiso   1.00
C1299  C     0.98244   0.85992   0.21987   0.00000  Uiso   1.00
C1300  C     0.96810   0.67581   0.02403   0.00000  Uiso   1.00
C1301  C     0.94631   0.64740   0.02431   0.00000  Uiso   1.00
C1302  C     0.93049   0.63463   0.00067   0.00000  Uiso   1.00
C1303  C     0.93725   0.65064   0.97663   0.00000  Uiso   1.00
C1304  C     0.95904   0.67905   0.97631   0.00000  Uiso   1.00
F1305  F     0.92589   0.71767   0.35480   0.00000  Uiso   1.00
F1306  F     0.82863   0.52268   0.39520   0.00000  Uiso   1.00
H1307  H     0.00495   0.95448   0.31505   0.00000  Uiso   1.00
H1308  H     0.96879   0.89310   0.31293   0.00000  Uiso   1.00
H1309  H     0.05142   0.92395   0.27637   0.00000  Uiso   1.00
H1310  H     0.05327   0.88275   0.29458   0.00000  Uiso   1.00
H1311  H     0.97030   0.85164   0.33090   0.00000  Uiso   1.00
H1312  H     0.03070   0.83633   0.31770   0.00000  Uiso   1.00
H1313  H     0.94294   0.77163   0.35043   0.00000  Uiso   1.00
H1314  H     0.02115   0.79299   0.30853   0.00000  Uiso   1.00
H1315  H     0.00991   0.74374   0.31147   0.00000  Uiso   1.00
H1316  H     0.95602   0.71615   0.03614   0.00000  Uiso   1.00
H1317  H     0.04464   0.77422   0.01735   0.00000  Uiso   1.00
H1318  H     0.04727   0.80445   0.05516   0.00000  Uiso   1.00
H1319  H     0.95890   0.74655   0.07378   0.00000  Uiso   1.00
H1320  H     0.98464   0.76193   0.11952   0.00000  Uiso   1.00
H1321  H     0.98793   0.79240   0.15747   0.00000  Uiso   1.00
H1322  H     0.02909   0.86618   0.10526   0.00000  Uiso   1.00
H1323  H     0.98181   0.82230   0.18322   0.00000  Uiso   1.00
H1324  H     0.00334   0.95492   0.21330   0.00000  Uiso   1.00
H1325  H     0.04131   0.93840   0.20767   0.00000  Uiso   1.00
H1326  H     0.03784   0.90099   0.17735   0.00000  Uiso   1.00
H1327  H     0.96873   0.87583   0.25310   0.00000  Uiso   1.00
H1328  H     0.96563   0.83814   0.22322   0.00000  Uiso   1.00
H1329  H     0.98033   0.68477   0.04247   0.00000  Uiso   1.00
H1330  H     0.94178   0.63536   0.04307   0.00000  Uiso   1.00
H1331  H     0.92614   0.64091   0.95784   0.00000  Uiso   1.00
H1332  H     0.96436   0.68997   0.95692   0.00000  Uiso   1.00
C1333  C     0.33333   0.38993   0.66667   0.00000  Uiso   1.00
C1334  C     0.00000   0.72326   0.00000   0.00000  Uiso   1.00
C1335  C     0.61007   0.94340   0.66667   0.00000  Uiso   1.00
C1336  C     0.27674   0.27674   0.00000   0.00000  Uiso   1.00
C1337  C     0.05660   0.66667   0.66667   0.00000  Uiso   1.00
C1338  C     0.72326  -0.00000   0.00000   0.00000  Uiso   1.00
C1339  C     0.38993   0.33333   0.33333   0.00000  Uiso   1.00
C1340  C     0.94340   0.61007   0.33333   0.00000  Uiso   1.00
C1341  C     0.66667   0.05660   0.33333   0.00000  Uiso   1.00
C1342  C     0.33333   0.66667   0.95841   0.00000  Uiso   1.00
C1343  C     0.33333   0.66667   0.90399   0.00000  Uiso   1.00
H1344  H     0.33333   0.66667   0.98105   0.00000  Uiso   1.00
H1345  H     0.33333   0.66667   0.88134   0.00000  Uiso   1.00
C1346  C     0.00000   0.00000   0.29174   0.00000  Uiso   1.00
C1347  C     0.00000   0.00000   0.23732   0.00000  Uiso   1.00
H1348  H     0.00000   0.00000   0.31438   0.00000  Uiso   1.00
H1349  H     0.00000   0.00000   0.21467   0.00000  Uiso   1.00
C1350  C     0.66667   0.33333   0.62508   0.00000  Uiso   1.00
C1351  C     0.66667   0.33333   0.57066   0.00000  Uiso   1.00
H1352  H     0.66667   0.33333   0.64772   0.00000  Uiso   1.00
H1353  H     0.66667   0.33333   0.54801   0.00000  Uiso   1.00
C1354  C     0.66667   0.33333   0.04159   0.00000  Uiso   1.00
C1355  C     0.66667   0.33333   0.09601   0.00000  Uiso   1.00
H1356  H     0.66667   0.33333   0.01895   0.00000  Uiso   1.00
H1357  H     0.66667   0.33333   0.11866   0.00000  Uiso   1.00
C1358  C     0.33333   0.66667   0.37492   0.00000  Uiso   1.00
C1359  C     0.33333   0.66667   0.42934   0.00000  Uiso   1.00
H1360  H     0.33333   0.66667   0.35228   0.00000  Uiso   1.00
H1361  H     0.33333   0.66667   0.45199   0.00000  Uiso   1.00
C1362  C     0.00000   0.00000   0.70826   0.00000  Uiso   1.00
C1363  C     0.00000   0.00000   0.76268   0.00000  Uiso   1.00
H1364  H     0.00000   0.00000   0.68562   0.00000  Uiso   1.00
H1365  H     0.00000   0.00000   0.78533   0.00000  Uiso   1.00
loop_
_geom_bond_atom_site_label_1
_geom_bond_atom_site_label_2
_geom_bond_distance
_geom_bond_site_symmetry_2
_ccdc_geom_bond_type
C1     C2      1.395   .     D
C1     C36     1.417   .     S
C1     C1358   1.532   .     S
C2     C3      1.410   .     S
C2     H49     1.083   .     S
C3     C5      1.475   .     S
C3     C34     1.425   .     D
C4     C5      1.401   .     S
C4     C9      1.397   .     D
C4     H50     1.084   .     S
C5     C6      1.402   .     D
C6     C7      1.396   .     S
C6     H51     1.083   .     S
C7     C8      1.402   .     D
C7     H52     1.083   .     S
C8     C9      1.407   .     S
C8     C10     1.473   .     S
C9     H53     1.083   .     S
C10    N11     1.299   .     D
C10    H54     1.082   .     S
N11    C13     1.436   .     S
C12    C13     1.399   .     S
C12    C17     1.398   .     D
C12    H55     1.083   .     S
C13    C14     1.408   .     D
C14    C15     1.396   .     S
C14    H56     1.080   .     S
C15    C16     1.404   .     D
C15    H57     1.083   .     S
C16    C17     1.407   .     S
C16    C710    1.480   .     S
C17    F47     1.357   .     S
C18    C708    1.412   .     S
C18    C1339   1.546   .     S
C18    C712    1.414   .     D
C19    C20     1.413   .     D
C19    C24     1.398   .     S
C19    H58     1.080   .     S
C20    C21     1.412   .     S
C20    C1333   1.546   .     S
C21    C22     1.394   .     D
C21    H59     1.083   .     S
C22    C23     1.402   .     S
C22    H60     1.083   .     S
C23    C24     1.403   .     D
C23    C26     1.482   .     S
C24    H61     1.083   .     S
C25    C26     1.407   .     D
C25    C30     1.396   .     S
C25    F344    1.357   .     S
C26    C27     1.405   .     S
C27    C28     1.398   .     D
C27    H62     1.084   .     S
C28    C29     1.407   .     S
C28    H63     1.080   .     S
C29    C30     1.399   .     D
C29    N31     1.436   .     S
C30    H64     1.084   .     S
N31    C32     1.299   .     D
C32    C39     1.475   .     S
C32    H65     1.082   .     S
C33    C34     1.482   .     S
C33    C37     1.403   .     S
C33    C40     1.405   .     D
C34    C35     1.403   .     S
C35    C36     1.387   .     D
C35    H66     1.084   .     S
C36    C1359   1.520   .     S
C37    C38     1.396   .     D
C37    H67     1.083   .     S
C38    C39     1.406   .     S
C38    H68     1.083   .     S
C39    C41     1.403   .     D
C40    C41     1.397   .     S
C40    H69     1.082   .     S
C41    H70     1.084   .     S
C42    C43     1.395   .     S
C42    H71     1.083   .     S
C42    C684    1.412   .     D
C43    C44     1.403   .     D
C43    H72     1.083   .     S
C44    C45     1.401   .     S
C44    C682    1.480   .     S
C45    C46     1.395   .     D
C45    H73     1.083   .     S
C46    H74     1.081   .     S
C46    C684    1.414   .     S
F48    C617    1.357   .     S
C75    C76     1.395   .     D
C75    C110    1.417   .     S
C75    C1362   1.532   1_665 S
C76    C77     1.410   .     S
C76    H123    1.083   .     S
C77    C79     1.475   .     S
C77    C108    1.425   .     D
C78    C83     1.397   .     D
C78    H124    1.084   .     S
C78    C79     1.401   1_455 S
C79    C80     1.402   .     D
C79    C78     1.401   1_655 S
C80    C81     1.396   .     S
C80    H125    1.083   .     S
C81    C82     1.402   .     D
C81    H126    1.083   .     S
C82    C84     1.473   .     S
C82    C83     1.407   1_655 S
C83    H127    1.083   .     S
C83    C82     1.407   1_455 S
C84    H128    1.082   .     S
C84    N85     1.299   1_655 D
N85    C87     1.436   .     S
N85    C84     1.299   1_455 D
C86    C87     1.399   .     S
C86    C91     1.398   .     D
C86    H129    1.083   .     S
C87    C88     1.408   1_455 D
C88    H130    1.080   .     S
C88    C87     1.408   1_655 D
C88    C89     1.396   1_655 S
C89    C90     1.404   .     D
C89    C88     1.396   1_455 S
C89    H131    1.083   1_455 S
C90    C91     1.407   .     S
C90    C784    1.480   .     S
C91    F121    1.357   .     S
C92    C782    1.412   .     S
C92    C1337   1.546   .     S
C92    C786    1.414   .     D
C93    C98     1.398   .     S
C93    H132    1.080   .     S
C93    C94     1.413   1_455 D
C94    C95     1.412   .     S
C94    C93     1.413   1_655 D
C94    C1334   1.546   1_656 S
C95    C96     1.394   .     D
C95    H133    1.083   .     S
C96    C97     1.402   .     S
C96    H134    1.083   .     S
C97    C100    1.482   .     S
C97    C98     1.403   1_655 D
C98    H135    1.083   .     S
C98    C97     1.403   1_455 D
C99    C100    1.407   .     S
C99    C104    1.396   .     D
C99    F418    1.358   .     S
C100   C101    1.405   1_655 D
C101   C102    1.398   .     S
C101   H136    1.084   .     S
C101   C100    1.405   1_455 D
C102   H137    1.080   .     S
C102   C103    1.407   1_455 D
C103   C104    1.399   .     S
C103   N105    1.436   .     S
C103   C102    1.407   1_655 D
C104   H138    1.084   .     S
N105   C106    1.299   1_655 D
C106   H139    1.082   .     S
C106   N105    1.299   1_455 D
C106   C113    1.475   1_455 S
C107   C108    1.482   .     S
C107   C111    1.403   .     S
C107   C114    1.405   1_655 D
C108   C109    1.403   .     S
C109   C110    1.387   .     D
C109   H140    1.084   .     S
C110   C1363   1.520   1_665 S
C111   C112    1.396   .     D
C111   H141    1.083   .     S
C112   C113    1.406   .     S
C112   H142    1.083   .     S
C113   C106    1.475   1_655 S
C113   C115    1.403   1_655 D
C114   C115    1.397   .     S
C114   H143    1.082   .     S
C114   C107    1.405   1_455 D
C115   H144    1.084   .     S
C115   C113    1.403   1_455 D
C116   C117    1.395   .     S
C116   H145    1.083   .     S
C116   C758    1.412   .     D
C117   C118    1.403   .     D
C117   H146    1.083   .     S
C118   C756    1.480   .     S
C118   C119    1.401   1_556 S
C119   C120    1.395   .     D
C119   H147    1.083   .     S
C119   C118    1.401   1_554 S
C120   H148    1.081   .     S
C120   C758    1.414   1_554 S
F122   C469    1.357   .     S
H131   C89     1.083   1_655 S
C149   C150    1.395   .     D
C149   C184    1.417   .     S
C149   C1354   1.531   .     S
C150   C151    1.410   .     S
C150   H197    1.083   .     S
C151   C153    1.475   .     S
C151   C182    1.425   .     D
C152   C153    1.401   .     D
C152   C157    1.397   .     S
C152   H198    1.084   .     S
C153   C154    1.402   .     S
C154   C155    1.396   .     D
C154   H199    1.083   .     S
C155   C156    1.402   .     S
C155   H200    1.083   .     S
C156   C157    1.407   .     D
C156   C158    1.473   .     S
C157   H201    1.083   .     S
C158   N159    1.299   .     D
C158   H202    1.082   .     S
N159   C161    1.436   .     S
C160   C165    1.398   .     S
C160   H203    1.083   .     S
C160   C161    1.399   1_556 D
C161   C162    1.408   .     S
C161   C160    1.399   1_554 D
C162   C163    1.396   .     D
C162   H204    1.080   .     S
C163   C164    1.404   .     S
C163   H205    1.083   .     S
C164   C858    1.480   .     S
C164   C165    1.407   1_554 D
C165   F195    1.357   .     S
C165   C164    1.407   1_556 D
C166   C856    1.412   .     D
C166   C1338   1.546   .     S
C166   C860    1.414   1_554 S
C167   C168    1.413   .     D
C167   C172    1.398   .     S
C167   H206    1.080   .     S
C168   C169    1.412   .     S
C168   C1341   1.546   .     S
C169   C170    1.394   .     D
C169   H207    1.083   .     S
C170   C171    1.402   .     S
C170   H208    1.083   .     S
C171   C172    1.403   .     D
C171   C174    1.482   .     S
C172   H209    1.083   .     S
C173   C174    1.407   .     D
C173   C178    1.396   .     S
C173   F270    1.357   .     S
C174   C175    1.405   .     S
C175   C176    1.398   .     D
C175   H210    1.084   .     S
C176   C177    1.407   .     S
C176   H211    1.080   .     S
C177   C178    1.399   .     D
C177   N179    1.436   .     S
C178   H212    1.084   .     S
N179   C180    1.299   .     D
C180   C187    1.475   .     S
C180   H213    1.082   .     S
C181   C182    1.482   .     S
C181   C185    1.403   .     S
C181   C188    1.405   .     D
C182   C183    1.403   .     S
C183   C184    1.387   .     D
C183   H214    1.084   .     S
C184   C1355   1.519   .     S
C185   C186    1.396   .     D
C185   H215    1.083   .     S
C186   C187    1.406   .     S
C186   H216    1.083   .     S
C187   C189    1.403   .     D
C188   C189    1.397   .     S
C188   H217    1.082   .     S
C189   H218    1.084   .     S
C190   C191    1.395   .     S
C190   H219    1.083   .     S
C190   C832    1.412   .     D
C191   C192    1.403   .     D
C191   H220    1.083   .     S
C192   C193    1.401   .     S
C192   C830    1.480   .     S
C193   C194    1.395   .     D
C193   H221    1.083   .     S
C194   H222    1.081   .     S
C194   C832    1.414   .     S
F196   C543    1.358   .     S
C223   C224    1.395   .     D
C223   C258    1.417   .     S
C223   C1358   1.532   .     S
C224   C225    1.410   .     S
C224   H271    1.083   .     S
C225   C227    1.475   .     S
C225   C256    1.425   .     D
C226   C227    1.401   .     S
C226   C231    1.397   .     D
C226   H272    1.084   .     S
C227   C228    1.402   .     D
C228   C229    1.396   .     S
C228   H273    1.083   .     S
C229   C230    1.402   .     D
C229   H274    1.083   .     S
C230   C231    1.407   .     S
C230   C232    1.473   .     S
C231   H275    1.083   .     S
C232   N233    1.299   .     D
C232   H276    1.082   .     S
N233   C235    1.436   .     S
C234   C235    1.399   .     S
C234   C239    1.398   .     D
C234   H277    1.083   .     S
C235   C236    1.408   .     D
C236   C237    1.396   .     S
C236   H278    1.080   .     S
C237   C238    1.404   .     D
C237   H279    1.083   .     S
C238   C239    1.407   .     S
C238   C1154   1.480   .     S
C239   F269    1.357   .     S
C240   C1152   1.412   .     S
C240   C1341   1.546   .     S
C240   C1156   1.414   .     D
C241   C242    1.413   .     D
C241   C246    1.398   .     S
C241   H280    1.080   .     S
C242   C243    1.412   .     S
C242   C1335   1.546   .     S
C243   C244    1.394   .     D
C243   H281    1.083   .     S
C244   C245    1.402   .     S
C244   H282    1.083   .     S
C245   C246    1.403   .     D
C245   C248    1.482   .     S
C246   H283    1.083   .     S
C247   C248    1.407   .     D
C247   C252    1.396   .     S
C247   F566    1.358   .     S
C248   C249    1.405   .     S
C249   C250    1.398   .     D
C249   H284    1.084   .     S
C250   C251    1.407   .     S
C250   H285    1.080   .     S
C251   C252    1.399   .     D
C251   N253    1.436   .     S
C252   H286    1.084   .     S
N253   C254    1.299   .     D
C254   C261    1.475   .     S
C254   H287    1.082   .     S
C255   C256    1.482   .     S
C255   C259    1.403   .     S
C255   C262    1.405   .     D
C256   C257    1.403   .     S
C257   C258    1.387   .     D
C257   H288    1.084   .     S
C258   C1359   1.520   .     S
C259   C260    1.396   .     D
C259   H289    1.083   .     S
C260   C261    1.406   .     S
C260   H290    1.083   .     S
C261   C263    1.403   .     D
C262   C263    1.397   .     S
C262   H291    1.082   .     S
C263   H292    1.084   .     S
C264   H293    1.083   .     S
C264   C1128   1.412   .     D
C264   C265    1.395   1_565 S
C265   C266    1.403   .     D
C265   H294    1.083   .     S
C265   C264    1.395   1_545 S
C266   C267    1.401   .     S
C266   C1126   1.480   .     S
C267   H295    1.083   .     S
C267   C268    1.395   1_545 D
C268   H296    1.081   .     S
C268   C1128   1.414   .     S
C268   C267    1.395   1_565 D
C297   C298    1.395   .     D
C297   C332    1.417   .     S
C297   C1362   1.532   .     S
C298   C299    1.410   .     S
C298   H345    1.083   .     S
C299   C301    1.475   .     S
C299   C330    1.425   .     D
C300   C301    1.401   .     S
C300   C305    1.397   .     D
C300   H346    1.084   .     S
C301   C302    1.402   .     D
C302   C303    1.396   .     S
C302   H347    1.083   .     S
C303   C304    1.402   .     D
C303   H348    1.083   .     S
C304   C305    1.407   .     S
C304   C306    1.473   .     S
C305   H349    1.083   .     S
C306   N307    1.299   .     D
C306   H350    1.082   .     S
N307   C309    1.436   .     S
C308   C309    1.399   .     S
C308   C313    1.398   .     D
C308   H351    1.083   .     S
C309   C310    1.408   .     D
C310   C311    1.396   .     S
C310   H352    1.080   .     S
C311   C312    1.404   .     D
C311   H353    1.083   .     S
C312   C313    1.407   .     S
C312   C1228   1.480   .     S
C313   F343    1.357   .     S
C314   C1226   1.412   .     S
C314   C1333   1.546   .     S
C314   C1230   1.414   .     D
C315   C316    1.413   .     D
C315   C320    1.398   .     S
C315   H354    1.080   .     S
C316   C317    1.412   .     S
C316   C1336   1.546   1_556 S
C317   C318    1.394   .     D
C317   H355    1.083   .     S
C318   C319    1.402   .     S
C318   H356    1.083   .     S
C319   C320    1.403   .     D
C319   C322    1.482   .     S
C320   H357    1.083   .     S
C321   C322    1.407   .     D
C321   C326    1.396   .     S
C321   F640    1.358   .     S
C322   C323    1.405   .     S
C323   C324    1.398   .     D
C323   H358    1.084   .     S
C324   C325    1.407   .     S
C324   H359    1.080   .     S
C325   C326    1.399   .     D
C325   N327    1.436   .     S
C326   H360    1.084   .     S
N327   C328    1.299   .     D
C328   C335    1.475   .     S
C328   H361    1.082   .     S
C329   C330    1.482   .     S
C329   C333    1.403   .     S
C329   C336    1.405   .     D
C330   C331    1.403   .     S
C331   C332    1.387   .     D
C331   H362    1.084   .     S
C332   C1363   1.520   .     S
C333   C334    1.396   .     D
C333   H363    1.083   .     S
C334   C335    1.406   .     S
C334   H364    1.083   .     S
C335   C337    1.403   .     D
C336   C337    1.397   .     S
C336   H365    1.082   .     S
C337   H366    1.084   .     S
C338   C339    1.395   .     S
C338   H367    1.083   .     S
C338   C1202   1.412   .     D
C339   C340    1.403   .     D
C339   H368    1.083   .     S
C340   C1200   1.480   .     S
C340   C341    1.401   1_556 S
C341   C342    1.395   .     D
C341   H369    1.083   .     S
C341   C340    1.401   1_554 S
C342   H370    1.081   .     S
C342   C1202   1.414   1_554 S
C371   C372    1.395   .     D
C371   C406    1.417   .     S
C371   C1354   1.532   .     S
C372   C373    1.410   .     S
C372   H419    1.083   .     S
C373   C375    1.475   .     S
C373   C404    1.425   .     D
C374   C375    1.401   .     D
C374   C379    1.397   .     S
C374   H420    1.084   .     S
C375   C376    1.402   .     S
C376   C377    1.396   .     D
C376   H421    1.083   .     S
C377   C378    1.402   .     S
C377   H422    1.083   .     S
C378   C379    1.407   .     D
C378   C380    1.473   .     S
C379   H423    1.083   .     S
C380   N381    1.299   .     D
C380   H424    1.082   .     S
N381   C383    1.436   .     S
C382   C387    1.398   .     S
C382   H425    1.083   .     S
C382   C383    1.399   1_556 D
C383   C384    1.408   .     S
C383   C382    1.399   1_554 D
C384   C385    1.396   .     D
C384   H426    1.080   .     S
C385   C386    1.404   .     S
C385   H427    1.083   .     S
C386   C1302   1.480   .     S
C386   C387    1.407   1_554 D
C387   F417    1.357   .     S
C387   C386    1.407   1_556 D
C388   C1300   1.412   .     D
C388   C1334   1.546   1_655 S
C388   C1304   1.414   1_554 S
C389   C390    1.413   .     D
C389   C394    1.398   .     S
C389   H428    1.080   .     S
C390   C391    1.412   .     S
C390   C1340   1.545   .     S
C391   C392    1.394   .     D
C391   H429    1.083   .     S
C392   C393    1.402   .     S
C392   H430    1.083   .     S
C393   C394    1.403   .     D
C393   C396    1.482   .     S
C394   H431    1.083   .     S
C395   C396    1.407   .     D
C395   C400    1.396   .     S
C395   F492    1.358   .     S
C396   C397    1.405   .     S
C397   C398    1.398   .     D
C397   H432    1.084   .     S
C398   C399    1.407   .     S
C398   H433    1.080   .     S
C399   C400    1.399   .     D
C399   N401    1.436   .     S
C400   H434    1.084   .     S
N401   C402    1.299   .     D
C402   C409    1.475   .     S
C402   H435    1.082   .     S
C403   C404    1.482   .     S
C403   C407    1.403   .     S
C403   C410    1.405   .     D
C404   C405    1.403   .     S
C405   C406    1.387   .     D
C405   H436    1.084   .     S
C406   C1355   1.520   .     S
C407   C408    1.396   .     D
C407   H437    1.083   .     S
C408   C409    1.406   .     S
C408   H438    1.083   .     S
C409   C411    1.403   .     D
C410   C411    1.397   .     S
C410   H439    1.082   .     S
C411   H440    1.084   .     S
C412   C413    1.395   .     S
C412   H441    1.083   .     S
C412   C1276   1.412   .     D
C413   C414    1.403   .     D
C413   H442    1.083   .     S
C414   C415    1.401   .     S
C414   C1274   1.480   .     S
C415   C416    1.395   .     D
C415   H443    1.083   .     S
C416   H444    1.081   .     S
C416   C1276   1.414   .     S
C445   C446    1.395   .     D
C445   C480    1.417   .     S
C445   C1358   1.532   .     S
C446   C447    1.410   .     S
C446   H493    1.083   .     S
C447   C449    1.475   .     S
C447   C478    1.425   .     D
C448   C449    1.401   .     S
C448   C453    1.397   .     D
C448   H494    1.084   .     S
C449   C450    1.402   .     D
C450   C451    1.396   .     S
C450   H495    1.083   .     S
C451   C452    1.402   .     D
C451   H496    1.083   .     S
C452   C453    1.407   .     S
C452   C454    1.473   .     S
C453   H497    1.083   .     S
C454   N455    1.299   .     D
C454   H498    1.082   .     S
N455   C457    1.436   .     S
C456   C457    1.399   .     S
C456   C461    1.398   .     D
C456   H499    1.083   .     S
C457   C458    1.408   .     D
C458   C459    1.396   .     S
C458   H500    1.080   .     S
C459   C460    1.404   .     D
C459   H501    1.083   .     S
C460   C461    1.407   .     S
C460   C932    1.480   .     S
C461   F491    1.357   .     S
C462   C930    1.412   .     S
C462   C1340   1.546   .     S
C462   C934    1.414   .     D
C463   C464    1.413   .     D
C463   C468    1.398   .     S
C463   H502    1.080   .     S
C464   C465    1.412   .     S
C464   C1337   1.546   .     S
C465   C466    1.394   .     D
C465   H503    1.083   .     S
C466   C467    1.402   .     S
C466   H504    1.083   .     S
C467   C468    1.403   .     D
C467   C470    1.482   .     S
C468   H505    1.083   .     S
C469   C470    1.407   .     D
C469   C474    1.396   .     S
C470   C471    1.405   .     S
C471   C472    1.398   .     D
C471   H506    1.084   .     S
C472   C473    1.407   .     S
C472   H507    1.080   .     S
C473   C474    1.399   .     D
C473   N475    1.436   .     S
C474   H508    1.084   .     S
N475   C476    1.299   .     D
C476   C483    1.475   .     S
C476   H509    1.082   .     S
C477   C478    1.482   .     S
C477   C481    1.403   .     S
C477   C484    1.405   .     D
C478   C479    1.403   .     S
C479   C480    1.387   .     D
C479   H510    1.084   .     S
C480   C1359   1.519   .     S
C481   C482    1.396   .     D
C481   H511    1.083   .     S
C482   C483    1.406   .     S
C482   H512    1.083   .     S
C483   C485    1.403   .     D
C484   C485    1.397   .     S
C484   H513    1.082   .     S
C485   H514    1.084   .     S
C486   H515    1.083   .     S
C486   C906    1.412   .     D
C486   C487    1.395   1_455 S
C487   C488    1.403   .     D
C487   H516    1.083   .     S
C487   C486    1.395   1_655 S
C488   C489    1.401   .     S
C488   C904    1.480   .     S
C489   H517    1.083   .     S
C489   C490    1.395   1_655 D
C490   H518    1.081   .     S
C490   C906    1.414   .     S
C490   C489    1.395   1_455 D
C519   C520    1.395   .     D
C519   C554    1.417   .     S
C519   C1362   1.531   1_655 S
C520   C521    1.410   .     S
C520   H567    1.083   .     S
C521   C523    1.475   .     S
C521   C552    1.425   .     D
C522   C527    1.397   .     D
C522   H568    1.084   .     S
C522   C523    1.401   1_565 S
C523   C524    1.402   .     D
C523   C522    1.401   1_545 S
C524   C525    1.396   .     S
C524   H569    1.083   .     S
C525   C526    1.402   .     D
C525   H570    1.083   .     S
C526   C528    1.473   .     S
C526   C527    1.407   1_545 S
C527   H571    1.083   .     S
C527   C526    1.407   1_565 S
C528   H572    1.082   .     S
C528   N529    1.299   1_545 D
N529   C531    1.436   .     S
N529   C528    1.299   1_565 D
C530   C531    1.399   .     S
C530   C535    1.398   .     D
C530   H573    1.083   .     S
C531   C532    1.408   1_565 D
C532   H574    1.080   .     S
C532   C531    1.408   1_545 D
C532   C533    1.396   1_545 S
C533   C534    1.404   .     D
C533   C532    1.396   1_565 S
C533   H575    1.083   1_565 S
C534   C535    1.407   .     S
C534   C1006   1.480   .     S
C535   F565    1.357   .     S
C536   C1004   1.412   .     S
C536   C1335   1.546   .     S
C536   C1008   1.414   .     D
C537   C542    1.398   .     S
C537   H576    1.080   .     S
C537   C538    1.413   1_565 D
C538   C539    1.412   .     S
C538   C537    1.413   1_545 D
C538   C1338   1.546   1_556 S
C539   C540    1.394   .     D
C539   H577    1.083   .     S
C540   C541    1.402   .     S
C540   H578    1.083   .     S
C541   C544    1.482   .     S
C541   C542    1.403   1_545 D
C542   H579    1.083   .     S
C542   C541    1.403   1_565 D
C543   C544    1.407   .     S
C543   C548    1.396   .     D
C544   C545    1.405   1_545 D
C545   C546    1.398   .     S
C545   H580    1.084   .     S
C545   C544    1.405   1_565 D
C546   H581    1.080   .     S
C546   C547    1.407   1_565 D
C547   C548    1.399   .     S
C547   N549    1.436   .     S
C547   C546    1.407   1_545 D
C548   H582    1.084   .     S
N549   C550    1.299   1_545 D
C550   H583    1.082   .     S
C550   N549    1.299   1_565 D
C550   C557    1.475   1_565 S
C551   C552    1.482   .     S
C551   C555    1.403   .     S
C551   C558    1.405   1_545 D
C552   C553    1.403   .     S
C553   C554    1.387   .     D
C553   H584    1.084   .     S
C554   C1363   1.520   1_655 S
C555   C556    1.396   .     D
C555   H585    1.083   .     S
C556   C557    1.406   .     S
C556   H586    1.083   .     S
C557   C550    1.475   1_545 S
C557   C559    1.403   1_545 D
C558   C559    1.397   .     S
C558   H587    1.082   .     S
C558   C551    1.405   1_565 D
C559   H588    1.084   .     S
C559   C557    1.403   1_565 D
C560   C561    1.395   .     S
C560   H589    1.083   .     S
C560   C980    1.412   .     D
C561   C562    1.403   .     D
C561   H590    1.083   .     S
C562   C978    1.480   .     S
C562   C563    1.401   1_556 S
C563   C564    1.395   .     D
C563   H591    1.083   .     S
C563   C562    1.401   1_554 S
C564   H592    1.081   .     S
C564   C980    1.414   1_554 S
H575   C533    1.083   1_545 S
C593   C594    1.395   .     D
C593   C628    1.417   .     S
C593   C1354   1.532   .     S
C594   C595    1.410   .     S
C594   H641    1.083   .     S
C595   C597    1.475   .     S
C595   C626    1.425   .     D
C596   C597    1.401   .     D
C596   C601    1.397   .     S
C596   H642    1.084   .     S
C597   C598    1.402   .     S
C598   C599    1.396   .     D
C598   H643    1.083   .     S
C599   C600    1.402   .     S
C599   H644    1.083   .     S
C600   C601    1.407   .     D
C600   C602    1.473   .     S
C601   H645    1.083   .     S
C602   N603    1.299   .     D
C602   H646    1.082   .     S
N603   C605    1.436   .     S
C604   C609    1.398   .     S
C604   H647    1.083   .     S
C604   C605    1.399   1_556 D
C605   C606    1.408   .     S
C605   C604    1.399   1_554 D
C606   C607    1.396   .     D
C606   H648    1.080   .     S
C607   C608    1.404   .     S
C607   H649    1.083   .     S
C608   C1080   1.480   .     S
C608   C609    1.407   1_554 D
C609   F639    1.357   .     S
C609   C608    1.407   1_556 D
C610   C1078   1.412   .     D
C610   C1336   1.546   .     S
C610   C1082   1.414   1_554 S
C611   C612    1.413   .     D
C611   C616    1.398   .     S
C611   H650    1.080   .     S
C612   C613    1.412   .     S
C612   C1339   1.545   .     S
C613   C614    1.394   .     D
C613   H651    1.083   .     S
C614   C615    1.402   .     S
C614   H652    1.083   .     S
C615   C616    1.403   .     D
C615   C618    1.482   .     S
C616   H653    1.083   .     S
C617   C618    1.407   .     D
C617   C622    1.396   .     S
C618   C619    1.405   .     S
C619   C620    1.398   .     D
C619   H654    1.084   .     S
C620   C621    1.407   .     S
C620   H655    1.080   .     S
C621   C622    1.399   .     D
C621   N623    1.436   .     S
C622   H656    1.084   .     S
N623   C624    1.299   .     D
C624   C631    1.475   .     S
C624   H657    1.082   .     S
C625   C626    1.482   .     S
C625   C629    1.403   .     S
C625   C632    1.405   .     D
C626   C627    1.403   .     S
C627   C628    1.387   .     D
C627   H658    1.084   .     S
C628   C1355   1.520   .     S
C629   C630    1.396   .     D
C629   H659    1.083   .     S
C630   C631    1.406   .     S
C630   H660    1.083   .     S
C631   C633    1.403   .     D
C632   C633    1.397   .     S
C632   H661    1.082   .     S
C633   H662    1.084   .     S
C634   C635    1.395   .     S
C634   H663    1.083   .     S
C634   C1054   1.412   .     D
C635   C636    1.403   .     D
C635   H664    1.083   .     S
C636   C637    1.401   .     S
C636   C1052   1.480   .     S
C637   C638    1.395   .     D
C637   H665    1.083   .     S
C638   H666    1.081   .     S
C638   C1054   1.414   .     S
C667   C668    1.395   .     D
C667   C702    1.417   .     S
C667   C1350   1.532   .     S
C668   C669    1.410   .     S
C668   H715    1.083   .     S
C669   C671    1.475   .     S
C669   C700    1.425   .     D
C670   C671    1.401   .     D
C670   C675    1.397   .     S
C670   H716    1.084   .     S
C671   C672    1.402   .     S
C672   C673    1.396   .     D
C672   H717    1.083   .     S
C673   C674    1.402   .     S
C673   H718    1.083   .     S
C674   C675    1.407   .     D
C674   C676    1.473   .     S
C675   H719    1.083   .     S
C676   N677    1.299   .     D
C676   H720    1.082   .     S
N677   C679    1.436   .     S
C678   C679    1.399   .     D
C678   C683    1.398   .     S
C678   H721    1.083   .     S
C679   C680    1.408   .     S
C680   C681    1.396   .     D
C680   H722    1.080   .     S
C681   C682    1.404   .     S
C681   H723    1.083   .     S
C682   C683    1.407   .     D
C683   F713    1.357   .     S
C684   C1333   1.546   .     S
C685   C686    1.413   .     S
C685   C690    1.398   .     D
C685   H724    1.080   .     S
C686   C687    1.412   .     D
C686   C1339   1.546   .     S
C687   C688    1.394   .     S
C687   H725    1.083   .     S
C688   C689    1.402   .     D
C688   H726    1.083   .     S
C689   C690    1.403   .     S
C689   C692    1.482   .     S
C690   H727    1.083   .     S
C691   C692    1.407   .     S
C691   C696    1.396   .     D
C691   F1084   1.357   .     S
C692   C693    1.405   .     D
C693   C694    1.398   .     S
C693   H728    1.084   .     S
C694   C695    1.407   .     D
C694   H729    1.080   .     S
C695   C696    1.399   .     S
C695   N697    1.436   .     S
C696   H730    1.084   .     S
N697   C698    1.299   .     D
C698   C705    1.475   .     S
C698   H731    1.082   .     S
C699   C700    1.482   .     S
C699   C703    1.403   .     S
C699   C706    1.405   .     D
C700   C701    1.403   .     S
C701   C702    1.387   .     D
C701   H732    1.084   .     S
C702   C1351   1.520   .     S
C703   C704    1.396   .     D
C703   H733    1.083   .     S
C704   C705    1.406   .     S
C704   H734    1.083   .     S
C705   C707    1.403   .     D
C706   C707    1.397   .     S
C706   H735    1.082   .     S
C707   H736    1.084   .     S
C708   C709    1.395   .     D
C708   H737    1.083   .     S
C709   C710    1.403   .     S
C709   H738    1.083   .     S
C710   C711    1.401   .     D
C711   C712    1.395   .     S
C711   H739    1.083   .     S
C712   H740    1.081   .     S
F714   C1209   1.357   .     S
C741   C742    1.395   .     D
C741   C776    1.417   .     S
C741   C1342   1.531   .     S
C742   C743    1.410   .     S
C742   H789    1.083   .     S
C743   C745    1.475   .     S
C743   C774    1.425   .     D
C744   C745    1.401   .     D
C744   C749    1.397   .     S
C744   H790    1.084   .     S
C745   C746    1.402   .     S
C746   C747    1.396   .     D
C746   H791    1.083   .     S
C747   C748    1.402   .     S
C747   H792    1.083   .     S
C748   C749    1.407   .     D
C748   C750    1.473   .     S
C749   H793    1.083   .     S
C750   N751    1.299   .     D
C750   H794    1.082   .     S
N751   C753    1.436   .     S
C752   C757    1.398   .     D
C752   H795    1.083   .     S
C752   C753    1.399   1_554 S
C753   C754    1.408   .     D
C753   C752    1.399   1_556 S
C754   C755    1.396   .     S
C754   H796    1.080   .     S
C755   C756    1.404   .     D
C755   H797    1.083   .     S
C756   C757    1.407   1_556 S
C757   F787    1.357   .     S
C757   C756    1.407   1_554 S
C758   C120    1.414   1_556 S
C758   C1334   1.546   1_556 S
C759   C760    1.413   .     S
C759   C764    1.398   .     D
C759   H798    1.080   .     S
C760   C761    1.412   .     D
C760   C1337   1.546   .     S
C761   C762    1.394   .     S
C761   H799    1.083   .     S
C762   C763    1.402   .     D
C762   H800    1.083   .     S
C763   C764    1.403   .     S
C763   C766    1.482   .     S
C764   H801    1.083   .     S
C765   C766    1.407   .     S
C765   C770    1.396   .     D
C765   F936    1.357   .     S
C766   C767    1.405   .     D
C767   C768    1.398   .     S
C767   H802    1.084   .     S
C768   C769    1.407   .     D
C768   H803    1.080   .     S
C769   C770    1.399   .     S
C769   N771    1.436   .     S
C770   H804    1.084   .     S
N771   C772    1.299   .     D
C772   C779    1.475   .     S
C772   H805    1.082   .     S
C773   C774    1.482   .     S
C773   C777    1.403   .     S
C773   C780    1.405   .     D
C774   C775    1.403   .     S
C775   C776    1.387   .     D
C775   H806    1.084   .     S
C776   C1343   1.519   .     S
C777   C778    1.396   .     D
C777   H807    1.083   .     S
C778   C779    1.406   .     S
C778   H808    1.083   .     S
C779   C781    1.403   .     D
C780   C781    1.397   .     S
C780   H809    1.082   .     S
C781   H810    1.084   .     S
C782   C783    1.395   .     D
C782   H811    1.083   .     S
C783   C784    1.403   .     S
C783   H812    1.083   .     S
C784   C785    1.401   .     D
C785   C786    1.395   .     S
C785   H813    1.083   .     S
C786   H814    1.081   .     S
F788   C1283   1.358   .     S
C815   C816    1.395   .     S
C815   C850    1.417   .     D
C815   C1346   1.532   1_665 S
C816   C817    1.410   .     D
C816   H863    1.083   .     S
C817   C819    1.475   .     S
C817   C848    1.425   .     S
C818   C823    1.397   .     D
C818   H864    1.084   .     S
C818   C819    1.401   1_545 S
C819   C820    1.402   .     D
C819   C818    1.401   1_565 S
C820   C821    1.396   .     S
C820   H865    1.083   .     S
C821   C822    1.402   .     D
C821   H866    1.083   .     S
C822   C824    1.473   .     S
C822   C823    1.407   1_565 S
C823   H867    1.083   .     S
C823   C822    1.407   1_545 S
C824   H868    1.082   .     S
C824   N825    1.299   1_565 D
N825   C827    1.436   .     S
N825   C824    1.299   1_545 D
C826   C827    1.399   .     D
C826   C831    1.398   .     S
C826   H869    1.083   .     S
C827   C828    1.408   1_545 S
C828   H870    1.080   .     S
C828   C827    1.408   1_565 S
C828   C829    1.396   1_565 D
C829   C830    1.404   .     S
C829   C828    1.396   1_545 D
C829   H871    1.083   1_545 S
C830   C831    1.407   .     D
C831   F861    1.357   .     S
C832   C1341   1.546   .     S
C833   C838    1.398   .     D
C833   H872    1.080   .     S
C833   C834    1.413   1_545 S
C834   C835    1.412   .     D
C834   C833    1.413   1_565 S
C834   C1338   1.546   1_565 S
C835   C836    1.394   .     S
C835   H873    1.083   .     S
C836   C837    1.402   .     D
C836   H874    1.083   .     S
C837   C840    1.482   .     S
C837   C838    1.403   1_565 S
C838   H875    1.083   .     S
C838   C837    1.403   1_545 S
C839   C840    1.407   .     D
C839   C844    1.396   .     S
C839   F1010   1.358   .     S
C840   C841    1.405   1_565 S
C841   C842    1.398   .     D
C841   H876    1.084   .     S
C841   C840    1.405   1_545 S
C842   H877    1.080   .     S
C842   C843    1.407   1_545 S
C843   C844    1.399   .     D
C843   N845    1.436   .     S
C843   C842    1.407   1_565 S
C844   H878    1.084   .     S
N845   C846    1.299   1_565 D
C846   H879    1.082   .     S
C846   N845    1.299   1_545 D
C846   C853    1.475   1_545 S
C847   C848    1.482   .     S
C847   C851    1.403   .     S
C847   C854    1.405   1_565 D
C848   C849    1.403   .     D
C849   C850    1.387   .     S
C849   H880    1.084   .     S
C850   C1347   1.520   1_665 S
C851   C852    1.396   .     D
C851   H881    1.083   .     S
C852   C853    1.406   .     S
C852   H882    1.083   .     S
C853   C846    1.475   1_565 S
C853   C855    1.403   1_565 D
C854   C855    1.397   .     S
C854   H883    1.082   .     S
C854   C847    1.405   1_545 D
C855   H884    1.084   .     S
C855   C853    1.403   1_545 D
C856   C857    1.395   .     S
C856   H885    1.083   .     S
C857   C858    1.403   .     D
C857   H886    1.083   .     S
C858   C859    1.401   1_554 S
C859   C860    1.395   .     D
C859   H887    1.083   .     S
C859   C858    1.401   1_556 S
C860   H888    1.081   .     S
C860   C166    1.414   1_556 S
F862   C1135   1.357   .     S
H871   C829    1.083   1_565 S
C889   C890    1.395   .     D
C889   C924    1.417   .     S
C889   C1350   1.532   .     S
C890   C891    1.410   .     S
C890   H937    1.083   .     S
C891   C893    1.475   .     S
C891   C922    1.425   .     D
C892   C893    1.401   .     D
C892   C897    1.397   .     S
C892   H938    1.084   .     S
C893   C894    1.402   .     S
C894   C895    1.396   .     D
C894   H939    1.083   .     S
C895   C896    1.402   .     S
C895   H940    1.083   .     S
C896   C897    1.407   .     D
C896   C898    1.473   .     S
C897   H941    1.083   .     S
C898   N899    1.299   .     D
C898   H942    1.082   .     S
N899   C901    1.436   .     S
C900   C901    1.399   .     D
C900   C905    1.398   .     S
C900   H943    1.083   .     S
C901   C902    1.408   .     S
C902   C903    1.396   .     D
C902   H944    1.080   .     S
C903   C904    1.404   .     S
C903   H945    1.083   .     S
C904   C905    1.407   .     D
C905   F935    1.357   .     S
C906   C1337   1.546   .     S
C907   C908    1.413   .     S
C907   C912    1.398   .     D
C907   H946    1.080   .     S
C908   C909    1.412   .     D
C908   C1340   1.546   .     S
C909   C910    1.394   .     S
C909   H947    1.083   .     S
C910   C911    1.402   .     D
C910   H948    1.083   .     S
C911   C912    1.403   .     S
C911   C914    1.482   .     S
C912   H949    1.083   .     S
C913   C914    1.407   .     S
C913   C918    1.396   .     D
C913   F1306   1.358   .     S
C914   C915    1.405   .     D
C915   C916    1.398   .     S
C915   H950    1.084   .     S
C916   C917    1.407   .     D
C916   H951    1.080   .     S
C917   C918    1.399   .     S
C917   N919    1.436   .     S
C918   H952    1.084   .     S
N919   C920    1.299   .     D
C920   C927    1.475   .     S
C920   H953    1.082   .     S
C921   C922    1.482   .     S
C921   C925    1.403   .     S
C921   C928    1.405   .     D
C922   C923    1.403   .     S
C923   C924    1.387   .     D
C923   H954    1.084   .     S
C924   C1351   1.520   .     S
C925   C926    1.396   .     D
C925   H955    1.083   .     S
C926   C927    1.406   .     S
C926   H956    1.083   .     S
C927   C929    1.403   .     D
C928   C929    1.397   .     S
C928   H957    1.082   .     S
C929   H958    1.084   .     S
C930   H959    1.083   .     S
C930   C931    1.395   1_655 D
C931   C932    1.403   .     S
C931   H960    1.083   .     S
C931   C930    1.395   1_455 D
C932   C933    1.401   .     D
C933   H961    1.083   .     S
C933   C934    1.395   1_455 S
C934   H962    1.081   .     S
C934   C933    1.395   1_655 S
C963   C964    1.395   .     D
C963   C998    1.417   .     S
C963   C1342   1.532   .     S
C964   C965    1.410   .     S
C964   H1011   1.083   .     S
C965   C967    1.475   .     S
C965   C996    1.425   .     D
C966   C967    1.401   .     D
C966   C971    1.397   .     S
C966   H1012   1.084   .     S
C967   C968    1.402   .     S
C968   C969    1.396   .     D
C968   H1013   1.083   .     S
C969   C970    1.402   .     S
C969   H1014   1.083   .     S
C970   C971    1.407   .     D
C970   C972    1.473   .     S
C971   H1015   1.083   .     S
C972   N973    1.299   .     D
C972   H1016   1.082   .     S
N973   C975    1.436   .     S
C974   C979    1.398   .     D
C974   H1017   1.083   .     S
C974   C975    1.399   1_554 S
C975   C976    1.408   .     D
C975   C974    1.399   1_556 S
C976   C977    1.396   .     S
C976   H1018   1.080   .     S
C977   C978    1.404   .     D
C977   H1019   1.083   .     S
C978   C979    1.407   1_556 S
C979   F1009   1.357   .     S
C979   C978    1.407   1_554 S
C980   C564    1.414   1_556 S
C980   C1338   1.546   1_566 S
C981   C982    1.413   .     S
C981   C986    1.398   .     D
C981   H1020   1.080   .     S
C982   C983    1.412   .     D
C982   C1335   1.545   .     S
C983   C984    1.394   .     S
C983   H1021   1.083   .     S
C984   C985    1.402   .     D
C984   H1022   1.083   .     S
C985   C986    1.403   .     S
C985   C988    1.482   .     S
C986   H1023   1.083   .     S
C987   C988    1.407   .     S
C987   C992    1.396   .     D
C987   F1158   1.358   .     S
C988   C989    1.405   .     D
C989   C990    1.398   .     S
C989   H1024   1.084   .     S
C990   C991    1.407   .     D
C990   H1025   1.080   .     S
C991   C992    1.399   .     S
C991   N993    1.436   .     S
C992   H1026   1.084   .     S
N993   C994    1.299   .     D
C994   C1001   1.475   .     S
C994   H1027   1.082   .     S
C995   C996    1.482   .     S
C995   C999    1.403   .     S
C995   C1002   1.405   .     D
C996   C997    1.403   .     S
C997   C998    1.387   .     D
C997   H1028   1.084   .     S
C998   C1343   1.520   .     S
C999   C1000   1.396   .     D
C999   H1029   1.083   .     S
C1000  C1001   1.406   .     S
C1000  H1030   1.083   .     S
C1001  C1003   1.403   .     D
C1002  C1003   1.397   .     S
C1002  H1031   1.082   .     S
C1003  H1032   1.084   .     S
C1004  C1005   1.395   .     D
C1004  H1033   1.083   .     S
C1005  C1006   1.403   .     S
C1005  H1034   1.083   .     S
C1006  C1007   1.401   .     D
C1007  C1008   1.395   .     S
C1007  H1035   1.083   .     S
C1008  H1036   1.081   .     S
C1037  C1038   1.395   .     D
C1037  C1072   1.417   .     S
C1037  C1346   1.532   .     S
C1038  C1039   1.410   .     S
C1038  H1085   1.083   .     S
C1039  C1041   1.475   .     S
C1039  C1070   1.425   .     D
C1040  C1041   1.401   .     D
C1040  C1045   1.397   .     S
C1040  H1086   1.084   .     S
C1041  C1042   1.402   .     S
C1042  C1043   1.396   .     D
C1042  H1087   1.083   .     S
C1043  C1044   1.402   .     S
C1043  H1088   1.083   .     S
C1044  C1045   1.407   .     D
C1044  C1046   1.473   .     S
C1045  H1089   1.083   .     S
C1046  N1047   1.299   .     D
C1046  H1090   1.082   .     S
N1047  C1049   1.436   .     S
C1048  C1049   1.399   .     D
C1048  C1053   1.398   .     S
C1048  H1091   1.083   .     S
C1049  C1050   1.408   .     S
C1050  C1051   1.396   .     D
C1050  H1092   1.080   .     S
C1051  C1052   1.404   .     S
C1051  H1093   1.083   .     S
C1052  C1053   1.407   .     D
C1053  F1083   1.357   .     S
C1054  C1339   1.546   .     S
C1055  C1056   1.413   .     S
C1055  C1060   1.398   .     D
C1055  H1094   1.080   .     S
C1056  C1057   1.412   .     D
C1056  C1336   1.546   .     S
C1057  C1058   1.394   .     S
C1057  H1095   1.083   .     S
C1058  C1059   1.402   .     D
C1058  H1096   1.083   .     S
C1059  C1060   1.403   .     S
C1059  C1062   1.482   .     S
C1060  H1097   1.083   .     S
C1061  C1062   1.407   .     S
C1061  C1066   1.396   .     D
C1061  F1232   1.358   .     S
C1062  C1063   1.405   .     D
C1063  C1064   1.398   .     S
C1063  H1098   1.084   .     S
C1064  C1065   1.407   .     D
C1064  H1099   1.080   .     S
C1065  C1066   1.399   .     S
C1065  N1067   1.436   .     S
C1066  H1100   1.084   .     S
N1067  C1068   1.299   .     D
C1068  C1075   1.475   .     S
C1068  H1101   1.082   .     S
C1069  C1070   1.482   .     S
C1069  C1073   1.403   .     S
C1069  C1076   1.405   .     D
C1070  C1071   1.403   .     S
C1071  C1072   1.387   .     D
C1071  H1102   1.084   .     S
C1072  C1347   1.520   .     S
C1073  C1074   1.396   .     D
C1073  H1103   1.083   .     S
C1074  C1075   1.406   .     S
C1074  H1104   1.083   .     S
C1075  C1077   1.403   .     D
C1076  C1077   1.397   .     S
C1076  H1105   1.082   .     S
C1077  H1106   1.084   .     S
C1078  C1079   1.395   .     S
C1078  H1107   1.083   .     S
C1079  C1080   1.403   .     D
C1079  H1108   1.083   .     S
C1080  C1081   1.401   1_554 S
C1081  C1082   1.395   .     D
C1081  H1109   1.083   .     S
C1081  C1080   1.401   1_556 S
C1082  H1110   1.081   .     S
C1082  C610    1.414   1_556 S
C1111  C1112   1.395   .     D
C1111  C1146   1.417   .     S
C1111  C1350   1.532   .     S
C1112  C1113   1.410   .     S
C1112  H1159   1.083   .     S
C1113  C1115   1.475   .     S
C1113  C1144   1.425   .     D
C1114  C1115   1.401   .     D
C1114  C1119   1.397   .     S
C1114  H1160   1.084   .     S
C1115  C1116   1.402   .     S
C1116  C1117   1.396   .     D
C1116  H1161   1.083   .     S
C1117  C1118   1.402   .     S
C1117  H1162   1.083   .     S
C1118  C1119   1.407   .     D
C1118  C1120   1.473   .     S
C1119  H1163   1.083   .     S
C1120  N1121   1.299   .     D
C1120  H1164   1.082   .     S
N1121  C1123   1.436   .     S
C1122  C1123   1.399   .     D
C1122  C1127   1.398   .     S
C1122  H1165   1.083   .     S
C1123  C1124   1.408   .     S
C1124  C1125   1.396   .     D
C1124  H1166   1.080   .     S
C1125  C1126   1.404   .     S
C1125  H1167   1.083   .     S
C1126  C1127   1.407   .     D
C1127  F1157   1.357   .     S
C1128  C1335   1.546   .     S
C1129  C1130   1.413   .     S
C1129  C1134   1.398   .     D
C1129  H1168   1.080   .     S
C1130  C1131   1.412   .     D
C1130  C1341   1.546   .     S
C1131  C1132   1.394   .     S
C1131  H1169   1.083   .     S
C1132  C1133   1.402   .     D
C1132  H1170   1.083   .     S
C1133  C1134   1.403   .     S
C1133  C1136   1.482   .     S
C1134  H1171   1.083   .     S
C1135  C1136   1.407   .     S
C1135  C1140   1.396   .     D
C1136  C1137   1.405   .     D
C1137  C1138   1.398   .     S
C1137  H1172   1.084   .     S
C1138  C1139   1.407   .     D
C1138  H1173   1.080   .     S
C1139  C1140   1.399   .     S
C1139  N1141   1.436   .     S
C1140  H1174   1.084   .     S
N1141  C1142   1.299   .     D
C1142  C1149   1.475   .     S
C1142  H1175   1.082   .     S
C1143  C1144   1.482   .     S
C1143  C1147   1.403   .     S
C1143  C1150   1.405   .     D
C1144  C1145   1.403   .     S
C1145  C1146   1.387   .     D
C1145  H1176   1.084   .     S
C1146  C1351   1.519   .     S
C1147  C1148   1.396   .     D
C1147  H1177   1.083   .     S
C1148  C1149   1.406   .     S
C1148  H1178   1.083   .     S
C1149  C1151   1.403   .     D
C1150  C1151   1.397   .     S
C1150  H1179   1.082   .     S
C1151  H1180   1.084   .     S
C1152  H1181   1.083   .     S
C1152  C1153   1.395   1_545 D
C1153  C1154   1.403   .     S
C1153  H1182   1.083   .     S
C1153  C1152   1.395   1_565 D
C1154  C1155   1.401   .     D
C1155  H1183   1.083   .     S
C1155  C1156   1.395   1_565 S
C1156  H1184   1.081   .     S
C1156  C1155   1.395   1_545 S
C1185  C1186   1.395   .     D
C1185  C1220   1.417   .     S
C1185  C1342   1.532   .     S
C1186  C1187   1.410   .     S
C1186  H1233   1.083   .     S
C1187  C1189   1.475   .     S
C1187  C1218   1.425   .     D
C1188  C1189   1.401   .     D
C1188  C1193   1.397   .     S
C1188  H1234   1.084   .     S
C1189  C1190   1.402   .     S
C1190  C1191   1.396   .     D
C1190  H1235   1.083   .     S
C1191  C1192   1.402   .     S
C1191  H1236   1.083   .     S
C1192  C1193   1.407   .     D
C1192  C1194   1.473   .     S
C1193  H1237   1.083   .     S
C1194  N1195   1.299   .     D
C1194  H1238   1.082   .     S
N1195  C1197   1.436   .     S
C1196  C1201   1.398   .     D
C1196  H1239   1.083   .     S
C1196  C1197   1.399   1_554 S
C1197  C1198   1.408   .     D
C1197  C1196   1.399   1_556 S
C1198  C1199   1.396   .     S
C1198  H1240   1.080   .     S
C1199  C1200   1.404   .     D
C1199  H1241   1.083   .     S
C1200  C1201   1.407   1_556 S
C1201  F1231   1.357   .     S
C1201  C1200   1.407   1_554 S
C1202  C342    1.414   1_556 S
C1202  C1336   1.546   1_556 S
C1203  C1204   1.413   .     S
C1203  C1208   1.398   .     D
C1203  H1242   1.080   .     S
C1204  C1205   1.412   .     D
C1204  C1333   1.545   .     S
C1205  C1206   1.394   .     S
C1205  H1243   1.083   .     S
C1206  C1207   1.402   .     D
C1206  H1244   1.083   .     S
C1207  C1208   1.403   .     S
C1207  C1210   1.482   .     S
C1208  H1245   1.083   .     S
C1209  C1210   1.407   .     S
C1209  C1214   1.396   .     D
C1210  C1211   1.405   .     D
C1211  C1212   1.398   .     S
C1211  H1246   1.084   .     S
C1212  C1213   1.407   .     D
C1212  H1247   1.080   .     S
C1213  C1214   1.399   .     S
C1213  N1215   1.436   .     S
C1214  H1248   1.084   .     S
N1215  C1216   1.299   .     D
C1216  C1223   1.475   .     S
C1216  H1249   1.082   .     S
C1217  C1218   1.482   .     S
C1217  C1221   1.403   .     S
C1217  C1224   1.405   .     D
C1218  C1219   1.403   .     S
C1219  C1220   1.387   .     D
C1219  H1250   1.084   .     S
C1220  C1343   1.520   .     S
C1221  C1222   1.396   .     D
C1221  H1251   1.083   .     S
C1222  C1223   1.406   .     S
C1222  H1252   1.083   .     S
C1223  C1225   1.403   .     D
C1224  C1225   1.397   .     S
C1224  H1253   1.082   .     S
C1225  H1254   1.084   .     S
C1226  C1227   1.395   .     D
C1226  H1255   1.083   .     S
C1227  C1228   1.403   .     S
C1227  H1256   1.083   .     S
C1228  C1229   1.401   .     D
C1229  C1230   1.395   .     S
C1229  H1257   1.083   .     S
C1230  H1258   1.081   .     S
C1259  C1260   1.395   .     S
C1259  C1294   1.417   .     D
C1259  C1346   1.531   1_565 S
C1260  C1261   1.410   .     D
C1260  H1307   1.083   .     S
C1261  C1263   1.475   .     S
C1261  C1292   1.425   .     S
C1262  C1267   1.397   .     D
C1262  H1308   1.084   .     S
C1262  C1263   1.401   1_655 S
C1263  C1264   1.402   .     D
C1263  C1262   1.401   1_455 S
C1264  C1265   1.396   .     S
C1264  H1309   1.083   .     S
C1265  C1266   1.402   .     D
C1265  H1310   1.083   .     S
C1266  C1268   1.473   .     S
C1266  C1267   1.407   1_455 S
C1267  H1311   1.083   .     S
C1267  C1266   1.407   1_655 S
C1268  H1312   1.082   .     S
C1268  N1269   1.299   1_455 D
N1269  C1271   1.436   .     S
N1269  C1268   1.299   1_655 D
C1270  C1271   1.399   .     D
C1270  C1275   1.398   .     S
C1270  H1313   1.083   .     S
C1271  C1272   1.408   1_655 S
C1272  H1314   1.080   .     S
C1272  C1271   1.408   1_455 S
C1272  C1273   1.396   1_455 D
C1273  C1274   1.404   .     S
C1273  C1272   1.396   1_655 D
C1273  H1315   1.083   1_655 S
C1274  C1275   1.407   .     D
C1275  F1305   1.357   .     S
C1276  C1340   1.546   .     S
C1277  C1282   1.398   .     D
C1277  H1316   1.080   .     S
C1277  C1278   1.413   1_655 S
C1278  C1279   1.412   .     D
C1278  C1334   1.546   .     S
C1278  C1277   1.413   1_455 S
C1279  C1280   1.394   .     S
C1279  H1317   1.083   .     S
C1280  C1281   1.402   .     D
C1280  H1318   1.083   .     S
C1281  C1284   1.482   .     S
C1281  C1282   1.403   1_455 S
C1282  H1319   1.083   .     S
C1282  C1281   1.403   1_655 S
C1283  C1284   1.407   .     D
C1283  C1288   1.396   .     S
C1284  C1285   1.405   1_455 S
C1285  C1286   1.398   .     D
C1285  H1320   1.084   .     S
C1285  C1284   1.405   1_655 S
C1286  H1321   1.080   .     S
C1286  C1287   1.407   1_655 S
C1287  C1288   1.399   .     D
C1287  N1289   1.436   .     S
C1287  C1286   1.407   1_455 S
C1288  H1322   1.084   .     S
N1289  C1290   1.299   1_455 D
C1290  H1323   1.082   .     S
C1290  N1289   1.299   1_655 D
C1290  C1297   1.475   1_655 S
C1291  C1292   1.482   .     S
C1291  C1295   1.403   .     S
C1291  C1298   1.405   1_455 D
C1292  C1293   1.403   .     D
C1293  C1294   1.387   .     S
C1293  H1324   1.084   .     S
C1294  C1347   1.520   1_565 S
C1295  C1296   1.396   .     D
C1295  H1325   1.083   .     S
C1296  C1297   1.406   .     S
C1296  H1326   1.083   .     S
C1297  C1290   1.475   1_455 S
C1297  C1299   1.403   1_455 D
C1298  C1299   1.397   .     S
C1298  H1327   1.082   .     S
C1298  C1291   1.405   1_655 D
C1299  H1328   1.084   .     S
C1299  C1297   1.403   1_655 D
C1300  C1301   1.395   .     S
C1300  H1329   1.083   .     S
C1301  C1302   1.403   .     D
C1301  H1330   1.083   .     S
C1302  C1303   1.401   1_554 S
C1303  C1304   1.395   .     D
C1303  H1331   1.083   .     S
C1303  C1302   1.401   1_556 S
C1304  H1332   1.081   .     S
C1304  C388    1.414   1_556 S
H1315  C1273   1.083   1_455 S
C1334  C94     1.546   1_454 S
C1334  C388    1.546   1_455 S
C1334  C758    1.546   1_554 S
C1336  C316    1.546   1_554 S
C1336  C1202   1.546   1_554 S
C1338  C538    1.546   1_554 S
C1338  C834    1.546   1_545 S
C1338  C980    1.546   1_544 S
C1342  H1344   1.111   .     S
C1343  H1345   1.112   .     S
C1346  H1348   1.111   .     S
C1346  C815    1.532   1_445 S
C1346  C1259   1.531   1_545 S
C1347  H1349   1.112   .     S
C1347  C850    1.520   1_445 S
C1347  C1294   1.520   1_545 S
C1350  H1352   1.111   .     S
C1351  H1353   1.112   .     S
C1354  H1356   1.111   .     S
C1355  H1357   1.112   .     S
C1358  H1360   1.111   .     S
C1359  H1361   1.112   .     S
C1362  H1364   1.111   .     S
C1362  C75     1.532   1_445 S
C1362  C519    1.531   1_455 S
C1363  H1365   1.112   .     S
C1363  C110    1.520   1_445 S
C1363  C554    1.520   1_455 S
