data_71
_audit_creation_date              2023-09-08
_audit_creation_method            'Materials Studio'
_symmetry_space_group_name_H-M    'P1'
_symmetry_Int_Tables_number       1
_symmetry_cell_setting            triclinic
loop_
_symmetry_equiv_pos_as_xyz
  x,y,z
_cell_length_a                    37.4130
_cell_length_b                    37.1130
_cell_length_c                    8.2040
_cell_angle_alpha                 90.0000
_cell_angle_beta                  89.1130
_cell_angle_gamma                 90.0000
loop_
_atom_site_label
_atom_site_type_symbol
_atom_site_fract_x
_atom_site_fract_y
_atom_site_fract_z
_atom_site_U_iso_or_equiv
_atom_site_adp_type
_atom_site_occupancy
C1     C     0.26630   0.75791   0.48750   0.00000  Uiso   1.00
C2     C     0.73370   0.25791   0.51250   0.00000  Uiso   1.00
C3     C     0.23340   0.73299   0.48745   0.00000  Uiso   1.00
C4     C     0.76660   0.23299   0.51255   0.00000  Uiso   1.00
C5     C     0.24930   0.74581   0.74623   0.00000  Uiso   1.00
C6     C     0.75070   0.24581   0.25377   0.00000  Uiso   1.00
C7     C     0.22600   0.77015   0.85265   0.00000  Uiso   1.00
C8     C     0.77400   0.27015   0.14735   0.00000  Uiso   1.00
C9     C     0.23370   0.81875   0.44032   0.00000  Uiso   1.00
C10    C     0.76630   0.31875   0.55968   0.00000  Uiso   1.00
C11    C     0.23640   0.83802   0.58793   0.00000  Uiso   1.00
C12    C     0.76360   0.33802   0.41207   0.00000  Uiso   1.00
C13    C     0.21020   0.86261   0.63600   0.00000  Uiso   1.00
C14    C     0.78980   0.36261   0.36400   0.00000  Uiso   1.00
C15    C     0.18040   0.86885   0.53816   0.00000  Uiso   1.00
C16    C     0.81960   0.36885   0.46184   0.00000  Uiso   1.00
C17    C     0.17720   0.84987   0.39139   0.00000  Uiso   1.00
C18    C     0.82280   0.34987   0.60861   0.00000  Uiso   1.00
C19    C     0.20350   0.82547   0.34239   0.00000  Uiso   1.00
C20    C     0.79650   0.32547   0.65761   0.00000  Uiso   1.00
C21    C     0.26460   0.79395   0.38354   0.00000  Uiso   1.00
C22    C     0.73540   0.29395   0.61646   0.00000  Uiso   1.00
C23    C     0.15330   0.89551   0.59042   0.00000  Uiso   1.00
C24    C     0.84670   0.39551   0.40958   0.00000  Uiso   1.00
C25    C     0.09530   0.92343   0.56138   0.00000  Uiso   1.00
C26    C     0.90470   0.42343   0.43862   0.00000  Uiso   1.00
N27    N     0.12310   0.89874   0.51491   0.00000  Uiso   1.00
N28    N     0.87690   0.39874   0.48509   0.00000  Uiso   1.00
C29    C     0.29960   0.81598   0.39236   0.00000  Uiso   1.00
C30    C     0.70040   0.31598   0.60764   0.00000  Uiso   1.00
C31    C     0.33040   0.80448   0.47656   0.00000  Uiso   1.00
C32    C     0.66960   0.30448   0.52344   0.00000  Uiso   1.00
C33    C     0.36100   0.82579   0.48112   0.00000  Uiso   1.00
C34    C     0.63900   0.32579   0.51888   0.00000  Uiso   1.00
C35    C     0.36230   0.85915   0.40179   0.00000  Uiso   1.00
C36    C     0.63770   0.35915   0.59821   0.00000  Uiso   1.00
C37    C     0.33230   0.87065   0.31523   0.00000  Uiso   1.00
C38    C     0.66770   0.37065   0.68477   0.00000  Uiso   1.00
C39    C     0.30160   0.84927   0.30961   0.00000  Uiso   1.00
C40    C     0.69840   0.34927   0.69039   0.00000  Uiso   1.00
C41    C     0.27240   0.72156   0.85294   0.00000  Uiso   1.00
C42    C     0.72760   0.22156   0.14706   0.00000  Uiso   1.00
C43    C     0.39550   0.88085   0.40779   0.00000  Uiso   1.00
C44    C     0.60450   0.38085   0.59221   0.00000  Uiso   1.00
N45    N     0.39700   0.91287   0.34389   0.00000  Uiso   1.00
N46    N     0.60300   0.41287   0.65611   0.00000  Uiso   1.00
C47    C     0.42770   0.93610   0.33313   0.00000  Uiso   1.00
C48    C     0.57230   0.43610   0.66687   0.00000  Uiso   1.00
C49    C     0.26640   0.67204   0.44706   0.00000  Uiso   1.00
C50    C     0.73360   0.17204   0.55294   0.00000  Uiso   1.00
C51    C     0.29720   0.66521   0.35171   0.00000  Uiso   1.00
C52    C     0.70280   0.16521   0.64829   0.00000  Uiso   1.00
C53    C     0.32310   0.64080   0.40310   0.00000  Uiso   1.00
C54    C     0.67690   0.14080   0.59690   0.00000  Uiso   1.00
C55    C     0.31900   0.62190   0.54973   0.00000  Uiso   1.00
C56    C     0.68100   0.12190   0.45027   0.00000  Uiso   1.00
C57    C     0.28870   0.62839   0.64549   0.00000  Uiso   1.00
C58    C     0.71130   0.12839   0.35451   0.00000  Uiso   1.00
C59    C     0.26280   0.65302   0.59508   0.00000  Uiso   1.00
C60    C     0.73720   0.15302   0.40492   0.00000  Uiso   1.00
C61    C     0.23570   0.69655   0.38661   0.00000  Uiso   1.00
C62    C     0.76430   0.19655   0.61339   0.00000  Uiso   1.00
C63    C     0.34550   0.59488   0.60339   0.00000  Uiso   1.00
C64    C     0.65450   0.09488   0.39661   0.00000  Uiso   1.00
C65    C     0.40270   0.56535   0.57536   0.00000  Uiso   1.00
C66    C     0.59730   0.06535   0.42464   0.00000  Uiso   1.00
N67    N     0.37580   0.59088   0.52828   0.00000  Uiso   1.00
N68    N     0.62420   0.09088   0.47172   0.00000  Uiso   1.00
C69    C     0.20070   0.67446   0.39503   0.00000  Uiso   1.00
C70    C     0.79930   0.17446   0.60497   0.00000  Uiso   1.00
C71    C     0.19940   0.64074   0.31581   0.00000  Uiso   1.00
C72    C     0.80060   0.14074   0.68419   0.00000  Uiso   1.00
C73    C     0.16880   0.61926   0.32146   0.00000  Uiso   1.00
C74    C     0.83120   0.11926   0.67854   0.00000  Uiso   1.00
C75    C     0.13810   0.63111   0.40398   0.00000  Uiso   1.00
C76    C     0.86190   0.13111   0.59602   0.00000  Uiso   1.00
C77    C     0.13880   0.66491   0.47949   0.00000  Uiso   1.00
C78    C     0.86120   0.16491   0.52051   0.00000  Uiso   1.00
C79    C     0.16940   0.68631   0.47533   0.00000  Uiso   1.00
C80    C     0.83060   0.18631   0.52467   0.00000  Uiso   1.00
C81    C     0.10510   0.60926   0.40928   0.00000  Uiso   1.00
C82    C     0.89490   0.10926   0.59072   0.00000  Uiso   1.00
N83    N     0.10460   0.57636   0.35518   0.00000  Uiso   1.00
N84    N     0.89540   0.07636   0.64482   0.00000  Uiso   1.00
C85    C     0.07430   0.55271   0.34525   0.00000  Uiso   1.00
C86    C     0.92570   0.05271   0.65475   0.00000  Uiso   1.00
O87    O     0.27200   0.76715   0.65012   0.00000  Uiso   1.00
O88    O     0.72800   0.26715   0.34988   0.00000  Uiso   1.00
O89    O     0.24010   0.70475   0.22065   0.00000  Uiso   1.00
O90    O     0.75990   0.20475   0.77935   0.00000  Uiso   1.00
O91    O     0.22680   0.72440   0.65040   0.00000  Uiso   1.00
O92    O     0.77320   0.22440   0.34960   0.00000  Uiso   1.00
O93    O     0.26100   0.78510   0.21802   0.00000  Uiso   1.00
O94    O     0.73900   0.28510   0.78198   0.00000  Uiso   1.00
C95    C     0.10270   0.95665   0.63631   0.00000  Uiso   1.00
C96    C     0.89730   0.45665   0.36369   0.00000  Uiso   1.00
C97    C     0.07500   0.97796   0.69755   0.00000  Uiso   1.00
C98    C     0.92500   0.47796   0.30245   0.00000  Uiso   1.00
C99    C     0.03950   0.96657   0.68471   0.00000  Uiso   1.00
C100   C     0.96050   0.46657   0.31529   0.00000  Uiso   1.00
C101   C     0.03210   0.93457   0.60056   0.00000  Uiso   1.00
C102   C     0.96790   0.43457   0.39944   0.00000  Uiso   1.00
C103   C     0.05980   0.91348   0.53725   0.00000  Uiso   1.00
C104   C     0.94020   0.41348   0.46275   0.00000  Uiso   1.00
C105   C     0.39390   0.53213   0.64724   0.00000  Uiso   1.00
C106   C     0.60610   0.03213   0.35276   0.00000  Uiso   1.00
C107   C     0.42060   0.50976   0.70843   0.00000  Uiso   1.00
C108   C     0.57940   0.00976   0.29157   0.00000  Uiso   1.00
C109   C     0.45650   0.52006   0.69867   0.00000  Uiso   1.00
C110   C     0.54350   0.02006   0.30133   0.00000  Uiso   1.00
C111   C     0.46530   0.55218   0.61827   0.00000  Uiso   1.00
C112   C     0.53470   0.05218   0.38173   0.00000  Uiso   1.00
C113   C     0.43860   0.57432   0.55454   0.00000  Uiso   1.00
C114   C     0.56140   0.07432   0.44546   0.00000  Uiso   1.00
C115   C     0.03890   0.56510   0.35229   0.00000  Uiso   1.00
C116   C     0.96110   0.06510   0.64771   0.00000  Uiso   1.00
C117   C     0.01050   0.54149   0.32157   0.00000  Uiso   1.00
C118   C     0.98950   0.04149   0.67843   0.00000  Uiso   1.00
C119   C     0.01700   0.50520   0.28416   0.00000  Uiso   1.00
C120   C     0.98300   0.00520   0.71584   0.00000  Uiso   1.00
C121   C     0.08050   0.51627   0.31266   0.00000  Uiso   1.00
C122   C     0.91950   0.01627   0.68734   0.00000  Uiso   1.00
C123   C     0.46270   0.92401   0.35979   0.00000  Uiso   1.00
C124   C     0.53730   0.42401   0.64021   0.00000  Uiso   1.00
C125   C     0.49180   0.94672   0.32790   0.00000  Uiso   1.00
C126   C     0.50820   0.44672   0.67210   0.00000  Uiso   1.00
C127   C     0.48640   0.98191   0.27085   0.00000  Uiso   1.00
C128   C     0.51360   0.48191   0.72915   0.00000  Uiso   1.00
C129   C     0.45140   0.99427   0.25036   0.00000  Uiso   1.00
C130   C     0.54860   0.49427   0.74964   0.00000  Uiso   1.00
C131   C     0.42250   0.97155   0.28058   0.00000  Uiso   1.00
C132   C     0.57750   0.47155   0.71942   0.00000  Uiso   1.00
C133   C     0.51670   0.00226   0.19172   0.00000  Uiso   1.00
C134   C     0.48330   0.50226   0.80828   0.00000  Uiso   1.00
C135   C     0.01160   0.98271   0.79472   0.00000  Uiso   1.00
C136   C     0.98840   0.48271   0.20528   0.00000  Uiso   1.00
C137   C     0.23603   0.21941   0.51480   0.00000  Uiso   1.00
C138   C     0.76397   0.71941   0.48520   0.00000  Uiso   1.00
C139   C     0.26520   0.24842   0.50010   0.00000  Uiso   1.00
C140   C     0.73480   0.74842   0.49990   0.00000  Uiso   1.00
C141   C     0.25352   0.23667   0.76513   0.00000  Uiso   1.00
C142   C     0.74648   0.73667   0.23487   0.00000  Uiso   1.00
C143   C     0.27513   0.21008   0.86666   0.00000  Uiso   1.00
C144   C     0.72487   0.71008   0.13334   0.00000  Uiso   1.00
C145   C     0.17482   0.19265   0.42983   0.00000  Uiso   1.00
C146   C     0.82518   0.69265   0.57017   0.00000  Uiso   1.00
C147   C     0.18205   0.16154   0.52355   0.00000  Uiso   1.00
C148   C     0.81795   0.66154   0.47645   0.00000  Uiso   1.00
C149   C     0.15793   0.13296   0.53058   0.00000  Uiso   1.00
C150   C     0.84207   0.63296   0.46942   0.00000  Uiso   1.00
C151   C     0.12590   0.13421   0.44454   0.00000  Uiso   1.00
C152   C     0.87410   0.63421   0.55546   0.00000  Uiso   1.00
C153   C     0.11829   0.16486   0.35100   0.00000  Uiso   1.00
C154   C     0.88171   0.66486   0.64900   0.00000  Uiso   1.00
C155   C     0.14244   0.19354   0.34349   0.00000  Uiso   1.00
C156   C     0.85756   0.69354   0.65651   0.00000  Uiso   1.00
C157   C     0.20033   0.22527   0.41613   0.00000  Uiso   1.00
C158   C     0.79967   0.72527   0.58387   0.00000  Uiso   1.00
C159   C     0.10199   0.10253   0.44888   0.00000  Uiso   1.00
C160   C     0.89801   0.60253   0.55112   0.00000  Uiso   1.00
C161   C     0.04868   0.07162   0.35406   0.00000  Uiso   1.00
C162   C     0.95132   0.57162   0.64594   0.00000  Uiso   1.00
N163   N     0.07188   0.10226   0.37139   0.00000  Uiso   1.00
N164   N     0.92812   0.60226   0.62861   0.00000  Uiso   1.00
C165   C     0.17989   0.25901   0.47644   0.00000  Uiso   1.00
C166   C     0.82011   0.75901   0.52356   0.00000  Uiso   1.00
C167   C     0.16183   0.25808   0.62753   0.00000  Uiso   1.00
C168   C     0.83817   0.75808   0.37247   0.00000  Uiso   1.00
C169   C     0.14025   0.28662   0.67797   0.00000  Uiso   1.00
C170   C     0.85975   0.78662   0.32203   0.00000  Uiso   1.00
C171   C     0.13599   0.31712   0.57959   0.00000  Uiso   1.00
C172   C     0.86401   0.81712   0.42041   0.00000  Uiso   1.00
C173   C     0.15433   0.31889   0.43068   0.00000  Uiso   1.00
C174   C     0.84567   0.81889   0.56932   0.00000  Uiso   1.00
C175   C     0.17575   0.29019   0.37911   0.00000  Uiso   1.00
C176   C     0.82425   0.79019   0.62089   0.00000  Uiso   1.00
C177   C     0.23493   0.26407   0.87561   0.00000  Uiso   1.00
C178   C     0.76507   0.76407   0.12439   0.00000  Uiso   1.00
C179   C     0.11085   0.34557   0.63160   0.00000  Uiso   1.00
C180   C     0.88915   0.84557   0.36840   0.00000  Uiso   1.00
N181   N     0.10836   0.37623   0.55559   0.00000  Uiso   1.00
N182   N     0.89164   0.87623   0.44441   0.00000  Uiso   1.00
C183   C     0.08281   0.40341   0.59999   0.00000  Uiso   1.00
C184   C     0.91719   0.90341   0.40001   0.00000  Uiso   1.00
C185   C     0.32519   0.27010   0.37042   0.00000  Uiso   1.00
C186   C     0.67481   0.77010   0.62958   0.00000  Uiso   1.00
C187   C     0.35482   0.26479   0.26708   0.00000  Uiso   1.00
C188   C     0.64518   0.76479   0.73292   0.00000  Uiso   1.00
C189   C     0.38133   0.29084   0.25153   0.00000  Uiso   1.00
C190   C     0.61867   0.79084   0.74847   0.00000  Uiso   1.00
C191   C     0.37914   0.32324   0.33808   0.00000  Uiso   1.00
C192   C     0.62086   0.82324   0.66192   0.00000  Uiso   1.00
C193   C     0.34932   0.32949   0.43789   0.00000  Uiso   1.00
C194   C     0.65068   0.82949   0.56211   0.00000  Uiso   1.00
C195   C     0.32256   0.30340   0.45334   0.00000  Uiso   1.00
C196   C     0.67744   0.80340   0.54666   0.00000  Uiso   1.00
C197   C     0.29877   0.23859   0.39110   0.00000  Uiso   1.00
C198   C     0.70123   0.73859   0.60890   0.00000  Uiso   1.00
C199   C     0.40803   0.34999   0.31889   0.00000  Uiso   1.00
C200   C     0.59197   0.84999   0.68111   0.00000  Uiso   1.00
C201   C     0.43393   0.40846   0.37574   0.00000  Uiso   1.00
C202   C     0.56607   0.90846   0.62426   0.00000  Uiso   1.00
N203   N     0.40760   0.38063   0.39565   0.00000  Uiso   1.00
N204   N     0.59240   0.88063   0.60435   0.00000  Uiso   1.00
C205   C     0.32022   0.20670   0.46293   0.00000  Uiso   1.00
C206   C     0.67978   0.70670   0.53707   0.00000  Uiso   1.00
C207   C     0.32285   0.17295   0.38371   0.00000  Uiso   1.00
C208   C     0.67715   0.67295   0.61629   0.00000  Uiso   1.00
C209   C     0.34615   0.14636   0.43984   0.00000  Uiso   1.00
C210   C     0.65385   0.64636   0.56016   0.00000  Uiso   1.00
C211   C     0.36775   0.15274   0.57552   0.00000  Uiso   1.00
C212   C     0.63225   0.65274   0.42448   0.00000  Uiso   1.00
C213   C     0.36479   0.18571   0.65724   0.00000  Uiso   1.00
C214   C     0.63521   0.68571   0.34276   0.00000  Uiso   1.00
C215   C     0.34154   0.21227   0.60175   0.00000  Uiso   1.00
C216   C     0.65846   0.71227   0.39825   0.00000  Uiso   1.00
C217   C     0.39480   0.12649   0.62946   0.00000  Uiso   1.00
C218   C     0.60520   0.62649   0.37054   0.00000  Uiso   1.00
N219   N     0.39840   0.09513   0.56048   0.00000  Uiso   1.00
N220   N     0.60160   0.59513   0.43952   0.00000  Uiso   1.00
C221   C     0.42571   0.06977   0.60356   0.00000  Uiso   1.00
C222   C     0.57429   0.56977   0.39644   0.00000  Uiso   1.00
O223   O     0.22767   0.21713   0.68006   0.00000  Uiso   1.00
O224   O     0.77233   0.71713   0.31994   0.00000  Uiso   1.00
O225   O     0.28730   0.23067   0.23229   0.00000  Uiso   1.00
O226   O     0.71270   0.73067   0.76771   0.00000  Uiso   1.00
O227   O     0.27636   0.25543   0.65891   0.00000  Uiso   1.00
O228   O     0.72364   0.75543   0.34109   0.00000  Uiso   1.00
O229   O     0.20832   0.22814   0.24892   0.00000  Uiso   1.00
O230   O     0.79168   0.72814   0.75108   0.00000  Uiso   1.00
C231   C     0.01366   0.07729   0.30221   0.00000  Uiso   1.00
C232   C     0.98634   0.57729   0.69779   0.00000  Uiso   1.00
C233   C     0.99170   0.04817   0.26231   0.00000  Uiso   1.00
C234   C     0.00830   0.54817   0.73769   0.00000  Uiso   1.00
C235   C     0.00444   0.01273   0.27299   0.00000  Uiso   1.00
C236   C     0.99556   0.51273   0.72701   0.00000  Uiso   1.00
C237   C     0.03916   0.00702   0.32913   0.00000  Uiso   1.00
C238   C     0.96084   0.50702   0.67087   0.00000  Uiso   1.00
C239   C     0.06105   0.03601   0.36987   0.00000  Uiso   1.00
C240   C     0.93895   0.53601   0.63013   0.00000  Uiso   1.00
C241   C     0.46885   0.40117   0.32204   0.00000  Uiso   1.00
C242   C     0.53115   0.90117   0.67796   0.00000  Uiso   1.00
C243   C     0.49179   0.42938   0.28009   0.00000  Uiso   1.00
C244   C     0.50821   0.92938   0.71991   0.00000  Uiso   1.00
C245   C     0.48051   0.46529   0.29325   0.00000  Uiso   1.00
C246   C     0.51949   0.96529   0.70675   0.00000  Uiso   1.00
C247   C     0.44660   0.47244   0.35769   0.00000  Uiso   1.00
C248   C     0.55340   0.97244   0.64231   0.00000  Uiso   1.00
C249   C     0.42374   0.44428   0.40072   0.00000  Uiso   1.00
C250   C     0.57626   0.94428   0.59928   0.00000  Uiso   1.00
C251   C     0.45939   0.08128   0.65571   0.00000  Uiso   1.00
C252   C     0.54061   0.58128   0.34429   0.00000  Uiso   1.00
C253   C     0.48457   0.05635   0.70823   0.00000  Uiso   1.00
C254   C     0.51543   0.55635   0.29177   0.00000  Uiso   1.00
C255   C     0.47694   0.01934   0.70759   0.00000  Uiso   1.00
C256   C     0.52306   0.51934   0.29241   0.00000  Uiso   1.00
C257   C     0.44393   0.00768   0.64869   0.00000  Uiso   1.00
C258   C     0.55607   0.50768   0.35131   0.00000  Uiso   1.00
C259   C     0.41865   0.03276   0.59521   0.00000  Uiso   1.00
C260   C     0.58135   0.53276   0.40479   0.00000  Uiso   1.00
C261   C     0.04852   0.39405   0.65390   0.00000  Uiso   1.00
C262   C     0.95148   0.89405   0.34610   0.00000  Uiso   1.00
C263   C     0.02523   0.42040   0.71146   0.00000  Uiso   1.00
C264   C     0.97477   0.92040   0.28854   0.00000  Uiso   1.00
C265   C     0.03552   0.45674   0.71536   0.00000  Uiso   1.00
C266   C     0.96448   0.95674   0.28464   0.00000  Uiso   1.00
C267   C     0.06907   0.46638   0.65361   0.00000  Uiso   1.00
C268   C     0.93093   0.96638   0.34639   0.00000  Uiso   1.00
C269   C     0.09234   0.43990   0.59384   0.00000  Uiso   1.00
C270   C     0.90766   0.93990   0.40616   0.00000  Uiso   1.00
C271   C     0.01422   0.48285   0.81671   0.00000  Uiso   1.00
C272   C     0.98578   0.98285   0.18329   0.00000  Uiso   1.00
C273   C     0.49950   0.49418   0.19823   0.00000  Uiso   1.00
C274   C     0.50050   0.99418   0.80177   0.00000  Uiso   1.00
C275   C     0.94774   0.99273   0.71696   0.00000  Uiso   1.00
C276   C     0.05226   0.49273   0.28304   0.00000  Uiso   1.00
H277   H     0.28950   0.74194   0.44492   0.00000  Uiso   1.00
H278   H     0.71050   0.24194   0.55508   0.00000  Uiso   1.00
H279   H     0.21050   0.74878   0.44197   0.00000  Uiso   1.00
H280   H     0.78950   0.24878   0.55803   0.00000  Uiso   1.00
H281   H     0.21130   0.75399   0.94475   0.00000  Uiso   1.00
H282   H     0.78870   0.25399   0.05525   0.00000  Uiso   1.00
H283   H     0.20610   0.78424   0.77625   0.00000  Uiso   1.00
H284   H     0.79390   0.28424   0.22375   0.00000  Uiso   1.00
H285   H     0.24250   0.79070   0.91476   0.00000  Uiso   1.00
H286   H     0.75750   0.29070   0.08524   0.00000  Uiso   1.00
H287   H     0.25940   0.83468   0.66517   0.00000  Uiso   1.00
H288   H     0.74060   0.33468   0.33483   0.00000  Uiso   1.00
H289   H     0.21340   0.87701   0.74974   0.00000  Uiso   1.00
H290   H     0.78660   0.37701   0.25026   0.00000  Uiso   1.00
H291   H     0.15460   0.85434   0.31246   0.00000  Uiso   1.00
H292   H     0.84540   0.35434   0.68754   0.00000  Uiso   1.00
H293   H     0.19980   0.81267   0.22569   0.00000  Uiso   1.00
H294   H     0.80020   0.31267   0.77431   0.00000  Uiso   1.00
H295   H     0.15850   0.91126   0.69887   0.00000  Uiso   1.00
H296   H     0.84150   0.41126   0.30113   0.00000  Uiso   1.00
H297   H     0.33160   0.77901   0.53926   0.00000  Uiso   1.00
H298   H     0.66840   0.27901   0.46074   0.00000  Uiso   1.00
H299   H     0.38400   0.81606   0.54711   0.00000  Uiso   1.00
H300   H     0.61600   0.31606   0.45289   0.00000  Uiso   1.00
H301   H     0.33250   0.89607   0.25082   0.00000  Uiso   1.00
H302   H     0.66750   0.39607   0.74918   0.00000  Uiso   1.00
H303   H     0.27900   0.85892   0.24085   0.00000  Uiso   1.00
H304   H     0.72100   0.35892   0.75915   0.00000  Uiso   1.00
H305   H     0.29250   0.70751   0.77683   0.00000  Uiso   1.00
H306   H     0.70750   0.20751   0.22317   0.00000  Uiso   1.00
H307   H     0.25580   0.70099   0.91498   0.00000  Uiso   1.00
H308   H     0.74420   0.20099   0.08502   0.00000  Uiso   1.00
H309   H     0.28690   0.73779   0.94495   0.00000  Uiso   1.00
H310   H     0.71310   0.23779   0.05505   0.00000  Uiso   1.00
H311   H     0.41840   0.86935   0.46701   0.00000  Uiso   1.00
H312   H     0.58160   0.36935   0.53299   0.00000  Uiso   1.00
H313   H     0.30160   0.67786   0.23504   0.00000  Uiso   1.00
H314   H     0.69840   0.17786   0.76496   0.00000  Uiso   1.00
H315   H     0.34610   0.63620   0.32591   0.00000  Uiso   1.00
H316   H     0.65390   0.13620   0.67409   0.00000  Uiso   1.00
H317   H     0.28480   0.61407   0.75915   0.00000  Uiso   1.00
H318   H     0.71520   0.11407   0.24085   0.00000  Uiso   1.00
H319   H     0.23940   0.65652   0.67059   0.00000  Uiso   1.00
H320   H     0.76060   0.15652   0.32941   0.00000  Uiso   1.00
H321   H     0.33960   0.57928   0.71177   0.00000  Uiso   1.00
H322   H     0.66040   0.07928   0.28823   0.00000  Uiso   1.00
H323   H     0.22240   0.63081   0.24994   0.00000  Uiso   1.00
H324   H     0.77760   0.13081   0.75006   0.00000  Uiso   1.00
H325   H     0.16910   0.59349   0.25995   0.00000  Uiso   1.00
H326   H     0.83090   0.09349   0.74005   0.00000  Uiso   1.00
H327   H     0.11540   0.67490   0.54234   0.00000  Uiso   1.00
H328   H     0.88460   0.17490   0.45766   0.00000  Uiso   1.00
H329   H     0.16780   0.71209   0.53521   0.00000  Uiso   1.00
H330   H     0.83220   0.21209   0.46479   0.00000  Uiso   1.00
H331   H     0.08130   0.62123   0.46074   0.00000  Uiso   1.00
H332   H     0.91870   0.12123   0.53926   0.00000  Uiso   1.00
H333   H     0.26250   0.71843   0.20744   0.00000  Uiso   1.00
H334   H     0.73750   0.21843   0.79256   0.00000  Uiso   1.00
H335   H     0.23860   0.77146   0.20470   0.00000  Uiso   1.00
H336   H     0.76140   0.27146   0.79530   0.00000  Uiso   1.00
H337   H     0.12980   0.96565   0.65193   0.00000  Uiso   1.00
H338   H     0.87020   0.46565   0.34807   0.00000  Uiso   1.00
H339   H     0.08150   0.00236   0.76323   0.00000  Uiso   1.00
H340   H     0.91850   0.50236   0.23677   0.00000  Uiso   1.00
H341   H     0.00510   0.92471   0.59438   0.00000  Uiso   1.00
H342   H     0.99490   0.42471   0.40562   0.00000  Uiso   1.00
H343   H     0.05360   0.88814   0.47878   0.00000  Uiso   1.00
H344   H     0.94640   0.38814   0.52122   0.00000  Uiso   1.00
H345   H     0.36650   0.52388   0.66017   0.00000  Uiso   1.00
H346   H     0.63350   0.02388   0.33983   0.00000  Uiso   1.00
H347   H     0.41300   0.48530   0.77132   0.00000  Uiso   1.00
H348   H     0.58700   0.98530   0.22868   0.00000  Uiso   1.00
H349   H     0.49270   0.56128   0.61529   0.00000  Uiso   1.00
H350   H     0.50730   0.06128   0.38471   0.00000  Uiso   1.00
H351   H     0.44590   0.59966   0.49839   0.00000  Uiso   1.00
H352   H     0.55410   0.09966   0.50161   0.00000  Uiso   1.00
H353   H     0.03290   0.59317   0.37297   0.00000  Uiso   1.00
H354   H     0.96710   0.09317   0.62703   0.00000  Uiso   1.00
H355   H     0.98370   0.55201   0.31727   0.00000  Uiso   1.00
H356   H     0.01630   0.05201   0.68273   0.00000  Uiso   1.00
H357   H     0.10750   0.50628   0.30489   0.00000  Uiso   1.00
H358   H     0.89250   0.00628   0.69511   0.00000  Uiso   1.00
H359   H     0.46810   0.89667   0.39669   0.00000  Uiso   1.00
H360   H     0.53190   0.39667   0.60331   0.00000  Uiso   1.00
H361   H     0.51850   0.93611   0.33810   0.00000  Uiso   1.00
H362   H     0.48150   0.43611   0.66190   0.00000  Uiso   1.00
H363   H     0.44650   0.02094   0.20234   0.00000  Uiso   1.00
H364   H     0.55350   0.52094   0.79766   0.00000  Uiso   1.00
H365   H     0.39580   0.98128   0.25781   0.00000  Uiso   1.00
H366   H     0.60420   0.48128   0.74219   0.00000  Uiso   1.00
H367   H     0.50570   0.02401   0.11426   0.00000  Uiso   1.00
H368   H     0.49430   0.52401   0.88574   0.00000  Uiso   1.00
H369   H     0.53070   0.98318   0.10899   0.00000  Uiso   1.00
H370   H     0.46930   0.48318   0.89101   0.00000  Uiso   1.00
H371   H     0.02450   0.99948   0.88965   0.00000  Uiso   1.00
H372   H     0.97550   0.49948   0.11035   0.00000  Uiso   1.00
H373   H     0.99890   0.95977   0.85915   0.00000  Uiso   1.00
H374   H     0.00110   0.45977   0.14085   0.00000  Uiso   1.00
H375   H     0.24778   0.19323   0.47776   0.00000  Uiso   1.00
H376   H     0.75222   0.69323   0.52224   0.00000  Uiso   1.00
H377   H     0.25305   0.27349   0.45194   0.00000  Uiso   1.00
H378   H     0.74695   0.77349   0.54806   0.00000  Uiso   1.00
H379   H     0.28551   0.18817   0.78780   0.00000  Uiso   1.00
H380   H     0.71449   0.68817   0.21220   0.00000  Uiso   1.00
H381   H     0.25798   0.19743   0.96110   0.00000  Uiso   1.00
H382   H     0.74202   0.69743   0.03890   0.00000  Uiso   1.00
H383   H     0.29798   0.22387   0.92472   0.00000  Uiso   1.00
H384   H     0.70202   0.72387   0.07528   0.00000  Uiso   1.00
H385   H     0.20623   0.15837   0.59200   0.00000  Uiso   1.00
H386   H     0.79377   0.65837   0.40800   0.00000  Uiso   1.00
H387   H     0.16457   0.10952   0.60282   0.00000  Uiso   1.00
H388   H     0.83543   0.60952   0.39718   0.00000  Uiso   1.00
H389   H     0.09387   0.16656   0.28208   0.00000  Uiso   1.00
H390   H     0.90613   0.66656   0.71792   0.00000  Uiso   1.00
H391   H     0.13585   0.21669   0.26939   0.00000  Uiso   1.00
H392   H     0.86415   0.71669   0.73061   0.00000  Uiso   1.00
H393   H     0.11061   0.07908   0.51607   0.00000  Uiso   1.00
H394   H     0.88939   0.57908   0.48393   0.00000  Uiso   1.00
H395   H     0.16332   0.23456   0.70491   0.00000  Uiso   1.00
H396   H     0.83668   0.73456   0.29509   0.00000  Uiso   1.00
H397   H     0.12623   0.28450   0.79321   0.00000  Uiso   1.00
H398   H     0.87377   0.78450   0.20679   0.00000  Uiso   1.00
H399   H     0.15130   0.34199   0.35155   0.00000  Uiso   1.00
H400   H     0.84870   0.84199   0.64845   0.00000  Uiso   1.00
H401   H     0.18810   0.29266   0.26063   0.00000  Uiso   1.00
H402   H     0.81190   0.79266   0.73937   0.00000  Uiso   1.00
H403   H     0.21340   0.25085   0.94640   0.00000  Uiso   1.00
H404   H     0.78660   0.75085   0.05360   0.00000  Uiso   1.00
H405   H     0.22281   0.28567   0.80071   0.00000  Uiso   1.00
H406   H     0.77719   0.78567   0.19929   0.00000  Uiso   1.00
H407   H     0.25420   0.27667   0.96042   0.00000  Uiso   1.00
H408   H     0.74580   0.77667   0.03958   0.00000  Uiso   1.00
H409   H     0.09438   0.34040   0.73787   0.00000  Uiso   1.00
H410   H     0.90562   0.84040   0.26213   0.00000  Uiso   1.00
H411   H     0.35777   0.23984   0.20008   0.00000  Uiso   1.00
H412   H     0.64223   0.73984   0.79992   0.00000  Uiso   1.00
H413   H     0.40384   0.28547   0.17235   0.00000  Uiso   1.00
H414   H     0.59616   0.78547   0.82765   0.00000  Uiso   1.00
H415   H     0.34667   0.35452   0.50445   0.00000  Uiso   1.00
H416   H     0.65333   0.85452   0.49555   0.00000  Uiso   1.00
H417   H     0.30034   0.30972   0.53183   0.00000  Uiso   1.00
H418   H     0.69966   0.80972   0.46817   0.00000  Uiso   1.00
H419   H     0.42892   0.34413   0.23163   0.00000  Uiso   1.00
H420   H     0.57108   0.84413   0.76837   0.00000  Uiso   1.00
H421   H     0.30806   0.16686   0.27483   0.00000  Uiso   1.00
H422   H     0.69194   0.66686   0.72517   0.00000  Uiso   1.00
H423   H     0.34799   0.12119   0.37384   0.00000  Uiso   1.00
H424   H     0.65201   0.62119   0.62616   0.00000  Uiso   1.00
H425   H     0.38126   0.19138   0.76204   0.00000  Uiso   1.00
H426   H     0.61874   0.69138   0.23796   0.00000  Uiso   1.00
H427   H     0.34129   0.23788   0.66451   0.00000  Uiso   1.00
H428   H     0.65871   0.73788   0.33549   0.00000  Uiso   1.00
H429   H     0.41192   0.13404   0.72965   0.00000  Uiso   1.00
H430   H     0.58808   0.63404   0.27035   0.00000  Uiso   1.00
H431   H     0.27117   0.20970   0.23622   0.00000  Uiso   1.00
H432   H     0.72883   0.70970   0.76378   0.00000  Uiso   1.00
H433   H     0.22457   0.24874   0.23240   0.00000  Uiso   1.00
H434   H     0.77543   0.74874   0.76760   0.00000  Uiso   1.00
H435   H     0.00381   0.10444   0.28688   0.00000  Uiso   1.00
H436   H     0.99619   0.60444   0.71312   0.00000  Uiso   1.00
H437   H     0.96540   0.05341   0.21434   0.00000  Uiso   1.00
H438   H     0.03460   0.55341   0.78566   0.00000  Uiso   1.00
H439   H     0.05025   0.98010   0.32998   0.00000  Uiso   1.00
H440   H     0.94975   0.48010   0.67002   0.00000  Uiso   1.00
H441   H     0.08823   0.03030   0.40316   0.00000  Uiso   1.00
H442   H     0.91177   0.53030   0.59684   0.00000  Uiso   1.00
H443   H     0.47816   0.37383   0.30727   0.00000  Uiso   1.00
H444   H     0.52184   0.87383   0.69273   0.00000  Uiso   1.00
H445   H     0.51764   0.42313   0.22862   0.00000  Uiso   1.00
H446   H     0.48236   0.92313   0.77138   0.00000  Uiso   1.00
H447   H     0.43684   0.49982   0.36302   0.00000  Uiso   1.00
H448   H     0.56316   0.99982   0.63698   0.00000  Uiso   1.00
H449   H     0.39710   0.45043   0.44283   0.00000  Uiso   1.00
H450   H     0.60290   0.95043   0.55717   0.00000  Uiso   1.00
H451   H     0.46613   0.10958   0.65824   0.00000  Uiso   1.00
H452   H     0.53387   0.60958   0.34176   0.00000  Uiso   1.00
H453   H     0.50965   0.06615   0.75489   0.00000  Uiso   1.00
H454   H     0.49035   0.56615   0.24511   0.00000  Uiso   1.00
H455   H     0.43715   0.97940   0.65115   0.00000  Uiso   1.00
H456   H     0.56285   0.47940   0.34885   0.00000  Uiso   1.00
H457   H     0.39296   0.02342   0.55392   0.00000  Uiso   1.00
H458   H     0.60704   0.52342   0.44608   0.00000  Uiso   1.00
H459   H     0.04002   0.36622   0.65515   0.00000  Uiso   1.00
H460   H     0.95998   0.86622   0.34485   0.00000  Uiso   1.00
H461   H     0.99960   0.41212   0.75966   0.00000  Uiso   1.00
H462   H     0.00040   0.91212   0.24034   0.00000  Uiso   1.00
H463   H     0.07784   0.49411   0.65910   0.00000  Uiso   1.00
H464   H     0.92216   0.99411   0.34090   0.00000  Uiso   1.00
H465   H     0.11852   0.44763   0.55101   0.00000  Uiso   1.00
H466   H     0.88148   0.94763   0.44899   0.00000  Uiso   1.00
H467   H     0.03187   0.49422   0.91200   0.00000  Uiso   1.00
H468   H     0.96813   0.99422   0.08800   0.00000  Uiso   1.00
H469   H     0.99330   0.46754   0.88157   0.00000  Uiso   1.00
H470   H     0.00670   0.96754   0.11843   0.00000  Uiso   1.00
H471   H     0.47856   0.51019   0.13735   0.00000  Uiso   1.00
H472   H     0.52144   0.01019   0.86265   0.00000  Uiso   1.00
H473   H     0.51591   0.48174   0.10035   0.00000  Uiso   1.00
H474   H     0.48409   0.98174   0.89965   0.00000  Uiso   1.00
H475   H     0.94185   0.96511   0.74939   0.00000  Uiso   1.00
H476   H     0.05815   0.46511   0.25061   0.00000  Uiso   1.00
loop_
_geom_bond_atom_site_label_1
_geom_bond_atom_site_label_2
_geom_bond_distance
_geom_bond_site_symmetry_2
_ccdc_geom_bond_type
C1     C3      1.540   .     S
C1     C21     1.588   .     S
C1     O87     1.397   .     S
C1     H277    1.103   .     S
C2     C4      1.540   .     S
C2     C22     1.588   .     S
C2     O88     1.397   .     S
C2     H278    1.103   .     S
C3     C61     1.587   .     S
C3     O91     1.393   .     S
C3     H279    1.108   .     S
C4     C62     1.587   .     S
C4     O92     1.393   .     S
C4     H280    1.108   .     S
C5     C7      1.521   .     S
C5     C41     1.532   .     S
C5     O87     1.396   .     S
C5     O91     1.407   .     S
C6     C8      1.521   .     S
C6     C42     1.532   .     S
C6     O88     1.396   .     S
C6     O92     1.407   .     S
C7     H281    1.105   .     S
C7     H283    1.111   .     S
C7     H285    1.110   .     S
C8     H282    1.105   .     S
C8     H284    1.111   .     S
C8     H286    1.110   .     S
C9     C11     1.411   .     S
C9     C19     1.419   .     D
C9     C21     1.544   .     S
C10    C12     1.411   .     D
C10    C20     1.419   .     S
C10    C22     1.544   .     S
C11    C13     1.392   .     D
C11    H287    1.084   .     S
C12    C14     1.392   .     S
C12    H288    1.084   .     S
C13    C15     1.403   .     S
C13    H289    1.084   .     S
C14    C16     1.403   .     D
C14    H290    1.084   .     S
C15    C17     1.402   .     D
C15    C23     1.476   .     S
C16    C18     1.402   .     S
C16    C24     1.476   .     S
C17    C19     1.392   .     S
C17    H291    1.086   .     S
C18    C20     1.392   .     D
C18    H292    1.086   .     S
C19    H293    1.080   .     S
C20    H294    1.080   .     S
C21    C29     1.546   .     S
C21    O93     1.406   .     S
C22    C30     1.546   .     S
C22    O94     1.406   .     S
C23    N27     1.302   .     D
C23    H295    1.085   .     S
C24    N28     1.302   .     D
C24    H296    1.085   .     S
C25    N27     1.433   .     S
C25    C95     1.407   .     S
C25    C103    1.396   .     D
C26    N28     1.433   .     S
C26    C96     1.407   .     S
C26    C104    1.396   .     D
C29    C31     1.418   .     S
C29    C39     1.411   .     D
C30    C32     1.418   .     D
C30    C40     1.411   .     S
C31    C33     1.392   .     D
C31    H297    1.077   .     S
C32    C34     1.392   .     S
C32    H298    1.077   .     S
C33    C35     1.399   .     S
C33    H299    1.086   .     S
C34    C36     1.399   .     D
C34    H300    1.086   .     S
C35    C37     1.404   .     D
C35    C43     1.482   .     S
C36    C38     1.404   .     S
C36    C44     1.482   .     S
C37    C39     1.397   .     S
C37    H301    1.081   .     S
C38    C40     1.397   .     D
C38    H302    1.081   .     S
C39    H303    1.085   .     S
C40    H304    1.085   .     S
C41    H305    1.101   .     S
C41    H307    1.104   .     S
C41    H309    1.113   .     S
C42    H306    1.101   .     S
C42    H308    1.104   .     S
C42    H310    1.113   .     S
C43    N45     1.300   .     D
C43    H311    1.079   .     S
C44    N46     1.300   .     D
C44    H312    1.079   .     S
N45    C47     1.438   .     S
N46    C48     1.438   .     S
C47    C123    1.405   .     S
C47    C131    1.399   .     D
C48    C124    1.405   .     S
C48    C132    1.399   .     D
C49    C51     1.406   .     D
C49    C59     1.409   .     S
C49    C61     1.553   .     S
C50    C52     1.406   .     D
C50    C60     1.409   .     S
C50    C62     1.553   .     S
C51    C53     1.396   .     S
C51    H313    1.076   .     S
C52    C54     1.396   .     S
C52    H314    1.076   .     S
C53    C55     1.399   .     D
C53    H315    1.074   .     S
C54    C56     1.399   .     D
C54    H316    1.074   .     S
C55    C57     1.390   .     S
C55    C63     1.482   .     S
C56    C58     1.390   .     S
C56    C64     1.482   .     S
C57    C59     1.399   .     D
C57    H317    1.081   .     S
C58    C60     1.399   .     D
C58    H318    1.081   .     S
C59    H319    1.073   .     S
C60    H320    1.073   .     S
C61    C69     1.546   .     S
C61    O89     1.402   .     S
C62    C70     1.546   .     S
C62    O90     1.402   .     S
C63    N67     1.290   .     D
C63    H321    1.081   .     S
C64    N68     1.290   .     D
C64    H322    1.081   .     S
C65    N67     1.439   .     S
C65    C105    1.404   .     S
C65    C113    1.392   .     D
C66    N68     1.439   .     S
C66    C106    1.404   .     S
C66    C114    1.392   .     D
C69    C71     1.411   .     S
C69    C79     1.405   .     D
C70    C72     1.411   .     D
C70    C80     1.405   .     S
C71    C73     1.395   .     D
C71    H323    1.074   .     S
C72    C74     1.395   .     S
C72    H324    1.074   .     S
C73    C75     1.395   .     S
C73    H325    1.081   .     S
C74    C76     1.395   .     D
C74    H326    1.081   .     S
C75    C77     1.399   .     D
C75    C81     1.477   .     S
C76    C78     1.399   .     S
C76    C82     1.477   .     S
C77    C79     1.393   .     S
C77    H327    1.075   .     S
C78    C80     1.393   .     D
C78    H328    1.075   .     S
C79    H329    1.077   .     S
C80    H330    1.077   .     S
C81    N83     1.299   .     D
C81    H331    1.076   .     S
C82    N84     1.299   .     D
C82    H332    1.076   .     S
N83    C85     1.437   .     S
N84    C86     1.437   .     S
C85    C115    1.402   .     S
C85    C121    1.397   .     D
C86    C116    1.402   .     S
C86    C122    1.397   .     D
O89    H333    0.984   .     S
O90    H334    0.984   .     S
O93    H335    0.987   .     S
O94    H336    0.987   .     S
C95    C97     1.391   .     D
C95    H337    1.077   .     S
C96    C98     1.391   .     D
C96    H338    1.077   .     S
C97    C99     1.399   .     S
C97    H339    1.083   1_565 S
C98    C100    1.399   .     S
C98    H340    1.083   .     S
C99    C101    1.403   .     D
C99    C135    1.495   .     S
C100   C102    1.403   .     D
C100   C136    1.495   .     S
C101   C103    1.393   .     S
C101   H341    1.076   .     S
C102   C104    1.393   .     S
C102   H342    1.076   .     S
C103   H343    1.082   .     S
C104   H344    1.082   .     S
C105   C107    1.398   .     D
C105   H345    1.074   .     S
C106   C108    1.398   .     D
C106   H346    1.074   .     S
C107   C109    1.398   .     S
C107   H347    1.080   .     S
C108   C110    1.398   .     S
C108   H348    1.080   1_545 S
C109   C111    1.399   .     D
C109   C134    1.509   .     S
C110   C112    1.399   .     D
C110   C133    1.509   .     S
C111   C113    1.401   .     S
C111   H349    1.079   .     S
C112   C114    1.401   .     S
C112   H350    1.079   .     S
C113   H351    1.080   .     S
C114   H352    1.080   .     S
C115   C117    1.403   .     D
C115   H353    1.079   .     S
C116   C118    1.403   .     D
C116   H354    1.079   .     S
C117   C119    1.402   .     S
C117   H355    1.077   1_455 S
C118   C120    1.402   .     S
C118   H356    1.077   1_655 S
C119   C136    1.511   1_455 S
C119   C276    1.398   .     D
C120   C135    1.511   1_645 S
C120   C275    1.398   1_545 D
C121   C276    1.395   .     S
C121   H357    1.077   .     S
C122   C275    1.395   1_545 S
C122   H358    1.077   .     S
C123   C125    1.398   .     D
C123   H359    1.079   .     S
C124   C126    1.398   .     D
C124   H360    1.079   .     S
C125   C127    1.403   .     S
C125   H361    1.078   .     S
C126   C128    1.403   .     S
C126   H362    1.078   .     S
C127   C129    1.400   .     D
C127   C133    1.501   1_565 S
C128   C130    1.400   .     D
C128   C134    1.501   .     S
C129   C131    1.390   .     S
C129   H363    1.082   1_565 S
C130   C132    1.390   .     S
C130   H364    1.082   .     S
C131   H365    1.081   .     S
C132   H366    1.081   .     S
C133   C127    1.501   1_545 S
C133   H367    1.110   .     S
C133   H369    1.107   1_545 S
C134   H368    1.110   .     S
C134   H370    1.107   .     S
C135   C120    1.511   1_465 S
C135   H371    1.113   .     S
C135   H373    1.106   1_455 S
C136   C119    1.511   1_655 S
C136   H372    1.113   .     S
C136   H374    1.106   1_655 S
C137   C139    1.536   .     S
C137   C157    1.587   .     S
C137   O223    1.389   .     S
C137   H375    1.107   .     S
C138   C140    1.536   .     S
C138   C158    1.587   .     S
C138   O224    1.389   .     S
C138   H376    1.107   .     S
C139   C197    1.573   .     S
C139   O227    1.399   .     S
C139   H377    1.111   .     S
C140   C198    1.573   .     S
C140   O228    1.399   .     S
C140   H378    1.111   .     S
C141   C143    1.530   .     S
C141   C177    1.523   .     S
C141   O223    1.403   .     S
C141   O227    1.397   .     S
C142   C144    1.530   .     S
C142   C178    1.523   .     S
C142   O224    1.403   .     S
C142   O228    1.397   .     S
C143   H379    1.106   .     S
C143   H381    1.103   .     S
C143   H383    1.110   .     S
C144   H380    1.106   .     S
C144   H382    1.103   .     S
C144   H384    1.110   .     S
C145   C147    1.416   .     S
C145   C155    1.413   .     D
C145   C157    1.545   .     S
C146   C148    1.416   .     D
C146   C156    1.413   .     S
C146   C158    1.545   .     S
C147   C149    1.393   .     D
C147   H385    1.079   .     S
C148   C150    1.393   .     S
C148   H386    1.079   .     S
C149   C151    1.401   .     S
C149   H387    1.084   .     S
C150   C152    1.401   .     D
C150   H388    1.084   .     S
C151   C153    1.404   .     D
C151   C159    1.477   .     S
C152   C154    1.404   .     S
C152   C160    1.477   .     S
C153   C155    1.397   .     S
C153   H389    1.084   .     S
C154   C156    1.397   .     D
C154   H390    1.084   .     S
C155   H391    1.083   .     S
C156   H392    1.083   .     S
C157   C165    1.545   .     S
C157   O229    1.404   .     S
C158   C166    1.545   .     S
C158   O230    1.404   .     S
C159   N163    1.302   .     D
C159   H393    1.082   .     S
C160   N164    1.302   .     D
C160   H394    1.082   .     S
C161   N163    1.439   .     S
C161   C231    1.400   .     S
C161   C239    1.407   .     D
C162   N164    1.439   .     S
C162   C232    1.400   .     S
C162   C240    1.407   .     D
C165   C167    1.403   .     D
C165   C175    1.416   .     S
C166   C168    1.403   .     D
C166   C176    1.416   .     S
C167   C169    1.391   .     S
C167   H395    1.081   .     S
C168   C170    1.391   .     S
C168   H396    1.081   .     S
C169   C171    1.401   .     D
C169   H397    1.077   .     S
C170   C172    1.401   .     D
C170   H398    1.077   .     S
C171   C173    1.393   .     S
C171   C179    1.473   .     S
C172   C174    1.393   .     S
C172   C180    1.473   .     S
C173   C175    1.395   .     D
C173   H399    1.082   .     S
C174   C176    1.395   .     D
C174   H400    1.082   .     S
C175   H401    1.074   .     S
C176   H402    1.074   .     S
C177   H403    1.101   .     S
C177   H405    1.111   .     S
C177   H407    1.113   .     S
C178   H404    1.101   .     S
C178   H406    1.111   .     S
C178   H408    1.113   .     S
C179   N181    1.302   .     D
C179   H409    1.077   .     S
C180   N182    1.302   .     D
C180   H410    1.077   .     S
N181   C183    1.433   .     S
N182   C184    1.433   .     S
C183   C261    1.394   .     S
C183   C269    1.401   .     D
C184   C262    1.394   .     S
C184   C270    1.401   .     D
C185   C187    1.399   .     S
C185   C195    1.413   .     D
C185   C197    1.539   .     S
C186   C188    1.399   .     S
C186   C196    1.413   .     D
C186   C198    1.539   .     S
C187   C189    1.390   .     D
C187   H411    1.082   .     S
C188   C190    1.390   .     D
C188   H412    1.082   .     S
C189   C191    1.398   .     S
C189   H413    1.074   .     S
C190   C192    1.398   .     S
C190   H414    1.074   .     S
C191   C193    1.393   .     D
C191   C199    1.474   .     S
C192   C194    1.393   .     D
C192   C200    1.474   .     S
C193   C195    1.397   .     S
C193   H415    1.081   .     S
C194   C196    1.397   .     S
C194   H416    1.081   .     S
C195   H417    1.070   .     S
C196   H418    1.070   .     S
C197   C205    1.551   .     S
C197   O225    1.409   .     S
C198   C206    1.551   .     S
C198   O226    1.409   .     S
C199   N203    1.300   .     D
C199   H419    1.074   .     S
C200   N204    1.300   .     D
C200   H420    1.074   .     S
C201   N203    1.435   .     S
C201   C241    1.399   .     S
C201   C249    1.397   .     D
C202   N204    1.435   .     S
C202   C242    1.399   .     S
C202   C250    1.397   .     D
C205   C207    1.414   .     D
C205   C215    1.416   .     S
C206   C208    1.414   .     D
C206   C216    1.416   .     S
C207   C209    1.399   .     S
C207   H421    1.082   .     S
C208   C210    1.399   .     S
C208   H422    1.082   .     S
C209   C211    1.406   .     D
C209   H423    1.081   .     S
C210   C212    1.406   .     D
C210   H424    1.081   .     S
C211   C213    1.399   .     S
C211   C217    1.477   .     S
C212   C214    1.399   .     S
C212   C218    1.477   .     S
C213   C215    1.396   .     D
C213   H425    1.086   .     S
C214   C216    1.396   .     D
C214   H426    1.086   .     S
C215   H427    1.081   .     S
C216   H428    1.081   .     S
C217   N219    1.300   .     D
C217   H429    1.087   .     S
C218   N220    1.300   .     D
C218   H430    1.087   .     S
N219   C221    1.437   .     S
N220   C222    1.437   .     S
C221   C251    1.404   .     S
C221   C259    1.401   .     D
C222   C252    1.404   .     S
C222   C260    1.401   .     D
O225   H431    0.985   .     S
O226   H432    0.985   .     S
O229   H433    0.985   .     S
O230   H434    0.985   .     S
C231   C233    1.399   1_455 D
C231   H435    1.081   .     S
C232   C234    1.399   1_655 D
C232   H436    1.081   .     S
C233   C231    1.399   1_655 D
C233   C235    1.402   1_655 S
C233   H437    1.083   .     S
C234   C232    1.399   1_455 D
C234   C236    1.402   1_455 S
C234   H438    1.083   .     S
C235   C233    1.402   1_455 S
C235   C237    1.401   .     D
C235   C272    1.508   1_445 S
C236   C234    1.402   1_655 S
C236   C238    1.401   .     D
C236   C271    1.508   1_655 S
C237   C239    1.396   .     S
C237   H439    1.082   1_545 S
C238   C240    1.396   .     S
C238   H440    1.082   .     S
C239   H441    1.078   .     S
C240   H442    1.078   .     S
C241   C243    1.394   .     D
C241   H443    1.079   .     S
C242   C244    1.394   .     D
C242   H444    1.079   .     S
C243   C245    1.402   .     S
C243   H445    1.075   .     S
C244   C246    1.402   .     S
C244   H446    1.075   .     S
C245   C247    1.392   .     D
C245   C273    1.498   .     S
C246   C248    1.392   .     D
C246   C274    1.498   .     S
C247   C249    1.392   .     S
C247   H447    1.080   .     S
C248   C250    1.392   .     S
C248   H448    1.080   .     S
C249   H449    1.074   .     S
C250   H450    1.074   .     S
C251   C253    1.393   .     D
C251   H451    1.080   .     S
C252   C254    1.393   .     D
C252   H452    1.080   .     S
C253   C255    1.403   .     S
C253   H453    1.082   .     S
C254   C256    1.403   .     S
C254   H454    1.082   .     S
C255   C257    1.402   .     D
C255   C274    1.506   1_545 S
C256   C258    1.402   .     D
C256   C273    1.506   .     S
C257   C259    1.402   .     S
C257   H455    1.080   1_545 S
C258   C260    1.402   .     S
C258   H456    1.080   .     S
C259   H457    1.081   .     S
C260   H458    1.081   .     S
C261   C263    1.388   .     D
C261   H459    1.081   .     S
C262   C264    1.388   .     D
C262   H460    1.081   .     S
C263   C265    1.403   .     S
C263   H461    1.076   1_455 S
C264   C266    1.403   .     S
C264   H462    1.076   1_655 S
C265   C267    1.393   .     D
C265   C271    1.498   .     S
C266   C268    1.393   .     D
C266   C272    1.498   .     S
C267   C269    1.397   .     S
C267   H463    1.081   .     S
C268   C270    1.397   .     S
C268   H464    1.081   .     S
C269   H465    1.074   .     S
C270   H466    1.074   .     S
C271   C236    1.508   1_455 S
C271   H467    1.114   .     S
C271   H469    1.098   1_455 S
C272   C235    1.508   1_665 S
C272   H468    1.114   .     S
C272   H470    1.098   1_655 S
C273   H471    1.108   .     S
C273   H473    1.104   .     S
C274   C255    1.506   1_565 S
C274   H472    1.108   1_565 S
C274   H474    1.104   .     S
C275   C120    1.398   1_565 D
C275   C122    1.395   1_565 S
C275   H475    1.081   .     S
C276   H476    1.081   .     S
H339   C97     1.083   1_545 S
H348   C108    1.080   1_565 S
H355   C117    1.077   1_655 S
H356   C118    1.077   1_455 S
H363   C129    1.082   1_545 S
H369   C133    1.107   1_565 S
H373   C135    1.106   1_655 S
H374   C136    1.106   1_455 S
H439   C237    1.082   1_565 S
H455   C257    1.080   1_565 S
H461   C263    1.076   1_655 S
H462   C264    1.076   1_455 S
H469   C271    1.098   1_655 S
H470   C272    1.098   1_455 S
H472   C274    1.108   1_545 S
