data_710
_audit_creation_date              2023-09-08
_audit_creation_method            'Materials Studio'
_symmetry_space_group_name_H-M    'P1'
_symmetry_Int_Tables_number       1
_symmetry_cell_setting            triclinic
loop_
_symmetry_equiv_pos_as_xyz
  x,y,z
_cell_length_a                    54.1399
_cell_length_b                    54.1399
_cell_length_c                    49.1037
_cell_angle_alpha                 90.0000
_cell_angle_beta                  90.0000
_cell_angle_gamma                 120.0000
loop_
_atom_site_label
_atom_site_type_symbol
_atom_site_fract_x
_atom_site_fract_y
_atom_site_fract_z
_atom_site_U_iso_or_equiv
_atom_site_adp_type
_atom_site_occupancy
C1     C     0.33085   0.63973   0.38709   0.00000  Uiso   1.00
C2     C     0.32869   0.61635   0.37300   0.00000  Uiso   1.00
C3     C     0.32664   0.59306   0.38772   0.00000  Uiso   1.00
C4     C     0.34559   0.57015   0.35651   0.00000  Uiso   1.00
C5     C     0.32333   0.56793   0.37280   0.00000  Uiso   1.00
C6     C     0.29918   0.54112   0.37723   0.00000  Uiso   1.00
C7     C     0.29802   0.51653   0.36695   0.00000  Uiso   1.00
C8     C     0.32124   0.51847   0.35231   0.00000  Uiso   1.00
C9     C     0.34466   0.54555   0.34648   0.00000  Uiso   1.00
C10    C     0.32188   0.49226   0.34554   0.00000  Uiso   1.00
N11    N     0.34585   0.49356   0.33943   0.00000  Uiso   1.00
C12    C     0.37592   0.47461   0.32438   0.00000  Uiso   1.00
C13    C     0.35043   0.46978   0.33637   0.00000  Uiso   1.00
C14    C     0.33160   0.44265   0.34723   0.00000  Uiso   1.00
C15    C     0.33832   0.42093   0.34602   0.00000  Uiso   1.00
C16    C     0.36397   0.42584   0.33413   0.00000  Uiso   1.00
C17    C     0.38271   0.45290   0.32312   0.00000  Uiso   1.00
C18    C     0.38556   0.35915   0.33359   0.00000  Uiso   1.00
C19    C     0.35693   0.42524   0.62603   0.00000  Uiso   1.00
C20    C     0.33262   0.40781   0.64201   0.00000  Uiso   1.00
C21    C     0.30759   0.40904   0.63689   0.00000  Uiso   1.00
C22    C     0.30618   0.42513   0.61541   0.00000  Uiso   1.00
C23    C     0.33008   0.44139   0.59894   0.00000  Uiso   1.00
C24    C     0.35550   0.44140   0.60453   0.00000  Uiso   1.00
C25    C     0.31618   0.47573   0.57966   0.00000  Uiso   1.00
C26    C     0.32852   0.45843   0.57608   0.00000  Uiso   1.00
C27    C     0.33913   0.45722   0.55029   0.00000  Uiso   1.00
C28    C     0.33733   0.47283   0.52846   0.00000  Uiso   1.00
C29    C     0.32502   0.49015   0.53215   0.00000  Uiso   1.00
C30    C     0.31435   0.49124   0.55780   0.00000  Uiso   1.00
N31    N     0.32267   0.50683   0.51062   0.00000  Uiso   1.00
C32    C     0.33601   0.51324   0.48743   0.00000  Uiso   1.00
C33    C     0.32799   0.57108   0.43320   0.00000  Uiso   1.00
C34    C     0.32746   0.59376   0.41673   0.00000  Uiso   1.00
C35    C     0.32925   0.61727   0.43061   0.00000  Uiso   1.00
C36    C     0.33088   0.63993   0.41594   0.00000  Uiso   1.00
C37    C     0.30867   0.55832   0.45472   0.00000  Uiso   1.00
C38    C     0.31077   0.53896   0.47195   0.00000  Uiso   1.00
C39    C     0.33228   0.53196   0.46798   0.00000  Uiso   1.00
C40    C     0.34910   0.56367   0.42882   0.00000  Uiso   1.00
C41    C     0.35110   0.54407   0.44589   0.00000  Uiso   1.00
C42    C     0.36514   0.37464   0.64278   0.00000  Uiso   1.00
C43    C     0.38694   0.36799   0.64253   0.00000  Uiso   1.00
C44    C     0.40289   0.37127   0.66611   0.00000  Uiso   1.00
C45    C     0.39629   0.38079   0.69007   0.00000  Uiso   1.00
C46    C     0.37449   0.38742   0.69036   0.00000  Uiso   1.00
F47    F     0.40810   0.45872   0.31222   0.00000  Uiso   1.00
F48    F     0.50504   0.36011   0.27112   0.00000  Uiso   1.00
F49    F     0.45092   0.84258   0.96054   0.00000  Uiso   1.00
F50    F     0.50096   0.79551   0.89191   0.00000  Uiso   1.00
H51    H     0.32830   0.61612   0.35095   0.00000  Uiso   1.00
H52    H     0.36436   0.59073   0.35293   0.00000  Uiso   1.00
H53    H     0.28178   0.53920   0.38969   0.00000  Uiso   1.00
H54    H     0.36273   0.54768   0.33505   0.00000  Uiso   1.00
H55    H     0.30252   0.47193   0.34780   0.00000  Uiso   1.00
H56    H     0.39086   0.49554   0.31646   0.00000  Uiso   1.00
H57    H     0.31213   0.43821   0.35745   0.00000  Uiso   1.00
H58    H     0.32354   0.40027   0.35458   0.00000  Uiso   1.00
H59    H     0.37733   0.42699   0.63030   0.00000  Uiso   1.00
H60    H     0.28885   0.39711   0.64946   0.00000  Uiso   1.00
H61    H     0.28626   0.42467   0.61156   0.00000  Uiso   1.00
H62    H     0.37448   0.45443   0.59257   0.00000  Uiso   1.00
H63    H     0.34841   0.44378   0.54694   0.00000  Uiso   1.00
H64    H     0.34519   0.47083   0.50884   0.00000  Uiso   1.00
H65    H     0.30487   0.50452   0.56091   0.00000  Uiso   1.00
H66    H     0.35137   0.50664   0.48280   0.00000  Uiso   1.00
H67    H     0.33007   0.61824   0.45264   0.00000  Uiso   1.00
H68    H     0.29223   0.56376   0.45845   0.00000  Uiso   1.00
H69    H     0.29581   0.52983   0.48866   0.00000  Uiso   1.00
H70    H     0.36460   0.57373   0.41267   0.00000  Uiso   1.00
H71    H     0.35280   0.37120   0.62439   0.00000  Uiso   1.00
H72    H     0.39135   0.36029   0.62384   0.00000  Uiso   1.00
H73    H     0.40753   0.38236   0.70882   0.00000  Uiso   1.00
H74    H     0.36930   0.39323   0.70970   0.00000  Uiso   1.00
C75    C     0.99752   0.97306   0.72042   0.00000  Uiso   1.00
C76    C     0.99536   0.94968   0.70633   0.00000  Uiso   1.00
C77    C     0.99331   0.92639   0.72105   0.00000  Uiso   1.00
C78    C     0.01226   0.90348   0.68984   0.00000  Uiso   1.00
C79    C     0.99000   0.90126   0.70613   0.00000  Uiso   1.00
C80    C     0.96585   0.87445   0.71056   0.00000  Uiso   1.00
C81    C     0.96469   0.84986   0.70028   0.00000  Uiso   1.00
C82    C     0.98791   0.85180   0.68564   0.00000  Uiso   1.00
C83    C     0.01133   0.87888   0.67981   0.00000  Uiso   1.00
C84    C     0.98855   0.82559   0.67887   0.00000  Uiso   1.00
N85    N     0.01252   0.82689   0.67276   0.00000  Uiso   1.00
C86    C     0.04259   0.80794   0.65771   0.00000  Uiso   1.00
C87    C     0.01710   0.80311   0.66970   0.00000  Uiso   1.00
C88    C     0.99827   0.77598   0.68056   0.00000  Uiso   1.00
C89    C     0.00499   0.75426   0.67935   0.00000  Uiso   1.00
C90    C     0.03064   0.75917   0.66746   0.00000  Uiso   1.00
C91    C     0.04938   0.78623   0.65645   0.00000  Uiso   1.00
C92    C     0.05223   0.69248   0.66692   0.00000  Uiso   1.00
C93    C     0.02360   0.75857   0.95936   0.00000  Uiso   1.00
C94    C     0.99929   0.74114   0.97534   0.00000  Uiso   1.00
C95    C     0.97426   0.74237   0.97022   0.00000  Uiso   1.00
C96    C     0.97285   0.75846   0.94874   0.00000  Uiso   1.00
C97    C     0.99675   0.77472   0.93227   0.00000  Uiso   1.00
C98    C     0.02217   0.77473   0.93786   0.00000  Uiso   1.00
C99    C     0.98285   0.80906   0.91299   0.00000  Uiso   1.00
C100   C     0.99519   0.79176   0.90941   0.00000  Uiso   1.00
C101   C     0.00580   0.79055   0.88362   0.00000  Uiso   1.00
C102   C     0.00400   0.80616   0.86179   0.00000  Uiso   1.00
C103   C     0.99169   0.82348   0.86548   0.00000  Uiso   1.00
C104   C     0.98102   0.82457   0.89113   0.00000  Uiso   1.00
N105   N     0.98934   0.84016   0.84395   0.00000  Uiso   1.00
C106   C     0.00268   0.84657   0.82076   0.00000  Uiso   1.00
C107   C     0.99466   0.90441   0.76653   0.00000  Uiso   1.00
C108   C     0.99413   0.92709   0.75006   0.00000  Uiso   1.00
C109   C     0.99592   0.95060   0.76394   0.00000  Uiso   1.00
C110   C     0.99755   0.97326   0.74927   0.00000  Uiso   1.00
C111   C     0.97534   0.89165   0.78805   0.00000  Uiso   1.00
C112   C     0.97744   0.87229   0.80528   0.00000  Uiso   1.00
C113   C     0.99895   0.86529   0.80131   0.00000  Uiso   1.00
C114   C     0.01577   0.89700   0.76215   0.00000  Uiso   1.00
C115   C     0.01777   0.87740   0.77922   0.00000  Uiso   1.00
C116   C     0.03181   0.70797   0.97611   0.00000  Uiso   1.00
C117   C     0.05361   0.70132   0.97586   0.00000  Uiso   1.00
C118   C     0.06956   0.70460   0.99944   0.00000  Uiso   1.00
C119   C     0.06296   0.71412   0.02340   0.00000  Uiso   1.00
C120   C     0.04116   0.72075   0.02369   0.00000  Uiso   1.00
F121   F     0.07477   0.79205   0.64555   0.00000  Uiso   1.00
F122   F     0.17171   0.69344   0.60445   0.00000  Uiso   1.00
F123   F     0.11759   0.17591   0.29387   0.00000  Uiso   1.00
F124   F     0.16763   0.12884   0.22524   0.00000  Uiso   1.00
H125   H     0.99497   0.94945   0.68428   0.00000  Uiso   1.00
H126   H     0.03103   0.92406   0.68626   0.00000  Uiso   1.00
H127   H     0.94845   0.87253   0.72302   0.00000  Uiso   1.00
H128   H     0.02940   0.88101   0.66838   0.00000  Uiso   1.00
H129   H     0.96919   0.80526   0.68113   0.00000  Uiso   1.00
H130   H     0.05753   0.82887   0.64979   0.00000  Uiso   1.00
H131   H     0.97880   0.77154   0.69078   0.00000  Uiso   1.00
H132   H     0.99021   0.73360   0.68791   0.00000  Uiso   1.00
H133   H     0.04400   0.76032   0.96363   0.00000  Uiso   1.00
H134   H     0.95552   0.73044   0.98279   0.00000  Uiso   1.00
H135   H     0.95293   0.75800   0.94489   0.00000  Uiso   1.00
H136   H     0.04115   0.78776   0.92590   0.00000  Uiso   1.00
H137   H     0.01508   0.77711   0.88027   0.00000  Uiso   1.00
H138   H     0.01186   0.80416   0.84217   0.00000  Uiso   1.00
H139   H     0.97154   0.83785   0.89424   0.00000  Uiso   1.00
H140   H     0.01804   0.83997   0.81613   0.00000  Uiso   1.00
H141   H     0.99674   0.95157   0.78597   0.00000  Uiso   1.00
H142   H     0.95890   0.89709   0.79178   0.00000  Uiso   1.00
H143   H     0.96248   0.86316   0.82199   0.00000  Uiso   1.00
H144   H     0.03127   0.90706   0.74600   0.00000  Uiso   1.00
H145   H     0.01947   0.70453   0.95772   0.00000  Uiso   1.00
H146   H     0.05802   0.69362   0.95717   0.00000  Uiso   1.00
H147   H     0.07420   0.71569   0.04215   0.00000  Uiso   1.00
H148   H     0.03597   0.72656   0.04303   0.00000  Uiso   1.00
C149   C     0.66418   0.30640   0.05376   0.00000  Uiso   1.00
C150   C     0.66202   0.28302   0.03967   0.00000  Uiso   1.00
C151   C     0.65997   0.25973   0.05439   0.00000  Uiso   1.00
C152   C     0.67892   0.23682   0.02318   0.00000  Uiso   1.00
C153   C     0.65666   0.23460   0.03947   0.00000  Uiso   1.00
C154   C     0.63251   0.20779   0.04390   0.00000  Uiso   1.00
C155   C     0.63135   0.18320   0.03362   0.00000  Uiso   1.00
C156   C     0.65457   0.18514   0.01898   0.00000  Uiso   1.00
C157   C     0.67799   0.21222   0.01315   0.00000  Uiso   1.00
C158   C     0.65521   0.15893   0.01221   0.00000  Uiso   1.00
N159   N     0.67918   0.16023   0.00610   0.00000  Uiso   1.00
C160   C     0.70925   0.14128   0.99105   0.00000  Uiso   1.00
C161   C     0.68376   0.13645   0.00304   0.00000  Uiso   1.00
C162   C     0.66493   0.10932   0.01390   0.00000  Uiso   1.00
C163   C     0.67165   0.08760   0.01269   0.00000  Uiso   1.00
C164   C     0.69730   0.09251   0.00080   0.00000  Uiso   1.00
C165   C     0.71604   0.11957   0.98979   0.00000  Uiso   1.00
C166   C     0.71889   0.02582   0.00026   0.00000  Uiso   1.00
C167   C     0.69026   0.09191   0.29270   0.00000  Uiso   1.00
C168   C     0.66595   0.07448   0.30868   0.00000  Uiso   1.00
C169   C     0.64092   0.07571   0.30356   0.00000  Uiso   1.00
C170   C     0.63951   0.09180   0.28208   0.00000  Uiso   1.00
C171   C     0.66341   0.10806   0.26561   0.00000  Uiso   1.00
C172   C     0.68883   0.10807   0.27120   0.00000  Uiso   1.00
C173   C     0.64951   0.14240   0.24633   0.00000  Uiso   1.00
C174   C     0.66185   0.12510   0.24275   0.00000  Uiso   1.00
C175   C     0.67246   0.12389   0.21696   0.00000  Uiso   1.00
C176   C     0.67066   0.13950   0.19513   0.00000  Uiso   1.00
C177   C     0.65835   0.15682   0.19882   0.00000  Uiso   1.00
C178   C     0.64768   0.15791   0.22447   0.00000  Uiso   1.00
N179   N     0.65600   0.17350   0.17729   0.00000  Uiso   1.00
C180   C     0.66934   0.17991   0.15410   0.00000  Uiso   1.00
C181   C     0.66132   0.23775   0.09987   0.00000  Uiso   1.00
C182   C     0.66079   0.26043   0.08340   0.00000  Uiso   1.00
C183   C     0.66258   0.28394   0.09728   0.00000  Uiso   1.00
C184   C     0.66421   0.30660   0.08261   0.00000  Uiso   1.00
C185   C     0.64200   0.22499   0.12139   0.00000  Uiso   1.00
C186   C     0.64410   0.20563   0.13862   0.00000  Uiso   1.00
C187   C     0.66561   0.19863   0.13465   0.00000  Uiso   1.00
C188   C     0.68243   0.23034   0.09549   0.00000  Uiso   1.00
C189   C     0.68443   0.21074   0.11256   0.00000  Uiso   1.00
C190   C     0.69847   0.04131   0.30945   0.00000  Uiso   1.00
C191   C     0.72027   0.03466   0.30920   0.00000  Uiso   1.00
C192   C     0.73622   0.03794   0.33278   0.00000  Uiso   1.00
C193   C     0.72962   0.04746   0.35674   0.00000  Uiso   1.00
C194   C     0.70782   0.05409   0.35703   0.00000  Uiso   1.00
F195   F     0.74143   0.12539   0.97889   0.00000  Uiso   1.00
F196   F     0.83837   0.02678   0.93779   0.00000  Uiso   1.00
F197   F     0.78425   0.50925   0.62721   0.00000  Uiso   1.00
F198   F     0.83429   0.46218   0.55858   0.00000  Uiso   1.00
H199   H     0.66163   0.28279   0.01762   0.00000  Uiso   1.00
H200   H     0.69769   0.25740   0.01960   0.00000  Uiso   1.00
H201   H     0.61511   0.20587   0.05636   0.00000  Uiso   1.00
H202   H     0.69606   0.21435   0.00172   0.00000  Uiso   1.00
H203   H     0.63585   0.13860   0.01447   0.00000  Uiso   1.00
H204   H     0.72419   0.16221   0.98313   0.00000  Uiso   1.00
H205   H     0.64546   0.10488   0.02412   0.00000  Uiso   1.00
H206   H     0.65687   0.06694   0.02125   0.00000  Uiso   1.00
H207   H     0.71066   0.09366   0.29697   0.00000  Uiso   1.00
H208   H     0.62218   0.06378   0.31613   0.00000  Uiso   1.00
H209   H     0.61959   0.09134   0.27823   0.00000  Uiso   1.00
H210   H     0.70781   0.12110   0.25924   0.00000  Uiso   1.00
H211   H     0.68174   0.11045   0.21361   0.00000  Uiso   1.00
H212   H     0.67852   0.13750   0.17551   0.00000  Uiso   1.00
H213   H     0.63820   0.17119   0.22758   0.00000  Uiso   1.00
H214   H     0.68470   0.17331   0.14947   0.00000  Uiso   1.00
H215   H     0.66340   0.28491   0.11931   0.00000  Uiso   1.00
H216   H     0.62556   0.23043   0.12512   0.00000  Uiso   1.00
H217   H     0.62914   0.19650   0.15533   0.00000  Uiso   1.00
H218   H     0.69793   0.24040   0.07934   0.00000  Uiso   1.00
H219   H     0.68613   0.03787   0.29106   0.00000  Uiso   1.00
H220   H     0.72468   0.02696   0.29051   0.00000  Uiso   1.00
H221   H     0.74086   0.04903   0.37549   0.00000  Uiso   1.00
H222   H     0.70263   0.05990   0.37637   0.00000  Uiso   1.00
C223   C     0.36027   0.69112   0.38709   0.00000  Uiso   1.00
C224   C     0.38365   0.71234   0.37300   0.00000  Uiso   1.00
C225   C     0.40694   0.73358   0.38772   0.00000  Uiso   1.00
C226   C     0.42985   0.77544   0.35651   0.00000  Uiso   1.00
C227   C     0.43207   0.75540   0.37280   0.00000  Uiso   1.00
C228   C     0.45888   0.75806   0.37723   0.00000  Uiso   1.00
C229   C     0.48347   0.78149   0.36695   0.00000  Uiso   1.00
C230   C     0.48153   0.80277   0.35231   0.00000  Uiso   1.00
C231   C     0.45445   0.79911   0.34648   0.00000  Uiso   1.00
C232   C     0.50774   0.82962   0.34554   0.00000  Uiso   1.00
N233   N     0.50644   0.85229   0.33943   0.00000  Uiso   1.00
C234   C     0.52539   0.90131   0.32438   0.00000  Uiso   1.00
C235   C     0.53022   0.88065   0.33637   0.00000  Uiso   1.00
C236   C     0.55735   0.88895   0.34723   0.00000  Uiso   1.00
C237   C     0.57907   0.91739   0.34602   0.00000  Uiso   1.00
C238   C     0.57416   0.93813   0.33413   0.00000  Uiso   1.00
C239   C     0.54710   0.92981   0.32312   0.00000  Uiso   1.00
C240   C     0.64085   0.02641   0.33359   0.00000  Uiso   1.00
C241   C     0.57476   0.93169   0.62603   0.00000  Uiso   1.00
C242   C     0.59219   0.92481   0.64201   0.00000  Uiso   1.00
C243   C     0.59096   0.89855   0.63689   0.00000  Uiso   1.00
C244   C     0.57487   0.88105   0.61541   0.00000  Uiso   1.00
C245   C     0.55861   0.88869   0.59894   0.00000  Uiso   1.00
C246   C     0.55860   0.91410   0.60453   0.00000  Uiso   1.00
C247   C     0.52427   0.84045   0.57966   0.00000  Uiso   1.00
C248   C     0.54157   0.87009   0.57608   0.00000  Uiso   1.00
C249   C     0.54278   0.88191   0.55029   0.00000  Uiso   1.00
C250   C     0.52717   0.86450   0.52846   0.00000  Uiso   1.00
C251   C     0.50985   0.83487   0.53215   0.00000  Uiso   1.00
C252   C     0.50876   0.82311   0.55780   0.00000  Uiso   1.00
N253   N     0.49317   0.81584   0.51062   0.00000  Uiso   1.00
C254   C     0.48676   0.82277   0.48743   0.00000  Uiso   1.00
C255   C     0.42892   0.75691   0.43320   0.00000  Uiso   1.00
C256   C     0.40624   0.73370   0.41673   0.00000  Uiso   1.00
C257   C     0.38273   0.71198   0.43061   0.00000  Uiso   1.00
C258   C     0.36007   0.69095   0.41594   0.00000  Uiso   1.00
C259   C     0.44168   0.75035   0.45472   0.00000  Uiso   1.00
C260   C     0.46104   0.77181   0.47195   0.00000  Uiso   1.00
C261   C     0.46804   0.80032   0.46798   0.00000  Uiso   1.00
C262   C     0.43633   0.78543   0.42882   0.00000  Uiso   1.00
C263   C     0.45593   0.80703   0.44589   0.00000  Uiso   1.00
C264   C     0.62536   0.99050   0.64278   0.00000  Uiso   1.00
C265   C     0.63201   0.01895   0.64253   0.00000  Uiso   1.00
C266   C     0.62873   0.03162   0.66611   0.00000  Uiso   1.00
C267   C     0.61921   0.01550   0.69007   0.00000  Uiso   1.00
C268   C     0.61258   0.98707   0.69036   0.00000  Uiso   1.00
F269   F     0.54128   0.94938   0.31222   0.00000  Uiso   1.00
F270   F     0.63989   0.14493   0.27112   0.00000  Uiso   1.00
F271   F     0.15742   0.60834   0.96054   0.00000  Uiso   1.00
F272   F     0.20449   0.70545   0.89191   0.00000  Uiso   1.00
H273   H     0.38388   0.71218   0.35095   0.00000  Uiso   1.00
H274   H     0.40927   0.77363   0.35293   0.00000  Uiso   1.00
H275   H     0.46080   0.74258   0.38969   0.00000  Uiso   1.00
H276   H     0.45232   0.81505   0.33505   0.00000  Uiso   1.00
H277   H     0.52807   0.83059   0.34780   0.00000  Uiso   1.00
H278   H     0.50446   0.89532   0.31646   0.00000  Uiso   1.00
H279   H     0.56179   0.87392   0.35745   0.00000  Uiso   1.00
H280   H     0.59973   0.92327   0.35458   0.00000  Uiso   1.00
H281   H     0.57301   0.95034   0.63030   0.00000  Uiso   1.00
H282   H     0.60289   0.89174   0.64946   0.00000  Uiso   1.00
H283   H     0.57533   0.86159   0.61156   0.00000  Uiso   1.00
H284   H     0.54557   0.92005   0.59257   0.00000  Uiso   1.00
H285   H     0.55622   0.90463   0.54694   0.00000  Uiso   1.00
H286   H     0.52917   0.87436   0.50884   0.00000  Uiso   1.00
H287   H     0.49548   0.80035   0.56091   0.00000  Uiso   1.00
H288   H     0.49336   0.84473   0.48280   0.00000  Uiso   1.00
H289   H     0.38176   0.71183   0.45264   0.00000  Uiso   1.00
H290   H     0.43624   0.72847   0.45845   0.00000  Uiso   1.00
H291   H     0.47017   0.76598   0.48866   0.00000  Uiso   1.00
H292   H     0.42627   0.79087   0.41267   0.00000  Uiso   1.00
H293   H     0.62880   0.98160   0.62439   0.00000  Uiso   1.00
H294   H     0.63971   0.03106   0.62384   0.00000  Uiso   1.00
H295   H     0.61764   0.02517   0.70882   0.00000  Uiso   1.00
H296   H     0.60677   0.97607   0.70970   0.00000  Uiso   1.00
C297   C     0.02694   0.02445   0.72042   0.00000  Uiso   1.00
C298   C     0.05032   0.04567   0.70633   0.00000  Uiso   1.00
C299   C     0.07361   0.06691   0.72105   0.00000  Uiso   1.00
C300   C     0.09652   0.10877   0.68984   0.00000  Uiso   1.00
C301   C     0.09874   0.08873   0.70613   0.00000  Uiso   1.00
C302   C     0.12555   0.09139   0.71056   0.00000  Uiso   1.00
C303   C     0.15014   0.11482   0.70028   0.00000  Uiso   1.00
C304   C     0.14820   0.13610   0.68564   0.00000  Uiso   1.00
C305   C     0.12112   0.13244   0.67981   0.00000  Uiso   1.00
C306   C     0.17441   0.16295   0.67887   0.00000  Uiso   1.00
N307   N     0.17311   0.18562   0.67276   0.00000  Uiso   1.00
C308   C     0.19206   0.23464   0.65771   0.00000  Uiso   1.00
C309   C     0.19689   0.21398   0.66970   0.00000  Uiso   1.00
C310   C     0.22402   0.22228   0.68056   0.00000  Uiso   1.00
C311   C     0.24574   0.25072   0.67935   0.00000  Uiso   1.00
C312   C     0.24083   0.27146   0.66746   0.00000  Uiso   1.00
C313   C     0.21377   0.26314   0.65645   0.00000  Uiso   1.00
C314   C     0.30752   0.35974   0.66692   0.00000  Uiso   1.00
C315   C     0.24143   0.26502   0.95936   0.00000  Uiso   1.00
C316   C     0.25886   0.25814   0.97534   0.00000  Uiso   1.00
C317   C     0.25763   0.23188   0.97022   0.00000  Uiso   1.00
C318   C     0.24154   0.21438   0.94874   0.00000  Uiso   1.00
C319   C     0.22528   0.22202   0.93227   0.00000  Uiso   1.00
C320   C     0.22527   0.24743   0.93786   0.00000  Uiso   1.00
C321   C     0.19094   0.17378   0.91299   0.00000  Uiso   1.00
C322   C     0.20824   0.20342   0.90941   0.00000  Uiso   1.00
C323   C     0.20945   0.21524   0.88362   0.00000  Uiso   1.00
C324   C     0.19384   0.19783   0.86179   0.00000  Uiso   1.00
C325   C     0.17652   0.16820   0.86548   0.00000  Uiso   1.00
C326   C     0.17543   0.15644   0.89113   0.00000  Uiso   1.00
N327   N     0.15984   0.14917   0.84395   0.00000  Uiso   1.00
C328   C     0.15343   0.15610   0.82076   0.00000  Uiso   1.00
C329   C     0.09559   0.09024   0.76653   0.00000  Uiso   1.00
C330   C     0.07291   0.06703   0.75006   0.00000  Uiso   1.00
C331   C     0.04940   0.04531   0.76394   0.00000  Uiso   1.00
C332   C     0.02674   0.02428   0.74927   0.00000  Uiso   1.00
C333   C     0.10835   0.08368   0.78805   0.00000  Uiso   1.00
C334   C     0.12771   0.10514   0.80528   0.00000  Uiso   1.00
C335   C     0.13471   0.13365   0.80131   0.00000  Uiso   1.00
C336   C     0.10300   0.11876   0.76215   0.00000  Uiso   1.00
C337   C     0.12260   0.14036   0.77922   0.00000  Uiso   1.00
C338   C     0.29203   0.32383   0.97611   0.00000  Uiso   1.00
C339   C     0.29868   0.35228   0.97586   0.00000  Uiso   1.00
C340   C     0.29540   0.36495   0.99944   0.00000  Uiso   1.00
C341   C     0.28588   0.34883   0.02340   0.00000  Uiso   1.00
C342   C     0.27925   0.32040   0.02369   0.00000  Uiso   1.00
F343   F     0.20795   0.28271   0.64555   0.00000  Uiso   1.00
F344   F     0.30656   0.47826   0.60445   0.00000  Uiso   1.00
F345   F     0.82409   0.94167   0.29387   0.00000  Uiso   1.00
F346   F     0.87116   0.03878   0.22524   0.00000  Uiso   1.00
H347   H     0.05055   0.04551   0.68428   0.00000  Uiso   1.00
H348   H     0.07594   0.10696   0.68626   0.00000  Uiso   1.00
H349   H     0.12747   0.07591   0.72302   0.00000  Uiso   1.00
H350   H     0.11899   0.14838   0.66838   0.00000  Uiso   1.00
H351   H     0.19474   0.16392   0.68113   0.00000  Uiso   1.00
H352   H     0.17113   0.22865   0.64979   0.00000  Uiso   1.00
H353   H     0.22846   0.20725   0.69078   0.00000  Uiso   1.00
H354   H     0.26640   0.25660   0.68791   0.00000  Uiso   1.00
H355   H     0.23968   0.28367   0.96363   0.00000  Uiso   1.00
H356   H     0.26956   0.22507   0.98279   0.00000  Uiso   1.00
H357   H     0.24200   0.19492   0.94489   0.00000  Uiso   1.00
H358   H     0.21224   0.25338   0.92590   0.00000  Uiso   1.00
H359   H     0.22289   0.23796   0.88027   0.00000  Uiso   1.00
H360   H     0.19584   0.20769   0.84217   0.00000  Uiso   1.00
H361   H     0.16215   0.13368   0.89424   0.00000  Uiso   1.00
H362   H     0.16003   0.17806   0.81613   0.00000  Uiso   1.00
H363   H     0.04843   0.04516   0.78597   0.00000  Uiso   1.00
H364   H     0.10291   0.06180   0.79178   0.00000  Uiso   1.00
H365   H     0.13684   0.09931   0.82199   0.00000  Uiso   1.00
H366   H     0.09294   0.12420   0.74600   0.00000  Uiso   1.00
H367   H     0.29547   0.31493   0.95772   0.00000  Uiso   1.00
H368   H     0.30638   0.36439   0.95717   0.00000  Uiso   1.00
H369   H     0.28431   0.35850   0.04215   0.00000  Uiso   1.00
H370   H     0.27344   0.30940   0.04303   0.00000  Uiso   1.00
C371   C     0.69360   0.35779   0.05376   0.00000  Uiso   1.00
C372   C     0.71698   0.37901   0.03967   0.00000  Uiso   1.00
C373   C     0.74027   0.40025   0.05439   0.00000  Uiso   1.00
C374   C     0.76318   0.44211   0.02318   0.00000  Uiso   1.00
C375   C     0.76540   0.42207   0.03947   0.00000  Uiso   1.00
C376   C     0.79221   0.42473   0.04390   0.00000  Uiso   1.00
C377   C     0.81680   0.44816   0.03362   0.00000  Uiso   1.00
C378   C     0.81486   0.46944   0.01898   0.00000  Uiso   1.00
C379   C     0.78778   0.46578   0.01315   0.00000  Uiso   1.00
C380   C     0.84107   0.49629   0.01221   0.00000  Uiso   1.00
N381   N     0.83977   0.51896   0.00610   0.00000  Uiso   1.00
C382   C     0.85872   0.56798   0.99105   0.00000  Uiso   1.00
C383   C     0.86355   0.54732   0.00304   0.00000  Uiso   1.00
C384   C     0.89068   0.55562   0.01390   0.00000  Uiso   1.00
C385   C     0.91240   0.58406   0.01269   0.00000  Uiso   1.00
C386   C     0.90749   0.60480   0.00080   0.00000  Uiso   1.00
C387   C     0.88043   0.59648   0.98979   0.00000  Uiso   1.00
C388   C     0.97418   0.69308   0.00026   0.00000  Uiso   1.00
C389   C     0.90809   0.59836   0.29270   0.00000  Uiso   1.00
C390   C     0.92552   0.59148   0.30868   0.00000  Uiso   1.00
C391   C     0.92429   0.56522   0.30356   0.00000  Uiso   1.00
C392   C     0.90820   0.54772   0.28208   0.00000  Uiso   1.00
C393   C     0.89194   0.55536   0.26561   0.00000  Uiso   1.00
C394   C     0.89193   0.58077   0.27120   0.00000  Uiso   1.00
C395   C     0.85760   0.50712   0.24633   0.00000  Uiso   1.00
C396   C     0.87490   0.53676   0.24275   0.00000  Uiso   1.00
C397   C     0.87611   0.54858   0.21696   0.00000  Uiso   1.00
C398   C     0.86050   0.53117   0.19513   0.00000  Uiso   1.00
C399   C     0.84318   0.50154   0.19882   0.00000  Uiso   1.00
C400   C     0.84209   0.48978   0.22447   0.00000  Uiso   1.00
N401   N     0.82650   0.48251   0.17729   0.00000  Uiso   1.00
C402   C     0.82009   0.48944   0.15410   0.00000  Uiso   1.00
C403   C     0.76225   0.42358   0.09987   0.00000  Uiso   1.00
C404   C     0.73957   0.40037   0.08340   0.00000  Uiso   1.00
C405   C     0.71606   0.37865   0.09728   0.00000  Uiso   1.00
C406   C     0.69340   0.35762   0.08261   0.00000  Uiso   1.00
C407   C     0.77501   0.41702   0.12139   0.00000  Uiso   1.00
C408   C     0.79437   0.43848   0.13862   0.00000  Uiso   1.00
C409   C     0.80137   0.46699   0.13465   0.00000  Uiso   1.00
C410   C     0.76966   0.45210   0.09549   0.00000  Uiso   1.00
C411   C     0.78926   0.47370   0.11256   0.00000  Uiso   1.00
C412   C     0.95869   0.65717   0.30945   0.00000  Uiso   1.00
C413   C     0.96534   0.68562   0.30920   0.00000  Uiso   1.00
C414   C     0.96206   0.69829   0.33278   0.00000  Uiso   1.00
C415   C     0.95254   0.68217   0.35674   0.00000  Uiso   1.00
C416   C     0.94591   0.65374   0.35703   0.00000  Uiso   1.00
F417   F     0.87461   0.61605   0.97889   0.00000  Uiso   1.00
F418   F     0.97322   0.81160   0.93779   0.00000  Uiso   1.00
F419   F     0.49075   0.27501   0.62721   0.00000  Uiso   1.00
F420   F     0.53782   0.37212   0.55858   0.00000  Uiso   1.00
H421   H     0.71721   0.37885   0.01762   0.00000  Uiso   1.00
H422   H     0.74260   0.44030   0.01960   0.00000  Uiso   1.00
H423   H     0.79413   0.40925   0.05636   0.00000  Uiso   1.00
H424   H     0.78565   0.48172   0.00172   0.00000  Uiso   1.00
H425   H     0.86140   0.49726   0.01447   0.00000  Uiso   1.00
H426   H     0.83779   0.56199   0.98313   0.00000  Uiso   1.00
H427   H     0.89512   0.54059   0.02412   0.00000  Uiso   1.00
H428   H     0.93306   0.58994   0.02125   0.00000  Uiso   1.00
H429   H     0.90634   0.61701   0.29697   0.00000  Uiso   1.00
H430   H     0.93622   0.55841   0.31613   0.00000  Uiso   1.00
H431   H     0.90866   0.52826   0.27823   0.00000  Uiso   1.00
H432   H     0.87890   0.58672   0.25924   0.00000  Uiso   1.00
H433   H     0.88955   0.57130   0.21361   0.00000  Uiso   1.00
H434   H     0.86250   0.54103   0.17551   0.00000  Uiso   1.00
H435   H     0.82881   0.46702   0.22758   0.00000  Uiso   1.00
H436   H     0.82669   0.51140   0.14947   0.00000  Uiso   1.00
H437   H     0.71509   0.37850   0.11931   0.00000  Uiso   1.00
H438   H     0.76957   0.39514   0.12512   0.00000  Uiso   1.00
H439   H     0.80350   0.43265   0.15533   0.00000  Uiso   1.00
H440   H     0.75960   0.45754   0.07934   0.00000  Uiso   1.00
H441   H     0.96213   0.64827   0.29106   0.00000  Uiso   1.00
H442   H     0.97304   0.69773   0.29051   0.00000  Uiso   1.00
H443   H     0.95097   0.69184   0.37549   0.00000  Uiso   1.00
H444   H     0.94010   0.64274   0.37637   0.00000  Uiso   1.00
C445   C     0.30888   0.66915   0.38709   0.00000  Uiso   1.00
C446   C     0.28766   0.67131   0.37300   0.00000  Uiso   1.00
C447   C     0.26642   0.67336   0.38772   0.00000  Uiso   1.00
C448   C     0.22456   0.65441   0.35651   0.00000  Uiso   1.00
C449   C     0.24460   0.67667   0.37280   0.00000  Uiso   1.00
C450   C     0.24194   0.70082   0.37723   0.00000  Uiso   1.00
C451   C     0.21851   0.70198   0.36695   0.00000  Uiso   1.00
C452   C     0.19723   0.67876   0.35231   0.00000  Uiso   1.00
C453   C     0.20089   0.65534   0.34648   0.00000  Uiso   1.00
C454   C     0.17038   0.67812   0.34554   0.00000  Uiso   1.00
N455   N     0.14771   0.65415   0.33943   0.00000  Uiso   1.00
C456   C     0.09869   0.62408   0.32438   0.00000  Uiso   1.00
C457   C     0.11935   0.64957   0.33637   0.00000  Uiso   1.00
C458   C     0.11105   0.66840   0.34723   0.00000  Uiso   1.00
C459   C     0.08261   0.66168   0.34602   0.00000  Uiso   1.00
C460   C     0.06187   0.63603   0.33413   0.00000  Uiso   1.00
C461   C     0.07019   0.61729   0.32312   0.00000  Uiso   1.00
C462   C     0.97359   0.61444   0.33359   0.00000  Uiso   1.00
C463   C     0.06831   0.64307   0.62603   0.00000  Uiso   1.00
C464   C     0.07519   0.66738   0.64201   0.00000  Uiso   1.00
C465   C     0.10145   0.69241   0.63689   0.00000  Uiso   1.00
C466   C     0.11895   0.69382   0.61541   0.00000  Uiso   1.00
C467   C     0.11131   0.66992   0.59894   0.00000  Uiso   1.00
C468   C     0.08590   0.64450   0.60453   0.00000  Uiso   1.00
C469   C     0.15955   0.68382   0.57966   0.00000  Uiso   1.00
C470   C     0.12991   0.67148   0.57608   0.00000  Uiso   1.00
C471   C     0.11809   0.66087   0.55029   0.00000  Uiso   1.00
C472   C     0.13550   0.66267   0.52846   0.00000  Uiso   1.00
C473   C     0.16513   0.67498   0.53215   0.00000  Uiso   1.00
C474   C     0.17689   0.68565   0.55780   0.00000  Uiso   1.00
N475   N     0.18416   0.67733   0.51062   0.00000  Uiso   1.00
C476   C     0.17723   0.66399   0.48743   0.00000  Uiso   1.00
C477   C     0.24309   0.67201   0.43320   0.00000  Uiso   1.00
C478   C     0.26630   0.67254   0.41673   0.00000  Uiso   1.00
C479   C     0.28802   0.67075   0.43061   0.00000  Uiso   1.00
C480   C     0.30905   0.66912   0.41594   0.00000  Uiso   1.00
C481   C     0.24965   0.69133   0.45472   0.00000  Uiso   1.00
C482   C     0.22819   0.68923   0.47195   0.00000  Uiso   1.00
C483   C     0.19968   0.66772   0.46798   0.00000  Uiso   1.00
C484   C     0.21457   0.65090   0.42882   0.00000  Uiso   1.00
C485   C     0.19297   0.64890   0.44589   0.00000  Uiso   1.00
C486   C     0.00950   0.63486   0.64278   0.00000  Uiso   1.00
C487   C     0.98105   0.61306   0.64253   0.00000  Uiso   1.00
C488   C     0.96838   0.59711   0.66611   0.00000  Uiso   1.00
C489   C     0.98450   0.60371   0.69007   0.00000  Uiso   1.00
C490   C     0.01293   0.62551   0.69036   0.00000  Uiso   1.00
F491   F     0.05062   0.59190   0.31222   0.00000  Uiso   1.00
F492   F     0.85507   0.49496   0.27112   0.00000  Uiso   1.00
F493   F     0.39166   0.54908   0.96054   0.00000  Uiso   1.00
F494   F     0.29455   0.49904   0.89191   0.00000  Uiso   1.00
H495   H     0.28782   0.67170   0.35095   0.00000  Uiso   1.00
H496   H     0.22637   0.63564   0.35293   0.00000  Uiso   1.00
H497   H     0.25742   0.71822   0.38969   0.00000  Uiso   1.00
H498   H     0.18495   0.63727   0.33505   0.00000  Uiso   1.00
H499   H     0.16941   0.69748   0.34780   0.00000  Uiso   1.00
H500   H     0.10468   0.60914   0.31646   0.00000  Uiso   1.00
H501   H     0.12608   0.68787   0.35745   0.00000  Uiso   1.00
H502   H     0.07673   0.67646   0.35458   0.00000  Uiso   1.00
H503   H     0.04966   0.62267   0.63030   0.00000  Uiso   1.00
H504   H     0.10826   0.71115   0.64946   0.00000  Uiso   1.00
H505   H     0.13841   0.71374   0.61156   0.00000  Uiso   1.00
H506   H     0.07995   0.62552   0.59257   0.00000  Uiso   1.00
H507   H     0.09537   0.65159   0.54694   0.00000  Uiso   1.00
H508   H     0.12564   0.65481   0.50884   0.00000  Uiso   1.00
H509   H     0.19965   0.69513   0.56091   0.00000  Uiso   1.00
H510   H     0.15527   0.64863   0.48280   0.00000  Uiso   1.00
H511   H     0.28817   0.66993   0.45264   0.00000  Uiso   1.00
H512   H     0.27153   0.70777   0.45845   0.00000  Uiso   1.00
H513   H     0.23402   0.70419   0.48866   0.00000  Uiso   1.00
H514   H     0.20913   0.63540   0.41267   0.00000  Uiso   1.00
H515   H     0.01840   0.64720   0.62439   0.00000  Uiso   1.00
H516   H     0.96894   0.60865   0.62384   0.00000  Uiso   1.00
H517   H     0.97483   0.59247   0.70882   0.00000  Uiso   1.00
H518   H     0.02393   0.63070   0.70970   0.00000  Uiso   1.00
C519   C     0.97555   0.00248   0.72042   0.00000  Uiso   1.00
C520   C     0.95433   0.00464   0.70633   0.00000  Uiso   1.00
C521   C     0.93309   0.00669   0.72105   0.00000  Uiso   1.00
C522   C     0.89123   0.98774   0.68984   0.00000  Uiso   1.00
C523   C     0.91127   0.01000   0.70613   0.00000  Uiso   1.00
C524   C     0.90861   0.03415   0.71056   0.00000  Uiso   1.00
C525   C     0.88518   0.03531   0.70028   0.00000  Uiso   1.00
C526   C     0.86390   0.01209   0.68564   0.00000  Uiso   1.00
C527   C     0.86756   0.98867   0.67981   0.00000  Uiso   1.00
C528   C     0.83705   0.01145   0.67887   0.00000  Uiso   1.00
N529   N     0.81438   0.98748   0.67276   0.00000  Uiso   1.00
C530   C     0.76536   0.95741   0.65771   0.00000  Uiso   1.00
C531   C     0.78602   0.98290   0.66970   0.00000  Uiso   1.00
C532   C     0.77772   0.00173   0.68056   0.00000  Uiso   1.00
C533   C     0.74928   0.99501   0.67935   0.00000  Uiso   1.00
C534   C     0.72854   0.96936   0.66746   0.00000  Uiso   1.00
C535   C     0.73686   0.95062   0.65645   0.00000  Uiso   1.00
C536   C     0.64026   0.94777   0.66692   0.00000  Uiso   1.00
C537   C     0.73498   0.97640   0.95936   0.00000  Uiso   1.00
C538   C     0.74186   0.00071   0.97534   0.00000  Uiso   1.00
C539   C     0.76812   0.02574   0.97022   0.00000  Uiso   1.00
C540   C     0.78562   0.02715   0.94874   0.00000  Uiso   1.00
C541   C     0.77798   0.00325   0.93227   0.00000  Uiso   1.00
C542   C     0.75257   0.97783   0.93786   0.00000  Uiso   1.00
C543   C     0.82622   0.01715   0.91299   0.00000  Uiso   1.00
C544   C     0.79658   0.00481   0.90941   0.00000  Uiso   1.00
C545   C     0.78476   0.99420   0.88362   0.00000  Uiso   1.00
C546   C     0.80217   0.99600   0.86179   0.00000  Uiso   1.00
C547   C     0.83180   0.00831   0.86548   0.00000  Uiso   1.00
C548   C     0.84356   0.01898   0.89113   0.00000  Uiso   1.00
N549   N     0.85083   0.01066   0.84395   0.00000  Uiso   1.00
C550   C     0.84390   0.99732   0.82076   0.00000  Uiso   1.00
C551   C     0.90976   0.00534   0.76653   0.00000  Uiso   1.00
C552   C     0.93297   0.00587   0.75006   0.00000  Uiso   1.00
C553   C     0.95469   0.00408   0.76394   0.00000  Uiso   1.00
C554   C     0.97572   0.00245   0.74927   0.00000  Uiso   1.00
C555   C     0.91632   0.02466   0.78805   0.00000  Uiso   1.00
C556   C     0.89486   0.02256   0.80528   0.00000  Uiso   1.00
C557   C     0.86635   0.00105   0.80131   0.00000  Uiso   1.00
C558   C     0.88124   0.98423   0.76215   0.00000  Uiso   1.00
C559   C     0.85964   0.98223   0.77922   0.00000  Uiso   1.00
C560   C     0.67617   0.96819   0.97611   0.00000  Uiso   1.00
C561   C     0.64772   0.94639   0.97586   0.00000  Uiso   1.00
C562   C     0.63505   0.93044   0.99944   0.00000  Uiso   1.00
C563   C     0.65117   0.93704   0.02340   0.00000  Uiso   1.00
C564   C     0.67960   0.95884   0.02369   0.00000  Uiso   1.00
F565   F     0.71729   0.92523   0.64555   0.00000  Uiso   1.00
F566   F     0.52174   0.82829   0.60445   0.00000  Uiso   1.00
F567   F     0.05833   0.88241   0.29387   0.00000  Uiso   1.00
F568   F     0.96122   0.83237   0.22524   0.00000  Uiso   1.00
H569   H     0.95449   0.00503   0.68428   0.00000  Uiso   1.00
H570   H     0.89304   0.96897   0.68626   0.00000  Uiso   1.00
H571   H     0.92409   0.05155   0.72302   0.00000  Uiso   1.00
H572   H     0.85162   0.97060   0.66838   0.00000  Uiso   1.00
H573   H     0.83608   0.03081   0.68113   0.00000  Uiso   1.00
H574   H     0.77135   0.94247   0.64979   0.00000  Uiso   1.00
H575   H     0.79275   0.02120   0.69078   0.00000  Uiso   1.00
H576   H     0.74340   0.00979   0.68791   0.00000  Uiso   1.00
H577   H     0.71633   0.95600   0.96363   0.00000  Uiso   1.00
H578   H     0.77493   0.04448   0.98279   0.00000  Uiso   1.00
H579   H     0.80508   0.04707   0.94489   0.00000  Uiso   1.00
H580   H     0.74662   0.95885   0.92590   0.00000  Uiso   1.00
H581   H     0.76204   0.98492   0.88027   0.00000  Uiso   1.00
H582   H     0.79231   0.98814   0.84217   0.00000  Uiso   1.00
H583   H     0.86632   0.02846   0.89424   0.00000  Uiso   1.00
H584   H     0.82194   0.98196   0.81613   0.00000  Uiso   1.00
H585   H     0.95484   0.00326   0.78597   0.00000  Uiso   1.00
H586   H     0.93820   0.04110   0.79178   0.00000  Uiso   1.00
H587   H     0.90069   0.03752   0.82199   0.00000  Uiso   1.00
H588   H     0.87580   0.96873   0.74600   0.00000  Uiso   1.00
H589   H     0.68507   0.98053   0.95772   0.00000  Uiso   1.00
H590   H     0.63561   0.94198   0.95717   0.00000  Uiso   1.00
H591   H     0.64150   0.92580   0.04215   0.00000  Uiso   1.00
H592   H     0.69060   0.96403   0.04303   0.00000  Uiso   1.00
C593   C     0.64221   0.33582   0.05376   0.00000  Uiso   1.00
C594   C     0.62099   0.33798   0.03967   0.00000  Uiso   1.00
C595   C     0.59975   0.34003   0.05439   0.00000  Uiso   1.00
C596   C     0.55789   0.32108   0.02318   0.00000  Uiso   1.00
C597   C     0.57793   0.34334   0.03947   0.00000  Uiso   1.00
C598   C     0.57527   0.36749   0.04390   0.00000  Uiso   1.00
C599   C     0.55184   0.36865   0.03362   0.00000  Uiso   1.00
C600   C     0.53056   0.34543   0.01898   0.00000  Uiso   1.00
C601   C     0.53422   0.32201   0.01315   0.00000  Uiso   1.00
C602   C     0.50371   0.34479   0.01221   0.00000  Uiso   1.00
N603   N     0.48104   0.32082   0.00610   0.00000  Uiso   1.00
C604   C     0.43202   0.29075   0.99105   0.00000  Uiso   1.00
C605   C     0.45268   0.31624   0.00304   0.00000  Uiso   1.00
C606   C     0.44438   0.33507   0.01390   0.00000  Uiso   1.00
C607   C     0.41594   0.32835   0.01269   0.00000  Uiso   1.00
C608   C     0.39520   0.30270   0.00080   0.00000  Uiso   1.00
C609   C     0.40352   0.28396   0.98979   0.00000  Uiso   1.00
C610   C     0.30692   0.28111   0.00026   0.00000  Uiso   1.00
C611   C     0.40164   0.30974   0.29270   0.00000  Uiso   1.00
C612   C     0.40852   0.33405   0.30868   0.00000  Uiso   1.00
C613   C     0.43478   0.35908   0.30356   0.00000  Uiso   1.00
C614   C     0.45228   0.36049   0.28208   0.00000  Uiso   1.00
C615   C     0.44464   0.33659   0.26561   0.00000  Uiso   1.00
C616   C     0.41923   0.31117   0.27120   0.00000  Uiso   1.00
C617   C     0.49288   0.35049   0.24633   0.00000  Uiso   1.00
C618   C     0.46324   0.33815   0.24275   0.00000  Uiso   1.00
C619   C     0.45142   0.32754   0.21696   0.00000  Uiso   1.00
C620   C     0.46883   0.32934   0.19513   0.00000  Uiso   1.00
C621   C     0.49846   0.34165   0.19882   0.00000  Uiso   1.00
C622   C     0.51022   0.35232   0.22447   0.00000  Uiso   1.00
N623   N     0.51749   0.34400   0.17729   0.00000  Uiso   1.00
C624   C     0.51056   0.33066   0.15410   0.00000  Uiso   1.00
C625   C     0.57642   0.33868   0.09987   0.00000  Uiso   1.00
C626   C     0.59963   0.33921   0.08340   0.00000  Uiso   1.00
C627   C     0.62135   0.33742   0.09728   0.00000  Uiso   1.00
C628   C     0.64238   0.33579   0.08261   0.00000  Uiso   1.00
C629   C     0.58298   0.35800   0.12139   0.00000  Uiso   1.00
C630   C     0.56152   0.35590   0.13862   0.00000  Uiso   1.00
C631   C     0.53301   0.33439   0.13465   0.00000  Uiso   1.00
C632   C     0.54790   0.31757   0.09549   0.00000  Uiso   1.00
C633   C     0.52630   0.31557   0.11256   0.00000  Uiso   1.00
C634   C     0.34283   0.30153   0.30945   0.00000  Uiso   1.00
C635   C     0.31438   0.27973   0.30920   0.00000  Uiso   1.00
C636   C     0.30171   0.26378   0.33278   0.00000  Uiso   1.00
C637   C     0.31783   0.27038   0.35674   0.00000  Uiso   1.00
C638   C     0.34626   0.29218   0.35703   0.00000  Uiso   1.00
F639   F     0.38395   0.25857   0.97889   0.00000  Uiso   1.00
F640   F     0.18840   0.16163   0.93779   0.00000  Uiso   1.00
F641   F     0.72499   0.21575   0.62721   0.00000  Uiso   1.00
F642   F     0.62788   0.16571   0.55858   0.00000  Uiso   1.00
H643   H     0.62115   0.33837   0.01762   0.00000  Uiso   1.00
H644   H     0.55970   0.30231   0.01960   0.00000  Uiso   1.00
H645   H     0.59075   0.38489   0.05636   0.00000  Uiso   1.00
H646   H     0.51828   0.30394   0.00172   0.00000  Uiso   1.00
H647   H     0.50274   0.36415   0.01447   0.00000  Uiso   1.00
H648   H     0.43801   0.27581   0.98313   0.00000  Uiso   1.00
H649   H     0.45941   0.35454   0.02412   0.00000  Uiso   1.00
H650   H     0.41006   0.34313   0.02125   0.00000  Uiso   1.00
H651   H     0.38299   0.28934   0.29697   0.00000  Uiso   1.00
H652   H     0.44159   0.37782   0.31613   0.00000  Uiso   1.00
H653   H     0.47174   0.38041   0.27823   0.00000  Uiso   1.00
H654   H     0.41328   0.29219   0.25924   0.00000  Uiso   1.00
H655   H     0.42870   0.31826   0.21361   0.00000  Uiso   1.00
H656   H     0.45897   0.32148   0.17551   0.00000  Uiso   1.00
H657   H     0.53298   0.36180   0.22758   0.00000  Uiso   1.00
H658   H     0.48860   0.31530   0.14947   0.00000  Uiso   1.00
H659   H     0.62150   0.33660   0.11931   0.00000  Uiso   1.00
H660   H     0.60486   0.37444   0.12512   0.00000  Uiso   1.00
H661   H     0.56735   0.37086   0.15533   0.00000  Uiso   1.00
H662   H     0.54246   0.30207   0.07934   0.00000  Uiso   1.00
H663   H     0.35173   0.31387   0.29106   0.00000  Uiso   1.00
H664   H     0.30227   0.27532   0.29051   0.00000  Uiso   1.00
H665   H     0.30816   0.25914   0.37549   0.00000  Uiso   1.00
H666   H     0.35726   0.29737   0.37637   0.00000  Uiso   1.00
C667   C     0.63973   0.33085   0.61291   0.00000  Uiso   1.00
C668   C     0.61635   0.32869   0.62700   0.00000  Uiso   1.00
C669   C     0.59306   0.32664   0.61228   0.00000  Uiso   1.00
C670   C     0.57015   0.34559   0.64349   0.00000  Uiso   1.00
C671   C     0.56793   0.32333   0.62720   0.00000  Uiso   1.00
C672   C     0.54112   0.29918   0.62277   0.00000  Uiso   1.00
C673   C     0.51653   0.29802   0.63305   0.00000  Uiso   1.00
C674   C     0.51847   0.32124   0.64769   0.00000  Uiso   1.00
C675   C     0.54555   0.34466   0.65352   0.00000  Uiso   1.00
C676   C     0.49226   0.32188   0.65446   0.00000  Uiso   1.00
N677   N     0.49356   0.34585   0.66057   0.00000  Uiso   1.00
C678   C     0.47461   0.37592   0.67562   0.00000  Uiso   1.00
C679   C     0.46978   0.35043   0.66363   0.00000  Uiso   1.00
C680   C     0.44265   0.33160   0.65277   0.00000  Uiso   1.00
C681   C     0.42093   0.33832   0.65398   0.00000  Uiso   1.00
C682   C     0.42584   0.36397   0.66587   0.00000  Uiso   1.00
C683   C     0.45290   0.38271   0.67688   0.00000  Uiso   1.00
C684   C     0.35915   0.38556   0.66641   0.00000  Uiso   1.00
C685   C     0.42524   0.35693   0.37397   0.00000  Uiso   1.00
C686   C     0.40781   0.33262   0.35799   0.00000  Uiso   1.00
C687   C     0.40904   0.30759   0.36311   0.00000  Uiso   1.00
C688   C     0.42513   0.30618   0.38459   0.00000  Uiso   1.00
C689   C     0.44139   0.33008   0.40106   0.00000  Uiso   1.00
C690   C     0.44140   0.35550   0.39547   0.00000  Uiso   1.00
C691   C     0.47573   0.31618   0.42034   0.00000  Uiso   1.00
C692   C     0.45843   0.32852   0.42392   0.00000  Uiso   1.00
C693   C     0.45722   0.33913   0.44971   0.00000  Uiso   1.00
C694   C     0.47283   0.33733   0.47154   0.00000  Uiso   1.00
C695   C     0.49015   0.32502   0.46785   0.00000  Uiso   1.00
C696   C     0.49124   0.31435   0.44220   0.00000  Uiso   1.00
N697   N     0.50683   0.32267   0.48938   0.00000  Uiso   1.00
C698   C     0.51324   0.33601   0.51257   0.00000  Uiso   1.00
C699   C     0.57108   0.32799   0.56680   0.00000  Uiso   1.00
C700   C     0.59376   0.32746   0.58327   0.00000  Uiso   1.00
C701   C     0.61727   0.32925   0.56939   0.00000  Uiso   1.00
C702   C     0.63993   0.33088   0.58406   0.00000  Uiso   1.00
C703   C     0.55832   0.30867   0.54528   0.00000  Uiso   1.00
C704   C     0.53896   0.31077   0.52805   0.00000  Uiso   1.00
C705   C     0.53196   0.33228   0.53202   0.00000  Uiso   1.00
C706   C     0.56367   0.34910   0.57118   0.00000  Uiso   1.00
C707   C     0.54407   0.35110   0.55411   0.00000  Uiso   1.00
C708   C     0.37464   0.36514   0.35722   0.00000  Uiso   1.00
C709   C     0.36799   0.38694   0.35747   0.00000  Uiso   1.00
C710   C     0.37127   0.40289   0.33389   0.00000  Uiso   1.00
C711   C     0.38079   0.39629   0.30993   0.00000  Uiso   1.00
C712   C     0.38742   0.37449   0.30964   0.00000  Uiso   1.00
F713   F     0.45872   0.40810   0.68778   0.00000  Uiso   1.00
F714   F     0.36011   0.50504   0.72888   0.00000  Uiso   1.00
F715   F     0.84258   0.45092   0.03946   0.00000  Uiso   1.00
F716   F     0.79551   0.50096   0.10809   0.00000  Uiso   1.00
H717   H     0.61612   0.32830   0.64905   0.00000  Uiso   1.00
H718   H     0.59073   0.36436   0.64707   0.00000  Uiso   1.00
H719   H     0.53920   0.28178   0.61031   0.00000  Uiso   1.00
H720   H     0.54768   0.36273   0.66495   0.00000  Uiso   1.00
H721   H     0.47193   0.30252   0.65220   0.00000  Uiso   1.00
H722   H     0.49554   0.39086   0.68354   0.00000  Uiso   1.00
H723   H     0.43821   0.31213   0.64255   0.00000  Uiso   1.00
H724   H     0.40027   0.32354   0.64542   0.00000  Uiso   1.00
H725   H     0.42699   0.37733   0.36970   0.00000  Uiso   1.00
H726   H     0.39711   0.28885   0.35054   0.00000  Uiso   1.00
H727   H     0.42467   0.28626   0.38844   0.00000  Uiso   1.00
H728   H     0.45443   0.37448   0.40743   0.00000  Uiso   1.00
H729   H     0.44378   0.34841   0.45306   0.00000  Uiso   1.00
H730   H     0.47083   0.34519   0.49116   0.00000  Uiso   1.00
H731   H     0.50452   0.30487   0.43909   0.00000  Uiso   1.00
H732   H     0.50664   0.35137   0.51720   0.00000  Uiso   1.00
H733   H     0.61824   0.33007   0.54736   0.00000  Uiso   1.00
H734   H     0.56376   0.29223   0.54155   0.00000  Uiso   1.00
H735   H     0.52983   0.29581   0.51134   0.00000  Uiso   1.00
H736   H     0.57373   0.36460   0.58733   0.00000  Uiso   1.00
H737   H     0.37120   0.35280   0.37561   0.00000  Uiso   1.00
H738   H     0.36029   0.39135   0.37616   0.00000  Uiso   1.00
H739   H     0.38236   0.40753   0.29118   0.00000  Uiso   1.00
H740   H     0.39323   0.36930   0.29030   0.00000  Uiso   1.00
C741   C     0.30640   0.66418   0.94624   0.00000  Uiso   1.00
C742   C     0.28302   0.66202   0.96033   0.00000  Uiso   1.00
C743   C     0.25973   0.65997   0.94561   0.00000  Uiso   1.00
C744   C     0.23682   0.67892   0.97682   0.00000  Uiso   1.00
C745   C     0.23460   0.65666   0.96053   0.00000  Uiso   1.00
C746   C     0.20779   0.63251   0.95610   0.00000  Uiso   1.00
C747   C     0.18320   0.63135   0.96638   0.00000  Uiso   1.00
C748   C     0.18514   0.65457   0.98102   0.00000  Uiso   1.00
C749   C     0.21222   0.67799   0.98685   0.00000  Uiso   1.00
C750   C     0.15893   0.65521   0.98779   0.00000  Uiso   1.00
N751   N     0.16023   0.67918   0.99390   0.00000  Uiso   1.00
C752   C     0.14128   0.70925   0.00895   0.00000  Uiso   1.00
C753   C     0.13645   0.68376   0.99696   0.00000  Uiso   1.00
C754   C     0.10932   0.66493   0.98610   0.00000  Uiso   1.00
C755   C     0.08760   0.67165   0.98731   0.00000  Uiso   1.00
C756   C     0.09251   0.69730   0.99920   0.00000  Uiso   1.00
C757   C     0.11957   0.71604   0.01021   0.00000  Uiso   1.00
C758   C     0.02582   0.71889   0.99974   0.00000  Uiso   1.00
C759   C     0.09191   0.69026   0.70730   0.00000  Uiso   1.00
C760   C     0.07448   0.66595   0.69132   0.00000  Uiso   1.00
C761   C     0.07571   0.64092   0.69644   0.00000  Uiso   1.00
C762   C     0.09180   0.63951   0.71792   0.00000  Uiso   1.00
C763   C     0.10806   0.66341   0.73439   0.00000  Uiso   1.00
C764   C     0.10807   0.68883   0.72880   0.00000  Uiso   1.00
C765   C     0.14240   0.64951   0.75367   0.00000  Uiso   1.00
C766   C     0.12510   0.66185   0.75725   0.00000  Uiso   1.00
C767   C     0.12389   0.67246   0.78304   0.00000  Uiso   1.00
C768   C     0.13950   0.67066   0.80487   0.00000  Uiso   1.00
C769   C     0.15682   0.65835   0.80118   0.00000  Uiso   1.00
C770   C     0.15791   0.64768   0.77553   0.00000  Uiso   1.00
N771   N     0.17350   0.65600   0.82271   0.00000  Uiso   1.00
C772   C     0.17991   0.66934   0.84590   0.00000  Uiso   1.00
C773   C     0.23775   0.66132   0.90013   0.00000  Uiso   1.00
C774   C     0.26043   0.66079   0.91660   0.00000  Uiso   1.00
C775   C     0.28394   0.66258   0.90272   0.00000  Uiso   1.00
C776   C     0.30660   0.66421   0.91739   0.00000  Uiso   1.00
C777   C     0.22499   0.64200   0.87861   0.00000  Uiso   1.00
C778   C     0.20563   0.64410   0.86138   0.00000  Uiso   1.00
C779   C     0.19863   0.66561   0.86535   0.00000  Uiso   1.00
C780   C     0.23034   0.68243   0.90451   0.00000  Uiso   1.00
C781   C     0.21074   0.68443   0.88744   0.00000  Uiso   1.00
C782   C     0.04131   0.69847   0.69055   0.00000  Uiso   1.00
C783   C     0.03466   0.72027   0.69080   0.00000  Uiso   1.00
C784   C     0.03794   0.73622   0.66722   0.00000  Uiso   1.00
C785   C     0.04746   0.72962   0.64326   0.00000  Uiso   1.00
C786   C     0.05409   0.70782   0.64297   0.00000  Uiso   1.00
F787   F     0.12539   0.74143   0.02111   0.00000  Uiso   1.00
F788   F     0.02678   0.83837   0.06221   0.00000  Uiso   1.00
F789   F     0.50925   0.78425   0.37279   0.00000  Uiso   1.00
F790   F     0.46218   0.83429   0.44142   0.00000  Uiso   1.00
H791   H     0.28279   0.66163   0.98238   0.00000  Uiso   1.00
H792   H     0.25740   0.69769   0.98040   0.00000  Uiso   1.00
H793   H     0.20587   0.61511   0.94364   0.00000  Uiso   1.00
H794   H     0.21435   0.69606   0.99828   0.00000  Uiso   1.00
H795   H     0.13860   0.63585   0.98553   0.00000  Uiso   1.00
H796   H     0.16221   0.72419   0.01687   0.00000  Uiso   1.00
H797   H     0.10488   0.64546   0.97588   0.00000  Uiso   1.00
H798   H     0.06694   0.65687   0.97875   0.00000  Uiso   1.00
H799   H     0.09366   0.71066   0.70303   0.00000  Uiso   1.00
H800   H     0.06378   0.62218   0.68387   0.00000  Uiso   1.00
H801   H     0.09134   0.61959   0.72177   0.00000  Uiso   1.00
H802   H     0.12110   0.70781   0.74076   0.00000  Uiso   1.00
H803   H     0.11045   0.68174   0.78639   0.00000  Uiso   1.00
H804   H     0.13750   0.67852   0.82449   0.00000  Uiso   1.00
H805   H     0.17119   0.63820   0.77242   0.00000  Uiso   1.00
H806   H     0.17331   0.68470   0.85053   0.00000  Uiso   1.00
H807   H     0.28491   0.66340   0.88069   0.00000  Uiso   1.00
H808   H     0.23043   0.62556   0.87488   0.00000  Uiso   1.00
H809   H     0.19650   0.62914   0.84467   0.00000  Uiso   1.00
H810   H     0.24040   0.69793   0.92066   0.00000  Uiso   1.00
H811   H     0.03787   0.68613   0.70894   0.00000  Uiso   1.00
H812   H     0.02696   0.72468   0.70949   0.00000  Uiso   1.00
H813   H     0.04903   0.74086   0.62451   0.00000  Uiso   1.00
H814   H     0.05990   0.70263   0.62363   0.00000  Uiso   1.00
C815   C     0.97306   0.99752   0.27958   0.00000  Uiso   1.00
C816   C     0.94968   0.99536   0.29367   0.00000  Uiso   1.00
C817   C     0.92639   0.99331   0.27895   0.00000  Uiso   1.00
C818   C     0.90348   0.01226   0.31016   0.00000  Uiso   1.00
C819   C     0.90126   0.99000   0.29387   0.00000  Uiso   1.00
C820   C     0.87445   0.96585   0.28944   0.00000  Uiso   1.00
C821   C     0.84986   0.96469   0.29972   0.00000  Uiso   1.00
C822   C     0.85180   0.98791   0.31436   0.00000  Uiso   1.00
C823   C     0.87888   0.01133   0.32019   0.00000  Uiso   1.00
C824   C     0.82559   0.98855   0.32113   0.00000  Uiso   1.00
N825   N     0.82689   0.01252   0.32724   0.00000  Uiso   1.00
C826   C     0.80794   0.04259   0.34229   0.00000  Uiso   1.00
C827   C     0.80311   0.01710   0.33030   0.00000  Uiso   1.00
C828   C     0.77598   0.99827   0.31944   0.00000  Uiso   1.00
C829   C     0.75426   0.00499   0.32065   0.00000  Uiso   1.00
C830   C     0.75917   0.03064   0.33254   0.00000  Uiso   1.00
C831   C     0.78623   0.04938   0.34355   0.00000  Uiso   1.00
C832   C     0.69248   0.05223   0.33308   0.00000  Uiso   1.00
C833   C     0.75857   0.02360   0.04064   0.00000  Uiso   1.00
C834   C     0.74114   0.99929   0.02466   0.00000  Uiso   1.00
C835   C     0.74237   0.97426   0.02978   0.00000  Uiso   1.00
C836   C     0.75846   0.97285   0.05126   0.00000  Uiso   1.00
C837   C     0.77472   0.99675   0.06773   0.00000  Uiso   1.00
C838   C     0.77473   0.02217   0.06214   0.00000  Uiso   1.00
C839   C     0.80906   0.98285   0.08701   0.00000  Uiso   1.00
C840   C     0.79176   0.99519   0.09059   0.00000  Uiso   1.00
C841   C     0.79055   0.00580   0.11638   0.00000  Uiso   1.00
C842   C     0.80616   0.00400   0.13821   0.00000  Uiso   1.00
C843   C     0.82348   0.99169   0.13452   0.00000  Uiso   1.00
C844   C     0.82457   0.98102   0.10887   0.00000  Uiso   1.00
N845   N     0.84016   0.98934   0.15605   0.00000  Uiso   1.00
C846   C     0.84657   0.00268   0.17924   0.00000  Uiso   1.00
C847   C     0.90441   0.99466   0.23347   0.00000  Uiso   1.00
C848   C     0.92709   0.99413   0.24994   0.00000  Uiso   1.00
C849   C     0.95060   0.99592   0.23606   0.00000  Uiso   1.00
C850   C     0.97326   0.99755   0.25073   0.00000  Uiso   1.00
C851   C     0.89165   0.97534   0.21195   0.00000  Uiso   1.00
C852   C     0.87229   0.97744   0.19472   0.00000  Uiso   1.00
C853   C     0.86529   0.99895   0.19869   0.00000  Uiso   1.00
C854   C     0.89700   0.01577   0.23785   0.00000  Uiso   1.00
C855   C     0.87740   0.01777   0.22078   0.00000  Uiso   1.00
C856   C     0.70797   0.03181   0.02389   0.00000  Uiso   1.00
C857   C     0.70132   0.05361   0.02414   0.00000  Uiso   1.00
C858   C     0.70460   0.06956   0.00056   0.00000  Uiso   1.00
C859   C     0.71412   0.06296   0.97660   0.00000  Uiso   1.00
C860   C     0.72075   0.04116   0.97631   0.00000  Uiso   1.00
F861   F     0.79205   0.07477   0.35445   0.00000  Uiso   1.00
F862   F     0.69344   0.17171   0.39555   0.00000  Uiso   1.00
F863   F     0.17591   0.11759   0.70613   0.00000  Uiso   1.00
F864   F     0.12884   0.16763   0.77476   0.00000  Uiso   1.00
H865   H     0.94945   0.99497   0.31572   0.00000  Uiso   1.00
H866   H     0.92406   0.03103   0.31374   0.00000  Uiso   1.00
H867   H     0.87253   0.94845   0.27698   0.00000  Uiso   1.00
H868   H     0.88101   0.02940   0.33162   0.00000  Uiso   1.00
H869   H     0.80526   0.96919   0.31887   0.00000  Uiso   1.00
H870   H     0.82887   0.05753   0.35021   0.00000  Uiso   1.00
H871   H     0.77154   0.97880   0.30922   0.00000  Uiso   1.00
H872   H     0.73360   0.99021   0.31209   0.00000  Uiso   1.00
H873   H     0.76032   0.04400   0.03637   0.00000  Uiso   1.00
H874   H     0.73044   0.95552   0.01721   0.00000  Uiso   1.00
H875   H     0.75800   0.95293   0.05511   0.00000  Uiso   1.00
H876   H     0.78776   0.04115   0.07410   0.00000  Uiso   1.00
H877   H     0.77711   0.01508   0.11973   0.00000  Uiso   1.00
H878   H     0.80416   0.01186   0.15783   0.00000  Uiso   1.00
H879   H     0.83785   0.97154   0.10576   0.00000  Uiso   1.00
H880   H     0.83997   0.01804   0.18387   0.00000  Uiso   1.00
H881   H     0.95157   0.99674   0.21403   0.00000  Uiso   1.00
H882   H     0.89709   0.95890   0.20822   0.00000  Uiso   1.00
H883   H     0.86316   0.96248   0.17801   0.00000  Uiso   1.00
H884   H     0.90706   0.03127   0.25400   0.00000  Uiso   1.00
H885   H     0.70453   0.01947   0.04228   0.00000  Uiso   1.00
H886   H     0.69362   0.05802   0.04283   0.00000  Uiso   1.00
H887   H     0.71569   0.07420   0.95785   0.00000  Uiso   1.00
H888   H     0.72656   0.03597   0.95697   0.00000  Uiso   1.00
C889   C     0.69112   0.36027   0.61291   0.00000  Uiso   1.00
C890   C     0.71234   0.38365   0.62700   0.00000  Uiso   1.00
C891   C     0.73358   0.40694   0.61228   0.00000  Uiso   1.00
C892   C     0.77544   0.42985   0.64349   0.00000  Uiso   1.00
C893   C     0.75540   0.43207   0.62720   0.00000  Uiso   1.00
C894   C     0.75806   0.45888   0.62277   0.00000  Uiso   1.00
C895   C     0.78149   0.48347   0.63305   0.00000  Uiso   1.00
C896   C     0.80277   0.48153   0.64769   0.00000  Uiso   1.00
C897   C     0.79911   0.45445   0.65352   0.00000  Uiso   1.00
C898   C     0.82962   0.50774   0.65446   0.00000  Uiso   1.00
N899   N     0.85229   0.50644   0.66057   0.00000  Uiso   1.00
C900   C     0.90131   0.52539   0.67562   0.00000  Uiso   1.00
C901   C     0.88065   0.53022   0.66363   0.00000  Uiso   1.00
C902   C     0.88895   0.55735   0.65277   0.00000  Uiso   1.00
C903   C     0.91739   0.57907   0.65398   0.00000  Uiso   1.00
C904   C     0.93813   0.57416   0.66587   0.00000  Uiso   1.00
C905   C     0.92981   0.54710   0.67688   0.00000  Uiso   1.00
C906   C     0.02641   0.64085   0.66641   0.00000  Uiso   1.00
C907   C     0.93169   0.57476   0.37397   0.00000  Uiso   1.00
C908   C     0.92481   0.59219   0.35799   0.00000  Uiso   1.00
C909   C     0.89855   0.59096   0.36311   0.00000  Uiso   1.00
C910   C     0.88105   0.57487   0.38459   0.00000  Uiso   1.00
C911   C     0.88869   0.55861   0.40106   0.00000  Uiso   1.00
C912   C     0.91410   0.55860   0.39547   0.00000  Uiso   1.00
C913   C     0.84045   0.52427   0.42034   0.00000  Uiso   1.00
C914   C     0.87009   0.54157   0.42392   0.00000  Uiso   1.00
C915   C     0.88191   0.54278   0.44971   0.00000  Uiso   1.00
C916   C     0.86450   0.52717   0.47154   0.00000  Uiso   1.00
C917   C     0.83487   0.50985   0.46785   0.00000  Uiso   1.00
C918   C     0.82311   0.50876   0.44220   0.00000  Uiso   1.00
N919   N     0.81584   0.49317   0.48938   0.00000  Uiso   1.00
C920   C     0.82277   0.48676   0.51257   0.00000  Uiso   1.00
C921   C     0.75691   0.42892   0.56680   0.00000  Uiso   1.00
C922   C     0.73370   0.40624   0.58327   0.00000  Uiso   1.00
C923   C     0.71198   0.38273   0.56939   0.00000  Uiso   1.00
C924   C     0.69095   0.36007   0.58406   0.00000  Uiso   1.00
C925   C     0.75035   0.44168   0.54528   0.00000  Uiso   1.00
C926   C     0.77181   0.46104   0.52805   0.00000  Uiso   1.00
C927   C     0.80032   0.46804   0.53202   0.00000  Uiso   1.00
C928   C     0.78543   0.43633   0.57118   0.00000  Uiso   1.00
C929   C     0.80703   0.45593   0.55411   0.00000  Uiso   1.00
C930   C     0.99050   0.62536   0.35722   0.00000  Uiso   1.00
C931   C     0.01895   0.63201   0.35747   0.00000  Uiso   1.00
C932   C     0.03162   0.62873   0.33389   0.00000  Uiso   1.00
C933   C     0.01550   0.61921   0.30993   0.00000  Uiso   1.00
C934   C     0.98707   0.61258   0.30964   0.00000  Uiso   1.00
F935   F     0.94938   0.54128   0.68778   0.00000  Uiso   1.00
F936   F     0.14493   0.63989   0.72888   0.00000  Uiso   1.00
F937   F     0.60834   0.15742   0.03946   0.00000  Uiso   1.00
F938   F     0.70545   0.20449   0.10809   0.00000  Uiso   1.00
H939   H     0.71218   0.38388   0.64905   0.00000  Uiso   1.00
H940   H     0.77363   0.40927   0.64707   0.00000  Uiso   1.00
H941   H     0.74258   0.46080   0.61031   0.00000  Uiso   1.00
H942   H     0.81505   0.45232   0.66495   0.00000  Uiso   1.00
H943   H     0.83059   0.52807   0.65220   0.00000  Uiso   1.00
H944   H     0.89532   0.50446   0.68354   0.00000  Uiso   1.00
H945   H     0.87392   0.56179   0.64255   0.00000  Uiso   1.00
H946   H     0.92327   0.59973   0.64542   0.00000  Uiso   1.00
H947   H     0.95034   0.57301   0.36970   0.00000  Uiso   1.00
H948   H     0.89174   0.60289   0.35054   0.00000  Uiso   1.00
H949   H     0.86159   0.57533   0.38844   0.00000  Uiso   1.00
H950   H     0.92005   0.54557   0.40743   0.00000  Uiso   1.00
H951   H     0.90463   0.55622   0.45306   0.00000  Uiso   1.00
H952   H     0.87436   0.52917   0.49116   0.00000  Uiso   1.00
H953   H     0.80035   0.49548   0.43909   0.00000  Uiso   1.00
H954   H     0.84473   0.49336   0.51720   0.00000  Uiso   1.00
H955   H     0.71183   0.38176   0.54736   0.00000  Uiso   1.00
H956   H     0.72847   0.43624   0.54155   0.00000  Uiso   1.00
H957   H     0.76598   0.47017   0.51134   0.00000  Uiso   1.00
H958   H     0.79087   0.42627   0.58733   0.00000  Uiso   1.00
H959   H     0.98160   0.62880   0.37561   0.00000  Uiso   1.00
H960   H     0.03106   0.63971   0.37616   0.00000  Uiso   1.00
H961   H     0.02517   0.61764   0.29118   0.00000  Uiso   1.00
H962   H     0.97607   0.60677   0.29030   0.00000  Uiso   1.00
C963   C     0.35779   0.69360   0.94624   0.00000  Uiso   1.00
C964   C     0.37901   0.71698   0.96033   0.00000  Uiso   1.00
C965   C     0.40025   0.74027   0.94561   0.00000  Uiso   1.00
C966   C     0.44211   0.76318   0.97682   0.00000  Uiso   1.00
C967   C     0.42207   0.76540   0.96053   0.00000  Uiso   1.00
C968   C     0.42473   0.79221   0.95610   0.00000  Uiso   1.00
C969   C     0.44816   0.81680   0.96638   0.00000  Uiso   1.00
C970   C     0.46944   0.81486   0.98102   0.00000  Uiso   1.00
C971   C     0.46578   0.78778   0.98685   0.00000  Uiso   1.00
C972   C     0.49629   0.84107   0.98779   0.00000  Uiso   1.00
N973   N     0.51896   0.83977   0.99390   0.00000  Uiso   1.00
C974   C     0.56798   0.85872   0.00895   0.00000  Uiso   1.00
C975   C     0.54732   0.86355   0.99696   0.00000  Uiso   1.00
C976   C     0.55562   0.89068   0.98610   0.00000  Uiso   1.00
C977   C     0.58406   0.91240   0.98731   0.00000  Uiso   1.00
C978   C     0.60480   0.90749   0.99920   0.00000  Uiso   1.00
C979   C     0.59648   0.88043   0.01021   0.00000  Uiso   1.00
C980   C     0.69308   0.97418   0.99974   0.00000  Uiso   1.00
C981   C     0.59836   0.90809   0.70730   0.00000  Uiso   1.00
C982   C     0.59148   0.92552   0.69132   0.00000  Uiso   1.00
C983   C     0.56522   0.92429   0.69644   0.00000  Uiso   1.00
C984   C     0.54772   0.90820   0.71792   0.00000  Uiso   1.00
C985   C     0.55536   0.89194   0.73439   0.00000  Uiso   1.00
C986   C     0.58077   0.89193   0.72880   0.00000  Uiso   1.00
C987   C     0.50712   0.85760   0.75367   0.00000  Uiso   1.00
C988   C     0.53676   0.87490   0.75725   0.00000  Uiso   1.00
C989   C     0.54858   0.87611   0.78304   0.00000  Uiso   1.00
C990   C     0.53117   0.86050   0.80487   0.00000  Uiso   1.00
C991   C     0.50154   0.84318   0.80118   0.00000  Uiso   1.00
C992   C     0.48978   0.84209   0.77553   0.00000  Uiso   1.00
N993   N     0.48251   0.82650   0.82271   0.00000  Uiso   1.00
C994   C     0.48944   0.82009   0.84590   0.00000  Uiso   1.00
C995   C     0.42358   0.76225   0.90013   0.00000  Uiso   1.00
C996   C     0.40037   0.73957   0.91660   0.00000  Uiso   1.00
C997   C     0.37865   0.71606   0.90272   0.00000  Uiso   1.00
C998   C     0.35762   0.69340   0.91739   0.00000  Uiso   1.00
C999   C     0.41702   0.77501   0.87861   0.00000  Uiso   1.00
C1000  C     0.43848   0.79437   0.86138   0.00000  Uiso   1.00
C1001  C     0.46699   0.80137   0.86535   0.00000  Uiso   1.00
C1002  C     0.45210   0.76966   0.90451   0.00000  Uiso   1.00
C1003  C     0.47370   0.78926   0.88744   0.00000  Uiso   1.00
C1004  C     0.65717   0.95869   0.69055   0.00000  Uiso   1.00
C1005  C     0.68562   0.96534   0.69080   0.00000  Uiso   1.00
C1006  C     0.69829   0.96206   0.66722   0.00000  Uiso   1.00
C1007  C     0.68217   0.95254   0.64326   0.00000  Uiso   1.00
C1008  C     0.65374   0.94591   0.64297   0.00000  Uiso   1.00
F1009  F     0.61605   0.87461   0.02111   0.00000  Uiso   1.00
F1010  F     0.81160   0.97322   0.06221   0.00000  Uiso   1.00
F1011  F     0.27501   0.49075   0.37279   0.00000  Uiso   1.00
F1012  F     0.37212   0.53782   0.44142   0.00000  Uiso   1.00
H1013  H     0.37885   0.71721   0.98238   0.00000  Uiso   1.00
H1014  H     0.44030   0.74260   0.98040   0.00000  Uiso   1.00
H1015  H     0.40925   0.79413   0.94364   0.00000  Uiso   1.00
H1016  H     0.48172   0.78565   0.99828   0.00000  Uiso   1.00
H1017  H     0.49726   0.86140   0.98553   0.00000  Uiso   1.00
H1018  H     0.56199   0.83779   0.01687   0.00000  Uiso   1.00
H1019  H     0.54059   0.89512   0.97588   0.00000  Uiso   1.00
H1020  H     0.58994   0.93306   0.97875   0.00000  Uiso   1.00
H1021  H     0.61701   0.90634   0.70303   0.00000  Uiso   1.00
H1022  H     0.55841   0.93622   0.68387   0.00000  Uiso   1.00
H1023  H     0.52826   0.90866   0.72177   0.00000  Uiso   1.00
H1024  H     0.58672   0.87890   0.74076   0.00000  Uiso   1.00
H1025  H     0.57130   0.88955   0.78639   0.00000  Uiso   1.00
H1026  H     0.54103   0.86250   0.82449   0.00000  Uiso   1.00
H1027  H     0.46702   0.82881   0.77242   0.00000  Uiso   1.00
H1028  H     0.51140   0.82669   0.85053   0.00000  Uiso   1.00
H1029  H     0.37850   0.71509   0.88069   0.00000  Uiso   1.00
H1030  H     0.39514   0.76957   0.87488   0.00000  Uiso   1.00
H1031  H     0.43265   0.80350   0.84467   0.00000  Uiso   1.00
H1032  H     0.45754   0.75960   0.92066   0.00000  Uiso   1.00
H1033  H     0.64827   0.96213   0.70894   0.00000  Uiso   1.00
H1034  H     0.69773   0.97304   0.70949   0.00000  Uiso   1.00
H1035  H     0.69184   0.95097   0.62451   0.00000  Uiso   1.00
H1036  H     0.64274   0.94010   0.62363   0.00000  Uiso   1.00
C1037  C     0.02445   0.02694   0.27958   0.00000  Uiso   1.00
C1038  C     0.04567   0.05032   0.29367   0.00000  Uiso   1.00
C1039  C     0.06691   0.07361   0.27895   0.00000  Uiso   1.00
C1040  C     0.10877   0.09652   0.31016   0.00000  Uiso   1.00
C1041  C     0.08873   0.09874   0.29387   0.00000  Uiso   1.00
C1042  C     0.09139   0.12555   0.28944   0.00000  Uiso   1.00
C1043  C     0.11482   0.15014   0.29972   0.00000  Uiso   1.00
C1044  C     0.13610   0.14820   0.31436   0.00000  Uiso   1.00
C1045  C     0.13244   0.12112   0.32019   0.00000  Uiso   1.00
C1046  C     0.16295   0.17441   0.32113   0.00000  Uiso   1.00
N1047  N     0.18562   0.17311   0.32724   0.00000  Uiso   1.00
C1048  C     0.23464   0.19206   0.34229   0.00000  Uiso   1.00
C1049  C     0.21398   0.19689   0.33030   0.00000  Uiso   1.00
C1050  C     0.22228   0.22402   0.31944   0.00000  Uiso   1.00
C1051  C     0.25072   0.24574   0.32065   0.00000  Uiso   1.00
C1052  C     0.27146   0.24083   0.33254   0.00000  Uiso   1.00
C1053  C     0.26314   0.21377   0.34355   0.00000  Uiso   1.00
C1054  C     0.35974   0.30752   0.33308   0.00000  Uiso   1.00
C1055  C     0.26502   0.24143   0.04064   0.00000  Uiso   1.00
C1056  C     0.25814   0.25886   0.02466   0.00000  Uiso   1.00
C1057  C     0.23188   0.25763   0.02978   0.00000  Uiso   1.00
C1058  C     0.21438   0.24154   0.05126   0.00000  Uiso   1.00
C1059  C     0.22202   0.22528   0.06773   0.00000  Uiso   1.00
C1060  C     0.24743   0.22527   0.06214   0.00000  Uiso   1.00
C1061  C     0.17378   0.19094   0.08701   0.00000  Uiso   1.00
C1062  C     0.20342   0.20824   0.09059   0.00000  Uiso   1.00
C1063  C     0.21524   0.20945   0.11638   0.00000  Uiso   1.00
C1064  C     0.19783   0.19384   0.13821   0.00000  Uiso   1.00
C1065  C     0.16820   0.17652   0.13452   0.00000  Uiso   1.00
C1066  C     0.15644   0.17543   0.10887   0.00000  Uiso   1.00
N1067  N     0.14917   0.15984   0.15605   0.00000  Uiso   1.00
C1068  C     0.15610   0.15343   0.17924   0.00000  Uiso   1.00
C1069  C     0.09024   0.09559   0.23347   0.00000  Uiso   1.00
C1070  C     0.06703   0.07291   0.24994   0.00000  Uiso   1.00
C1071  C     0.04531   0.04940   0.23606   0.00000  Uiso   1.00
C1072  C     0.02428   0.02674   0.25073   0.00000  Uiso   1.00
C1073  C     0.08368   0.10835   0.21195   0.00000  Uiso   1.00
C1074  C     0.10514   0.12771   0.19472   0.00000  Uiso   1.00
C1075  C     0.13365   0.13471   0.19869   0.00000  Uiso   1.00
C1076  C     0.11876   0.10300   0.23785   0.00000  Uiso   1.00
C1077  C     0.14036   0.12260   0.22078   0.00000  Uiso   1.00
C1078  C     0.32383   0.29203   0.02389   0.00000  Uiso   1.00
C1079  C     0.35228   0.29868   0.02414   0.00000  Uiso   1.00
C1080  C     0.36495   0.29540   0.00056   0.00000  Uiso   1.00
C1081  C     0.34883   0.28588   0.97660   0.00000  Uiso   1.00
C1082  C     0.32040   0.27925   0.97631   0.00000  Uiso   1.00
F1083  F     0.28271   0.20795   0.35445   0.00000  Uiso   1.00
F1084  F     0.47826   0.30656   0.39555   0.00000  Uiso   1.00
F1085  F     0.94167   0.82409   0.70613   0.00000  Uiso   1.00
F1086  F     0.03878   0.87116   0.77476   0.00000  Uiso   1.00
H1087  H     0.04551   0.05055   0.31572   0.00000  Uiso   1.00
H1088  H     0.10696   0.07594   0.31374   0.00000  Uiso   1.00
H1089  H     0.07591   0.12747   0.27698   0.00000  Uiso   1.00
H1090  H     0.14838   0.11899   0.33162   0.00000  Uiso   1.00
H1091  H     0.16392   0.19474   0.31887   0.00000  Uiso   1.00
H1092  H     0.22865   0.17113   0.35021   0.00000  Uiso   1.00
H1093  H     0.20725   0.22846   0.30922   0.00000  Uiso   1.00
H1094  H     0.25660   0.26640   0.31209   0.00000  Uiso   1.00
H1095  H     0.28367   0.23968   0.03637   0.00000  Uiso   1.00
H1096  H     0.22507   0.26956   0.01721   0.00000  Uiso   1.00
H1097  H     0.19492   0.24200   0.05511   0.00000  Uiso   1.00
H1098  H     0.25338   0.21224   0.07410   0.00000  Uiso   1.00
H1099  H     0.23796   0.22289   0.11973   0.00000  Uiso   1.00
H1100  H     0.20769   0.19584   0.15783   0.00000  Uiso   1.00
H1101  H     0.13368   0.16215   0.10576   0.00000  Uiso   1.00
H1102  H     0.17806   0.16003   0.18387   0.00000  Uiso   1.00
H1103  H     0.04516   0.04843   0.21403   0.00000  Uiso   1.00
H1104  H     0.06180   0.10291   0.20822   0.00000  Uiso   1.00
H1105  H     0.09931   0.13684   0.17801   0.00000  Uiso   1.00
H1106  H     0.12420   0.09294   0.25400   0.00000  Uiso   1.00
H1107  H     0.31493   0.29547   0.04228   0.00000  Uiso   1.00
H1108  H     0.36439   0.30638   0.04283   0.00000  Uiso   1.00
H1109  H     0.35850   0.28431   0.95785   0.00000  Uiso   1.00
H1110  H     0.30940   0.27344   0.95697   0.00000  Uiso   1.00
C1111  C     0.66915   0.30888   0.61291   0.00000  Uiso   1.00
C1112  C     0.67131   0.28766   0.62700   0.00000  Uiso   1.00
C1113  C     0.67336   0.26642   0.61228   0.00000  Uiso   1.00
C1114  C     0.65441   0.22456   0.64349   0.00000  Uiso   1.00
C1115  C     0.67667   0.24460   0.62720   0.00000  Uiso   1.00
C1116  C     0.70082   0.24194   0.62277   0.00000  Uiso   1.00
C1117  C     0.70198   0.21851   0.63305   0.00000  Uiso   1.00
C1118  C     0.67876   0.19723   0.64769   0.00000  Uiso   1.00
C1119  C     0.65534   0.20089   0.65352   0.00000  Uiso   1.00
C1120  C     0.67812   0.17038   0.65446   0.00000  Uiso   1.00
N1121  N     0.65415   0.14771   0.66057   0.00000  Uiso   1.00
C1122  C     0.62408   0.09869   0.67562   0.00000  Uiso   1.00
C1123  C     0.64957   0.11935   0.66363   0.00000  Uiso   1.00
C1124  C     0.66840   0.11105   0.65277   0.00000  Uiso   1.00
C1125  C     0.66168   0.08261   0.65398   0.00000  Uiso   1.00
C1126  C     0.63603   0.06187   0.66587   0.00000  Uiso   1.00
C1127  C     0.61729   0.07019   0.67688   0.00000  Uiso   1.00
C1128  C     0.61444   0.97359   0.66641   0.00000  Uiso   1.00
C1129  C     0.64307   0.06831   0.37397   0.00000  Uiso   1.00
C1130  C     0.66738   0.07519   0.35799   0.00000  Uiso   1.00
C1131  C     0.69241   0.10145   0.36311   0.00000  Uiso   1.00
C1132  C     0.69382   0.11895   0.38459   0.00000  Uiso   1.00
C1133  C     0.66992   0.11131   0.40106   0.00000  Uiso   1.00
C1134  C     0.64450   0.08590   0.39547   0.00000  Uiso   1.00
C1135  C     0.68382   0.15955   0.42034   0.00000  Uiso   1.00
C1136  C     0.67148   0.12991   0.42392   0.00000  Uiso   1.00
C1137  C     0.66087   0.11809   0.44971   0.00000  Uiso   1.00
C1138  C     0.66267   0.13550   0.47154   0.00000  Uiso   1.00
C1139  C     0.67498   0.16513   0.46785   0.00000  Uiso   1.00
C1140  C     0.68565   0.17689   0.44220   0.00000  Uiso   1.00
N1141  N     0.67733   0.18416   0.48938   0.00000  Uiso   1.00
C1142  C     0.66399   0.17723   0.51257   0.00000  Uiso   1.00
C1143  C     0.67201   0.24309   0.56680   0.00000  Uiso   1.00
C1144  C     0.67254   0.26630   0.58327   0.00000  Uiso   1.00
C1145  C     0.67075   0.28802   0.56939   0.00000  Uiso   1.00
C1146  C     0.66912   0.30905   0.58406   0.00000  Uiso   1.00
C1147  C     0.69133   0.24965   0.54528   0.00000  Uiso   1.00
C1148  C     0.68923   0.22819   0.52805   0.00000  Uiso   1.00
C1149  C     0.66772   0.19968   0.53202   0.00000  Uiso   1.00
C1150  C     0.65090   0.21457   0.57118   0.00000  Uiso   1.00
C1151  C     0.64890   0.19297   0.55411   0.00000  Uiso   1.00
C1152  C     0.63486   0.00950   0.35722   0.00000  Uiso   1.00
C1153  C     0.61306   0.98105   0.35747   0.00000  Uiso   1.00
C1154  C     0.59711   0.96838   0.33389   0.00000  Uiso   1.00
C1155  C     0.60371   0.98450   0.30993   0.00000  Uiso   1.00
C1156  C     0.62551   0.01293   0.30964   0.00000  Uiso   1.00
F1157  F     0.59190   0.05062   0.68778   0.00000  Uiso   1.00
F1158  F     0.49496   0.85507   0.72888   0.00000  Uiso   1.00
F1159  F     0.54908   0.39166   0.03946   0.00000  Uiso   1.00
F1160  F     0.49904   0.29455   0.10809   0.00000  Uiso   1.00
H1161  H     0.67170   0.28782   0.64905   0.00000  Uiso   1.00
H1162  H     0.63564   0.22637   0.64707   0.00000  Uiso   1.00
H1163  H     0.71822   0.25742   0.61031   0.00000  Uiso   1.00
H1164  H     0.63727   0.18495   0.66495   0.00000  Uiso   1.00
H1165  H     0.69748   0.16941   0.65220   0.00000  Uiso   1.00
H1166  H     0.60914   0.10468   0.68354   0.00000  Uiso   1.00
H1167  H     0.68787   0.12608   0.64255   0.00000  Uiso   1.00
H1168  H     0.67646   0.07673   0.64542   0.00000  Uiso   1.00
H1169  H     0.62267   0.04966   0.36970   0.00000  Uiso   1.00
H1170  H     0.71115   0.10826   0.35054   0.00000  Uiso   1.00
H1171  H     0.71374   0.13841   0.38844   0.00000  Uiso   1.00
H1172  H     0.62552   0.07995   0.40743   0.00000  Uiso   1.00
H1173  H     0.65159   0.09537   0.45306   0.00000  Uiso   1.00
H1174  H     0.65481   0.12564   0.49116   0.00000  Uiso   1.00
H1175  H     0.69513   0.19965   0.43909   0.00000  Uiso   1.00
H1176  H     0.64863   0.15527   0.51720   0.00000  Uiso   1.00
H1177  H     0.66993   0.28817   0.54736   0.00000  Uiso   1.00
H1178  H     0.70777   0.27153   0.54155   0.00000  Uiso   1.00
H1179  H     0.70419   0.23402   0.51134   0.00000  Uiso   1.00
H1180  H     0.63540   0.20913   0.58733   0.00000  Uiso   1.00
H1181  H     0.64720   0.01840   0.37561   0.00000  Uiso   1.00
H1182  H     0.60865   0.96894   0.37616   0.00000  Uiso   1.00
H1183  H     0.59247   0.97483   0.29118   0.00000  Uiso   1.00
H1184  H     0.63070   0.02393   0.29030   0.00000  Uiso   1.00
C1185  C     0.33582   0.64221   0.94624   0.00000  Uiso   1.00
C1186  C     0.33798   0.62099   0.96033   0.00000  Uiso   1.00
C1187  C     0.34003   0.59975   0.94561   0.00000  Uiso   1.00
C1188  C     0.32108   0.55789   0.97682   0.00000  Uiso   1.00
C1189  C     0.34334   0.57793   0.96053   0.00000  Uiso   1.00
C1190  C     0.36749   0.57527   0.95610   0.00000  Uiso   1.00
C1191  C     0.36865   0.55184   0.96638   0.00000  Uiso   1.00
C1192  C     0.34543   0.53056   0.98102   0.00000  Uiso   1.00
C1193  C     0.32201   0.53422   0.98685   0.00000  Uiso   1.00
C1194  C     0.34479   0.50371   0.98779   0.00000  Uiso   1.00
N1195  N     0.32082   0.48104   0.99390   0.00000  Uiso   1.00
C1196  C     0.29075   0.43202   0.00895   0.00000  Uiso   1.00
C1197  C     0.31624   0.45268   0.99696   0.00000  Uiso   1.00
C1198  C     0.33507   0.44438   0.98610   0.00000  Uiso   1.00
C1199  C     0.32835   0.41594   0.98731   0.00000  Uiso   1.00
C1200  C     0.30270   0.39520   0.99920   0.00000  Uiso   1.00
C1201  C     0.28396   0.40352   0.01021   0.00000  Uiso   1.00
C1202  C     0.28111   0.30692   0.99974   0.00000  Uiso   1.00
C1203  C     0.30974   0.40164   0.70730   0.00000  Uiso   1.00
C1204  C     0.33405   0.40852   0.69132   0.00000  Uiso   1.00
C1205  C     0.35908   0.43478   0.69644   0.00000  Uiso   1.00
C1206  C     0.36049   0.45228   0.71792   0.00000  Uiso   1.00
C1207  C     0.33659   0.44464   0.73439   0.00000  Uiso   1.00
C1208  C     0.31117   0.41923   0.72880   0.00000  Uiso   1.00
C1209  C     0.35049   0.49288   0.75367   0.00000  Uiso   1.00
C1210  C     0.33815   0.46324   0.75725   0.00000  Uiso   1.00
C1211  C     0.32754   0.45142   0.78304   0.00000  Uiso   1.00
C1212  C     0.32934   0.46883   0.80487   0.00000  Uiso   1.00
C1213  C     0.34165   0.49846   0.80118   0.00000  Uiso   1.00
C1214  C     0.35232   0.51022   0.77553   0.00000  Uiso   1.00
N1215  N     0.34400   0.51749   0.82271   0.00000  Uiso   1.00
C1216  C     0.33066   0.51056   0.84590   0.00000  Uiso   1.00
C1217  C     0.33868   0.57642   0.90013   0.00000  Uiso   1.00
C1218  C     0.33921   0.59963   0.91660   0.00000  Uiso   1.00
C1219  C     0.33742   0.62135   0.90272   0.00000  Uiso   1.00
C1220  C     0.33579   0.64238   0.91739   0.00000  Uiso   1.00
C1221  C     0.35800   0.58298   0.87861   0.00000  Uiso   1.00
C1222  C     0.35590   0.56152   0.86138   0.00000  Uiso   1.00
C1223  C     0.33439   0.53301   0.86535   0.00000  Uiso   1.00
C1224  C     0.31757   0.54790   0.90451   0.00000  Uiso   1.00
C1225  C     0.31557   0.52630   0.88744   0.00000  Uiso   1.00
C1226  C     0.30153   0.34283   0.69055   0.00000  Uiso   1.00
C1227  C     0.27973   0.31438   0.69080   0.00000  Uiso   1.00
C1228  C     0.26378   0.30171   0.66722   0.00000  Uiso   1.00
C1229  C     0.27038   0.31783   0.64326   0.00000  Uiso   1.00
C1230  C     0.29218   0.34626   0.64297   0.00000  Uiso   1.00
F1231  F     0.25857   0.38395   0.02111   0.00000  Uiso   1.00
F1232  F     0.16163   0.18840   0.06221   0.00000  Uiso   1.00
F1233  F     0.21575   0.72499   0.37279   0.00000  Uiso   1.00
F1234  F     0.16571   0.62788   0.44142   0.00000  Uiso   1.00
H1235  H     0.33837   0.62115   0.98238   0.00000  Uiso   1.00
H1236  H     0.30231   0.55970   0.98040   0.00000  Uiso   1.00
H1237  H     0.38489   0.59075   0.94364   0.00000  Uiso   1.00
H1238  H     0.30394   0.51828   0.99828   0.00000  Uiso   1.00
H1239  H     0.36415   0.50274   0.98553   0.00000  Uiso   1.00
H1240  H     0.27581   0.43801   0.01687   0.00000  Uiso   1.00
H1241  H     0.35454   0.45941   0.97588   0.00000  Uiso   1.00
H1242  H     0.34313   0.41006   0.97875   0.00000  Uiso   1.00
H1243  H     0.28934   0.38299   0.70303   0.00000  Uiso   1.00
H1244  H     0.37782   0.44159   0.68387   0.00000  Uiso   1.00
H1245  H     0.38041   0.47174   0.72177   0.00000  Uiso   1.00
H1246  H     0.29219   0.41328   0.74076   0.00000  Uiso   1.00
H1247  H     0.31826   0.42870   0.78639   0.00000  Uiso   1.00
H1248  H     0.32148   0.45897   0.82449   0.00000  Uiso   1.00
H1249  H     0.36180   0.53298   0.77242   0.00000  Uiso   1.00
H1250  H     0.31530   0.48860   0.85053   0.00000  Uiso   1.00
H1251  H     0.33660   0.62150   0.88069   0.00000  Uiso   1.00
H1252  H     0.37444   0.60486   0.87488   0.00000  Uiso   1.00
H1253  H     0.37086   0.56735   0.84467   0.00000  Uiso   1.00
H1254  H     0.30207   0.54246   0.92066   0.00000  Uiso   1.00
H1255  H     0.31387   0.35173   0.70894   0.00000  Uiso   1.00
H1256  H     0.27532   0.30227   0.70949   0.00000  Uiso   1.00
H1257  H     0.25914   0.30816   0.62451   0.00000  Uiso   1.00
H1258  H     0.29737   0.35726   0.62363   0.00000  Uiso   1.00
C1259  C     0.00248   0.97555   0.27958   0.00000  Uiso   1.00
C1260  C     0.00464   0.95433   0.29367   0.00000  Uiso   1.00
C1261  C     0.00669   0.93309   0.27895   0.00000  Uiso   1.00
C1262  C     0.98774   0.89123   0.31016   0.00000  Uiso   1.00
C1263  C     0.01000   0.91127   0.29387   0.00000  Uiso   1.00
C1264  C     0.03415   0.90861   0.28944   0.00000  Uiso   1.00
C1265  C     0.03531   0.88518   0.29972   0.00000  Uiso   1.00
C1266  C     0.01209   0.86390   0.31436   0.00000  Uiso   1.00
C1267  C     0.98867   0.86756   0.32019   0.00000  Uiso   1.00
C1268  C     0.01145   0.83705   0.32113   0.00000  Uiso   1.00
N1269  N     0.98748   0.81438   0.32724   0.00000  Uiso   1.00
C1270  C     0.95741   0.76536   0.34229   0.00000  Uiso   1.00
C1271  C     0.98290   0.78602   0.33030   0.00000  Uiso   1.00
C1272  C     0.00173   0.77772   0.31944   0.00000  Uiso   1.00
C1273  C     0.99501   0.74928   0.32065   0.00000  Uiso   1.00
C1274  C     0.96936   0.72854   0.33254   0.00000  Uiso   1.00
C1275  C     0.95062   0.73686   0.34355   0.00000  Uiso   1.00
C1276  C     0.94777   0.64026   0.33308   0.00000  Uiso   1.00
C1277  C     0.97640   0.73498   0.04064   0.00000  Uiso   1.00
C1278  C     0.00071   0.74186   0.02466   0.00000  Uiso   1.00
C1279  C     0.02574   0.76812   0.02978   0.00000  Uiso   1.00
C1280  C     0.02715   0.78562   0.05126   0.00000  Uiso   1.00
C1281  C     0.00325   0.77798   0.06773   0.00000  Uiso   1.00
C1282  C     0.97783   0.75257   0.06214   0.00000  Uiso   1.00
C1283  C     0.01715   0.82622   0.08701   0.00000  Uiso   1.00
C1284  C     0.00481   0.79658   0.09059   0.00000  Uiso   1.00
C1285  C     0.99420   0.78476   0.11638   0.00000  Uiso   1.00
C1286  C     0.99600   0.80217   0.13821   0.00000  Uiso   1.00
C1287  C     0.00831   0.83180   0.13452   0.00000  Uiso   1.00
C1288  C     0.01898   0.84356   0.10887   0.00000  Uiso   1.00
N1289  N     0.01066   0.85083   0.15605   0.00000  Uiso   1.00
C1290  C     0.99732   0.84390   0.17924   0.00000  Uiso   1.00
C1291  C     0.00534   0.90976   0.23347   0.00000  Uiso   1.00
C1292  C     0.00587   0.93297   0.24994   0.00000  Uiso   1.00
C1293  C     0.00408   0.95469   0.23606   0.00000  Uiso   1.00
C1294  C     0.00245   0.97572   0.25073   0.00000  Uiso   1.00
C1295  C     0.02466   0.91632   0.21195   0.00000  Uiso   1.00
C1296  C     0.02256   0.89486   0.19472   0.00000  Uiso   1.00
C1297  C     0.00105   0.86635   0.19869   0.00000  Uiso   1.00
C1298  C     0.98423   0.88124   0.23785   0.00000  Uiso   1.00
C1299  C     0.98223   0.85964   0.22078   0.00000  Uiso   1.00
C1300  C     0.96819   0.67617   0.02389   0.00000  Uiso   1.00
C1301  C     0.94639   0.64772   0.02414   0.00000  Uiso   1.00
C1302  C     0.93044   0.63505   0.00056   0.00000  Uiso   1.00
C1303  C     0.93704   0.65117   0.97660   0.00000  Uiso   1.00
C1304  C     0.95884   0.67960   0.97631   0.00000  Uiso   1.00
F1305  F     0.92523   0.71729   0.35445   0.00000  Uiso   1.00
F1306  F     0.82829   0.52174   0.39555   0.00000  Uiso   1.00
F1307  F     0.88241   0.05833   0.70613   0.00000  Uiso   1.00
F1308  F     0.83237   0.96122   0.77476   0.00000  Uiso   1.00
H1309  H     0.00503   0.95449   0.31572   0.00000  Uiso   1.00
H1310  H     0.96897   0.89304   0.31374   0.00000  Uiso   1.00
H1311  H     0.05155   0.92409   0.27698   0.00000  Uiso   1.00
H1312  H     0.97060   0.85162   0.33162   0.00000  Uiso   1.00
H1313  H     0.03081   0.83608   0.31887   0.00000  Uiso   1.00
H1314  H     0.94247   0.77135   0.35021   0.00000  Uiso   1.00
H1315  H     0.02120   0.79275   0.30922   0.00000  Uiso   1.00
H1316  H     0.00979   0.74340   0.31209   0.00000  Uiso   1.00
H1317  H     0.95600   0.71633   0.03637   0.00000  Uiso   1.00
H1318  H     0.04448   0.77493   0.01721   0.00000  Uiso   1.00
H1319  H     0.04707   0.80508   0.05511   0.00000  Uiso   1.00
H1320  H     0.95885   0.74662   0.07410   0.00000  Uiso   1.00
H1321  H     0.98492   0.76204   0.11973   0.00000  Uiso   1.00
H1322  H     0.98814   0.79231   0.15783   0.00000  Uiso   1.00
H1323  H     0.02846   0.86632   0.10576   0.00000  Uiso   1.00
H1324  H     0.98196   0.82194   0.18387   0.00000  Uiso   1.00
H1325  H     0.00326   0.95484   0.21403   0.00000  Uiso   1.00
H1326  H     0.04110   0.93820   0.20822   0.00000  Uiso   1.00
H1327  H     0.03752   0.90069   0.17801   0.00000  Uiso   1.00
H1328  H     0.96873   0.87580   0.25400   0.00000  Uiso   1.00
H1329  H     0.98053   0.68507   0.04228   0.00000  Uiso   1.00
H1330  H     0.94198   0.63561   0.04283   0.00000  Uiso   1.00
H1331  H     0.92580   0.64150   0.95785   0.00000  Uiso   1.00
H1332  H     0.96403   0.69060   0.95697   0.00000  Uiso   1.00
C1333  C     0.33333   0.39042   0.66667   0.00000  Uiso   1.00
C1334  C     0.00000   0.72375   0.00000   0.00000  Uiso   1.00
C1335  C     0.60958   0.94291   0.66667   0.00000  Uiso   1.00
C1336  C     0.27625   0.27625   0.00000   0.00000  Uiso   1.00
C1337  C     0.05709   0.66667   0.66667   0.00000  Uiso   1.00
C1338  C     0.72375  -0.00000   0.00000   0.00000  Uiso   1.00
C1339  C     0.39042   0.33333   0.33333   0.00000  Uiso   1.00
C1340  C     0.94291   0.60958   0.33333   0.00000  Uiso   1.00
C1341  C     0.66667   0.05709   0.33333   0.00000  Uiso   1.00
C1342  C     0.33333   0.66667   0.95910   0.00000  Uiso   1.00
C1343  C     0.33333   0.66667   0.90469   0.00000  Uiso   1.00
H1344  H     0.33333   0.66667   0.98173   0.00000  Uiso   1.00
H1345  H     0.33333   0.66667   0.88205   0.00000  Uiso   1.00
C1346  C     0.00000   0.00000   0.29243   0.00000  Uiso   1.00
C1347  C     0.00000   0.00000   0.23802   0.00000  Uiso   1.00
H1348  H     0.00000   0.00000   0.31506   0.00000  Uiso   1.00
H1349  H     0.00000   0.00000   0.21538   0.00000  Uiso   1.00
C1350  C     0.66667   0.33333   0.62577   0.00000  Uiso   1.00
C1351  C     0.66667   0.33333   0.57136   0.00000  Uiso   1.00
H1352  H     0.66667   0.33333   0.64840   0.00000  Uiso   1.00
H1353  H     0.66667   0.33333   0.54872   0.00000  Uiso   1.00
C1354  C     0.66667   0.33333   0.04090   0.00000  Uiso   1.00
C1355  C     0.66667   0.33333   0.09531   0.00000  Uiso   1.00
H1356  H     0.66667   0.33333   0.01827   0.00000  Uiso   1.00
H1357  H     0.66667   0.33333   0.11795   0.00000  Uiso   1.00
C1358  C     0.33333   0.66667   0.37423   0.00000  Uiso   1.00
C1359  C     0.33333   0.66667   0.42864   0.00000  Uiso   1.00
H1360  H     0.33333   0.66667   0.35160   0.00000  Uiso   1.00
H1361  H     0.33333   0.66667   0.45128   0.00000  Uiso   1.00
C1362  C     0.00000   0.00000   0.70757   0.00000  Uiso   1.00
C1363  C     0.00000   0.00000   0.76198   0.00000  Uiso   1.00
H1364  H     0.00000   0.00000   0.68494   0.00000  Uiso   1.00
H1365  H     0.00000   0.00000   0.78462   0.00000  Uiso   1.00
loop_
_geom_bond_atom_site_label_1
_geom_bond_atom_site_label_2
_geom_bond_distance
_geom_bond_site_symmetry_2
_ccdc_geom_bond_type
C1     C2      1.395   .     D
C1     C36     1.417   .     S
C1     C1358   1.532   .     S
C2     C3      1.409   .     S
C2     H51     1.083   .     S
C3     C5      1.475   .     S
C3     C34     1.425   .     D
C4     C5      1.401   .     S
C4     C9      1.397   .     D
C4     H52     1.083   .     S
C5     C6      1.402   .     D
C6     C7      1.396   .     S
C6     H53     1.084   .     S
C7     C8      1.406   .     D
C7     F1011   1.358   .     S
C8     C9      1.407   .     S
C8     C10     1.475   .     S
C9     H54     1.083   .     S
C10    N11     1.299   .     D
C10    H55     1.081   .     S
N11    C13     1.436   .     S
C12    C13     1.400   .     S
C12    C17     1.397   .     D
C12    H56     1.083   .     S
C13    C14     1.408   .     D
C14    C15     1.395   .     S
C14    H57     1.080   .     S
C15    C16     1.404   .     D
C15    H58     1.083   .     S
C16    C17     1.408   .     S
C16    C710    1.480   .     S
C17    F47     1.357   .     S
C18    C708    1.412   .     S
C18    C1339   1.546   .     S
C18    C712    1.414   .     D
C19    C20     1.413   .     D
C19    C24     1.398   .     S
C19    H59     1.081   .     S
C20    C21     1.412   .     S
C20    C1333   1.546   .     S
C21    C22     1.394   .     D
C21    H60     1.083   .     S
C22    C23     1.402   .     S
C22    H61     1.083   .     S
C23    C24     1.403   .     D
C23    C26     1.482   .     S
C24    H62     1.083   .     S
C25    C26     1.407   .     D
C25    C30     1.397   .     S
C25    F344    1.358   .     S
C26    C27     1.406   .     S
C27    C28     1.398   .     D
C27    H63     1.084   .     S
C28    C29     1.408   .     S
C28    H64     1.080   .     S
C29    C30     1.399   .     D
C29    N31     1.437   .     S
C30    H65     1.083   .     S
N31    C32     1.299   .     D
C32    C39     1.478   .     S
C32    H66     1.081   .     S
C33    C34     1.483   .     S
C33    C37     1.402   .     S
C33    C40     1.404   .     D
C34    C35     1.404   .     S
C35    C36     1.387   .     D
C35    H67     1.083   .     S
C36    C1359   1.520   .     S
C37    C38     1.395   .     D
C37    H68     1.084   .     S
C38    C39     1.407   .     S
C38    H69     1.083   .     S
C39    C41     1.406   .     D
C40    C41     1.398   .     S
C40    H70     1.083   .     S
C41    F1012   1.358   .     S
C42    C43     1.396   .     S
C42    H71     1.083   .     S
C42    C684    1.412   .     D
C43    C44     1.402   .     D
C43    H72     1.083   .     S
C44    C45     1.401   .     S
C44    C682    1.480   .     S
C45    C46     1.395   .     D
C45    H73     1.083   .     S
C46    H74     1.081   .     S
C46    C684    1.414   .     S
F48    C617    1.358   .     S
F49    C969    1.358   .     S
F50    C1003   1.357   .     S
C75    C76     1.395   .     D
C75    C110    1.417   .     S
C75    C1362   1.532   1_665 S
C76    C77     1.409   .     S
C76    H125    1.083   .     S
C77    C79     1.475   .     S
C77    C108    1.425   .     D
C78    C83     1.397   .     D
C78    H126    1.083   .     S
C78    C79     1.401   1_455 S
C79    C80     1.402   .     D
C79    C78     1.401   1_655 S
C80    C81     1.396   .     S
C80    H127    1.084   .     S
C81    C82     1.406   .     D
C81    F1085   1.358   .     S
C82    C84     1.475   .     S
C82    C83     1.407   1_655 S
C83    H128    1.083   .     S
C83    C82     1.407   1_455 S
C84    H129    1.081   .     S
C84    N85     1.299   1_655 D
N85    C87     1.436   .     S
N85    C84     1.299   1_455 D
C86    C87     1.400   .     S
C86    C91     1.397   .     D
C86    H130    1.083   .     S
C87    C88     1.408   1_455 D
C88    H131    1.080   .     S
C88    C87     1.408   1_655 D
C88    C89     1.395   1_655 S
C89    C90     1.404   .     D
C89    C88     1.395   1_455 S
C89    H132    1.083   1_455 S
C90    C91     1.408   .     S
C90    C784    1.480   .     S
C91    F121    1.357   .     S
C92    C782    1.412   .     S
C92    C1337   1.546   .     S
C92    C786    1.414   .     D
C93    C98     1.398   .     S
C93    H133    1.081   .     S
C93    C94     1.413   1_455 D
C94    C95     1.412   .     S
C94    C93     1.413   1_655 D
C94    C1334   1.546   1_656 S
C95    C96     1.394   .     D
C95    H134    1.083   .     S
C96    C97     1.402   .     S
C96    H135    1.083   .     S
C97    C100    1.482   .     S
C97    C98     1.403   1_655 D
C98    H136    1.083   .     S
C98    C97     1.403   1_455 D
C99    C100    1.407   .     S
C99    C104    1.397   .     D
C99    F418    1.358   .     S
C100   C101    1.406   1_655 D
C101   C102    1.398   .     S
C101   H137    1.084   .     S
C101   C100    1.406   1_455 D
C102   H138    1.080   .     S
C102   C103    1.408   1_455 D
C103   C104    1.399   .     S
C103   N105    1.437   .     S
C103   C102    1.408   1_655 D
C104   H139    1.083   .     S
N105   C106    1.299   1_655 D
C106   H140    1.081   .     S
C106   N105    1.299   1_455 D
C106   C113    1.478   1_455 S
C107   C108    1.483   .     S
C107   C111    1.402   .     S
C107   C114    1.404   1_655 D
C108   C109    1.404   .     S
C109   C110    1.387   .     D
C109   H141    1.083   .     S
C110   C1363   1.520   1_665 S
C111   C112    1.395   .     D
C111   H142    1.084   .     S
C112   C113    1.407   .     S
C112   H143    1.083   .     S
C113   C106    1.478   1_655 S
C113   C115    1.406   1_655 D
C114   C115    1.398   .     S
C114   H144    1.083   .     S
C114   C107    1.404   1_455 D
C115   F1086   1.357   .     S
C115   C113    1.406   1_455 D
C116   C117    1.396   .     S
C116   H145    1.083   .     S
C116   C758    1.412   .     D
C117   C118    1.402   .     D
C117   H146    1.083   .     S
C118   C756    1.480   .     S
C118   C119    1.401   1_556 S
C119   C120    1.395   .     D
C119   H147    1.083   .     S
C119   C118    1.401   1_554 S
C120   H148    1.081   .     S
C120   C758    1.414   1_554 S
F122   C469    1.358   .     S
F123   C1043   1.357   .     S
F124   C1077   1.358   .     S
H132   C89     1.083   1_655 S
C149   C150    1.395   .     D
C149   C184    1.417   .     S
C149   C1354   1.532   .     S
C150   C151    1.409   .     S
C150   H199    1.083   .     S
C151   C153    1.475   .     S
C151   C182    1.425   .     D
C152   C153    1.401   .     D
C152   C157    1.397   .     S
C152   H200    1.083   .     S
C153   C154    1.402   .     S
C154   C155    1.396   .     D
C154   H201    1.084   .     S
C155   C156    1.406   .     S
C155   F937    1.358   .     S
C156   C157    1.407   .     D
C156   C158    1.475   .     S
C157   H202    1.083   .     S
C158   N159    1.299   .     D
C158   H203    1.081   .     S
N159   C161    1.436   .     S
C160   C165    1.397   .     S
C160   H204    1.083   .     S
C160   C161    1.400   1_556 D
C161   C162    1.408   .     S
C161   C160    1.400   1_554 D
C162   C163    1.395   .     D
C162   H205    1.080   .     S
C163   C164    1.404   .     S
C163   H206    1.083   .     S
C164   C858    1.480   .     S
C164   C165    1.408   1_554 D
C165   F195    1.357   .     S
C165   C164    1.408   1_556 D
C166   C856    1.412   .     D
C166   C1338   1.546   .     S
C166   C860    1.414   1_554 S
C167   C168    1.413   .     D
C167   C172    1.398   .     S
C167   H207    1.081   .     S
C168   C169    1.412   .     S
C168   C1341   1.546   .     S
C169   C170    1.394   .     D
C169   H208    1.083   .     S
C170   C171    1.402   .     S
C170   H209    1.083   .     S
C171   C172    1.403   .     D
C171   C174    1.482   .     S
C172   H210    1.083   .     S
C173   C174    1.407   .     D
C173   C178    1.397   .     S
C173   F270    1.358   .     S
C174   C175    1.406   .     S
C175   C176    1.398   .     D
C175   H211    1.084   .     S
C176   C177    1.408   .     S
C176   H212    1.080   .     S
C177   C178    1.399   .     D
C177   N179    1.437   .     S
C178   H213    1.083   .     S
N179   C180    1.299   .     D
C180   C187    1.478   .     S
C180   H214    1.081   .     S
C181   C182    1.483   .     S
C181   C185    1.402   .     S
C181   C188    1.404   .     D
C182   C183    1.404   .     S
C183   C184    1.387   .     D
C183   H215    1.083   .     S
C184   C1355   1.519   .     S
C185   C186    1.395   .     D
C185   H216    1.084   .     S
C186   C187    1.407   .     S
C186   H217    1.083   .     S
C187   C189    1.406   .     D
C188   C189    1.398   .     S
C188   H218    1.083   .     S
C189   F938    1.358   .     S
C190   C191    1.396   .     S
C190   H219    1.083   .     S
C190   C832    1.412   .     D
C191   C192    1.402   .     D
C191   H220    1.083   .     S
C192   C193    1.401   .     S
C192   C830    1.480   .     S
C193   C194    1.395   .     D
C193   H221    1.083   .     S
C194   H222    1.081   .     S
C194   C832    1.414   .     S
F196   C543    1.358   .     S
F197   C895    1.358   .     S
F198   C929    1.357   .     S
C223   C224    1.395   .     D
C223   C258    1.417   .     S
C223   C1358   1.532   .     S
C224   C225    1.409   .     S
C224   H273    1.083   .     S
C225   C227    1.475   .     S
C225   C256    1.425   .     D
C226   C227    1.401   .     S
C226   C231    1.397   .     D
C226   H274    1.083   .     S
C227   C228    1.402   .     D
C228   C229    1.396   .     S
C228   H275    1.084   .     S
C229   C230    1.406   .     D
C229   F789    1.358   .     S
C230   C231    1.407   .     S
C230   C232    1.475   .     S
C231   H276    1.083   .     S
C232   N233    1.299   .     D
C232   H277    1.081   .     S
N233   C235    1.436   .     S
C234   C235    1.400   .     S
C234   C239    1.397   .     D
C234   H278    1.083   .     S
C235   C236    1.408   .     D
C236   C237    1.395   .     S
C236   H279    1.080   .     S
C237   C238    1.404   .     D
C237   H280    1.083   .     S
C238   C239    1.408   .     S
C238   C1154   1.480   .     S
C239   F269    1.357   .     S
C240   C1152   1.412   .     S
C240   C1341   1.546   .     S
C240   C1156   1.414   .     D
C241   C242    1.413   .     D
C241   C246    1.398   .     S
C241   H281    1.081   .     S
C242   C243    1.412   .     S
C242   C1335   1.546   .     S
C243   C244    1.394   .     D
C243   H282    1.083   .     S
C244   C245    1.402   .     S
C244   H283    1.083   .     S
C245   C246    1.403   .     D
C245   C248    1.482   .     S
C246   H284    1.083   .     S
C247   C248    1.407   .     D
C247   C252    1.397   .     S
C247   F566    1.358   .     S
C248   C249    1.406   .     S
C249   C250    1.398   .     D
C249   H285    1.084   .     S
C250   C251    1.408   .     S
C250   H286    1.080   .     S
C251   C252    1.399   .     D
C251   N253    1.437   .     S
C252   H287    1.083   .     S
N253   C254    1.299   .     D
C254   C261    1.478   .     S
C254   H288    1.081   .     S
C255   C256    1.483   .     S
C255   C259    1.402   .     S
C255   C262    1.404   .     D
C256   C257    1.404   .     S
C257   C258    1.387   .     D
C257   H289    1.083   .     S
C258   C1359   1.520   .     S
C259   C260    1.395   .     D
C259   H290    1.084   .     S
C260   C261    1.407   .     S
C260   H291    1.083   .     S
C261   C263    1.406   .     D
C262   C263    1.398   .     S
C262   H292    1.083   .     S
C263   F790    1.357   .     S
C264   H293    1.083   .     S
C264   C1128   1.412   .     D
C264   C265    1.396   1_565 S
C265   C266    1.402   .     D
C265   H294    1.083   .     S
C265   C264    1.396   1_545 S
C266   C267    1.401   .     S
C266   C1126   1.480   .     S
C267   H295    1.083   .     S
C267   C268    1.395   1_545 D
C268   H296    1.081   .     S
C268   C1128   1.414   .     S
C268   C267    1.395   1_565 D
F271   C747    1.358   .     S
F272   C781    1.358   .     S
C297   C298    1.395   .     D
C297   C332    1.417   .     S
C297   C1362   1.532   .     S
C298   C299    1.409   .     S
C298   H347    1.083   .     S
C299   C301    1.475   .     S
C299   C330    1.425   .     D
C300   C301    1.401   .     S
C300   C305    1.397   .     D
C300   H348    1.083   .     S
C301   C302    1.402   .     D
C302   C303    1.396   .     S
C302   H349    1.084   .     S
C303   C304    1.406   .     D
C303   F863    1.357   .     S
C304   C305    1.407   .     S
C304   C306    1.475   .     S
C305   H350    1.083   .     S
C306   N307    1.299   .     D
C306   H351    1.081   .     S
N307   C309    1.436   .     S
C308   C309    1.400   .     S
C308   C313    1.397   .     D
C308   H352    1.083   .     S
C309   C310    1.408   .     D
C310   C311    1.395   .     S
C310   H353    1.080   .     S
C311   C312    1.404   .     D
C311   H354    1.083   .     S
C312   C313    1.408   .     S
C312   C1228   1.480   .     S
C313   F343    1.357   .     S
C314   C1226   1.412   .     S
C314   C1333   1.546   .     S
C314   C1230   1.414   .     D
C315   C316    1.413   .     D
C315   C320    1.398   .     S
C315   H355    1.081   .     S
C316   C317    1.412   .     S
C316   C1336   1.546   1_556 S
C317   C318    1.394   .     D
C317   H356    1.083   .     S
C318   C319    1.402   .     S
C318   H357    1.083   .     S
C319   C320    1.403   .     D
C319   C322    1.482   .     S
C320   H358    1.083   .     S
C321   C322    1.407   .     D
C321   C326    1.397   .     S
C321   F640    1.358   .     S
C322   C323    1.406   .     S
C323   C324    1.398   .     D
C323   H359    1.084   .     S
C324   C325    1.408   .     S
C324   H360    1.080   .     S
C325   C326    1.399   .     D
C325   N327    1.437   .     S
C326   H361    1.083   .     S
N327   C328    1.299   .     D
C328   C335    1.478   .     S
C328   H362    1.081   .     S
C329   C330    1.483   .     S
C329   C333    1.402   .     S
C329   C336    1.404   .     D
C330   C331    1.404   .     S
C331   C332    1.387   .     D
C331   H363    1.083   .     S
C332   C1363   1.520   .     S
C333   C334    1.395   .     D
C333   H364    1.084   .     S
C334   C335    1.407   .     S
C334   H365    1.083   .     S
C335   C337    1.406   .     D
C336   C337    1.398   .     S
C336   H366    1.083   .     S
C337   F864    1.358   .     S
C338   C339    1.396   .     S
C338   H367    1.083   .     S
C338   C1202   1.412   .     D
C339   C340    1.402   .     D
C339   H368    1.083   .     S
C340   C1200   1.480   .     S
C340   C341    1.401   1_556 S
C341   C342    1.395   .     D
C341   H369    1.083   .     S
C341   C340    1.401   1_554 S
C342   H370    1.081   .     S
C342   C1202   1.414   1_554 S
F345   C821    1.358   .     S
F346   C855    1.357   .     S
C371   C372    1.395   .     D
C371   C406    1.417   .     S
C371   C1354   1.532   .     S
C372   C373    1.409   .     S
C372   H421    1.083   .     S
C373   C375    1.475   .     S
C373   C404    1.425   .     D
C374   C375    1.401   .     D
C374   C379    1.397   .     S
C374   H422    1.083   .     S
C375   C376    1.402   .     S
C376   C377    1.396   .     D
C376   H423    1.084   .     S
C377   C378    1.406   .     S
C377   F715    1.358   .     S
C378   C379    1.407   .     D
C378   C380    1.475   .     S
C379   H424    1.083   .     S
C380   N381    1.299   .     D
C380   H425    1.081   .     S
N381   C383    1.436   .     S
C382   C387    1.397   .     S
C382   H426    1.083   .     S
C382   C383    1.400   1_556 D
C383   C384    1.408   .     S
C383   C382    1.400   1_554 D
C384   C385    1.395   .     D
C384   H427    1.080   .     S
C385   C386    1.404   .     S
C385   H428    1.083   .     S
C386   C1302   1.480   .     S
C386   C387    1.408   1_554 D
C387   F417    1.357   .     S
C387   C386    1.408   1_556 D
C388   C1300   1.412   .     D
C388   C1334   1.546   1_655 S
C388   C1304   1.414   1_554 S
C389   C390    1.413   .     D
C389   C394    1.398   .     S
C389   H429    1.081   .     S
C390   C391    1.412   .     S
C390   C1340   1.546   .     S
C391   C392    1.394   .     D
C391   H430    1.083   .     S
C392   C393    1.402   .     S
C392   H431    1.083   .     S
C393   C394    1.403   .     D
C393   C396    1.482   .     S
C394   H432    1.083   .     S
C395   C396    1.407   .     D
C395   C400    1.397   .     S
C395   F492    1.358   .     S
C396   C397    1.406   .     S
C397   C398    1.398   .     D
C397   H433    1.084   .     S
C398   C399    1.408   .     S
C398   H434    1.080   .     S
C399   C400    1.399   .     D
C399   N401    1.437   .     S
C400   H435    1.083   .     S
N401   C402    1.299   .     D
C402   C409    1.478   .     S
C402   H436    1.081   .     S
C403   C404    1.483   .     S
C403   C407    1.402   .     S
C403   C410    1.404   .     D
C404   C405    1.404   .     S
C405   C406    1.387   .     D
C405   H437    1.083   .     S
C406   C1355   1.520   .     S
C407   C408    1.395   .     D
C407   H438    1.084   .     S
C408   C409    1.407   .     S
C408   H439    1.083   .     S
C409   C411    1.406   .     D
C410   C411    1.398   .     S
C410   H440    1.083   .     S
C411   F716    1.357   .     S
C412   C413    1.396   .     S
C412   H441    1.083   .     S
C412   C1276   1.412   .     D
C413   C414    1.402   .     D
C413   H442    1.083   .     S
C414   C415    1.401   .     S
C414   C1274   1.480   .     S
C415   C416    1.395   .     D
C415   H443    1.083   .     S
C416   H444    1.081   .     S
C416   C1276   1.414   .     S
F419   C673    1.358   .     S
F420   C707    1.358   .     S
C445   C446    1.395   .     D
C445   C480    1.417   .     S
C445   C1358   1.532   .     S
C446   C447    1.409   .     S
C446   H495    1.083   .     S
C447   C449    1.475   .     S
C447   C478    1.425   .     D
C448   C449    1.401   .     S
C448   C453    1.397   .     D
C448   H496    1.083   .     S
C449   C450    1.402   .     D
C450   C451    1.396   .     S
C450   H497    1.084   .     S
C451   C452    1.406   .     D
C451   F1233   1.357   .     S
C452   C453    1.407   .     S
C452   C454    1.475   .     S
C453   H498    1.083   .     S
C454   N455    1.299   .     D
C454   H499    1.081   .     S
N455   C457    1.436   .     S
C456   C457    1.400   .     S
C456   C461    1.397   .     D
C456   H500    1.083   .     S
C457   C458    1.408   .     D
C458   C459    1.395   .     S
C458   H501    1.080   .     S
C459   C460    1.404   .     D
C459   H502    1.083   .     S
C460   C461    1.408   .     S
C460   C932    1.480   .     S
C461   F491    1.357   .     S
C462   C930    1.412   .     S
C462   C1340   1.546   .     S
C462   C934    1.414   .     D
C463   C464    1.413   .     D
C463   C468    1.398   .     S
C463   H503    1.081   .     S
C464   C465    1.412   .     S
C464   C1337   1.546   .     S
C465   C466    1.394   .     D
C465   H504    1.083   .     S
C466   C467    1.402   .     S
C466   H505    1.083   .     S
C467   C468    1.403   .     D
C467   C470    1.482   .     S
C468   H506    1.083   .     S
C469   C470    1.407   .     D
C469   C474    1.397   .     S
C470   C471    1.406   .     S
C471   C472    1.398   .     D
C471   H507    1.084   .     S
C472   C473    1.408   .     S
C472   H508    1.080   .     S
C473   C474    1.399   .     D
C473   N475    1.437   .     S
C474   H509    1.083   .     S
N475   C476    1.299   .     D
C476   C483    1.478   .     S
C476   H510    1.081   .     S
C477   C478    1.483   .     S
C477   C481    1.402   .     S
C477   C484    1.404   .     D
C478   C479    1.404   .     S
C479   C480    1.387   .     D
C479   H511    1.083   .     S
C480   C1359   1.519   .     S
C481   C482    1.395   .     D
C481   H512    1.084   .     S
C482   C483    1.407   .     S
C482   H513    1.083   .     S
C483   C485    1.406   .     D
C484   C485    1.398   .     S
C484   H514    1.083   .     S
C485   F1234   1.357   .     S
C486   H515    1.083   .     S
C486   C906    1.412   .     D
C486   C487    1.396   1_455 S
C487   C488    1.402   .     D
C487   H516    1.083   .     S
C487   C486    1.396   1_655 S
C488   C489    1.401   .     S
C488   C904    1.480   .     S
C489   H517    1.083   .     S
C489   C490    1.395   1_655 D
C490   H518    1.081   .     S
C490   C906    1.414   .     S
C490   C489    1.395   1_455 D
F493   C1191   1.357   .     S
F494   C1225   1.357   .     S
C519   C520    1.395   .     D
C519   C554    1.417   .     S
C519   C1362   1.532   1_655 S
C520   C521    1.409   .     S
C520   H569    1.083   .     S
C521   C523    1.475   .     S
C521   C552    1.425   .     D
C522   C527    1.397   .     D
C522   H570    1.083   .     S
C522   C523    1.401   1_565 S
C523   C524    1.402   .     D
C523   C522    1.401   1_545 S
C524   C525    1.396   .     S
C524   H571    1.084   .     S
C525   C526    1.406   .     D
C525   F1307   1.358   .     S
C526   C528    1.475   .     S
C526   C527    1.407   1_545 S
C527   H572    1.083   .     S
C527   C526    1.407   1_565 S
C528   H573    1.081   .     S
C528   N529    1.299   1_545 D
N529   C531    1.436   .     S
N529   C528    1.299   1_565 D
C530   C531    1.400   .     S
C530   C535    1.397   .     D
C530   H574    1.083   .     S
C531   C532    1.408   1_565 D
C532   H575    1.080   .     S
C532   C531    1.408   1_545 D
C532   C533    1.395   1_545 S
C533   C534    1.404   .     D
C533   C532    1.395   1_565 S
C533   H576    1.083   1_565 S
C534   C535    1.408   .     S
C534   C1006   1.480   .     S
C535   F565    1.357   .     S
C536   C1004   1.412   .     S
C536   C1335   1.546   .     S
C536   C1008   1.414   .     D
C537   C542    1.398   .     S
C537   H577    1.081   .     S
C537   C538    1.413   1_565 D
C538   C539    1.412   .     S
C538   C537    1.413   1_545 D
C538   C1338   1.546   1_556 S
C539   C540    1.394   .     D
C539   H578    1.083   .     S
C540   C541    1.402   .     S
C540   H579    1.083   .     S
C541   C544    1.482   .     S
C541   C542    1.403   1_545 D
C542   H580    1.083   .     S
C542   C541    1.403   1_565 D
C543   C544    1.407   .     S
C543   C548    1.397   .     D
C544   C545    1.406   1_545 D
C545   C546    1.398   .     S
C545   H581    1.084   .     S
C545   C544    1.406   1_565 D
C546   H582    1.080   .     S
C546   C547    1.408   1_565 D
C547   C548    1.399   .     S
C547   N549    1.437   .     S
C547   C546    1.408   1_545 D
C548   H583    1.083   .     S
N549   C550    1.299   1_545 D
C550   H584    1.081   .     S
C550   N549    1.299   1_565 D
C550   C557    1.478   1_565 S
C551   C552    1.483   .     S
C551   C555    1.402   .     S
C551   C558    1.404   1_545 D
C552   C553    1.404   .     S
C553   C554    1.387   .     D
C553   H585    1.083   .     S
C554   C1363   1.520   1_655 S
C555   C556    1.395   .     D
C555   H586    1.084   .     S
C556   C557    1.407   .     S
C556   H587    1.083   .     S
C557   C550    1.478   1_545 S
C557   C559    1.406   1_545 D
C558   C559    1.398   .     S
C558   H588    1.083   .     S
C558   C551    1.404   1_565 D
C559   F1308   1.357   .     S
C559   C557    1.406   1_565 D
C560   C561    1.396   .     S
C560   H589    1.083   .     S
C560   C980    1.412   .     D
C561   C562    1.402   .     D
C561   H590    1.083   .     S
C562   C978    1.480   .     S
C562   C563    1.401   1_556 S
C563   C564    1.395   .     D
C563   H591    1.083   .     S
C563   C562    1.401   1_554 S
C564   H592    1.081   .     S
C564   C980    1.414   1_554 S
F567   C1265   1.358   .     S
F568   C1299   1.357   .     S
H576   C533    1.083   1_545 S
C593   C594    1.395   .     D
C593   C628    1.417   .     S
C593   C1354   1.533   .     S
C594   C595    1.409   .     S
C594   H643    1.083   .     S
C595   C597    1.475   .     S
C595   C626    1.425   .     D
C596   C597    1.401   .     D
C596   C601    1.397   .     S
C596   H644    1.083   .     S
C597   C598    1.402   .     S
C598   C599    1.396   .     D
C598   H645    1.084   .     S
C599   C600    1.406   .     S
C599   F1159   1.357   .     S
C600   C601    1.407   .     D
C600   C602    1.475   .     S
C601   H646    1.083   .     S
C602   N603    1.299   .     D
C602   H647    1.081   .     S
N603   C605    1.436   .     S
C604   C609    1.397   .     S
C604   H648    1.083   .     S
C604   C605    1.400   1_556 D
C605   C606    1.408   .     S
C605   C604    1.400   1_554 D
C606   C607    1.395   .     D
C606   H649    1.080   .     S
C607   C608    1.404   .     S
C607   H650    1.083   .     S
C608   C1080   1.480   .     S
C608   C609    1.408   1_554 D
C609   F639    1.357   .     S
C609   C608    1.408   1_556 D
C610   C1078   1.412   .     D
C610   C1336   1.546   .     S
C610   C1082   1.414   1_554 S
C611   C612    1.413   .     D
C611   C616    1.398   .     S
C611   H651    1.081   .     S
C612   C613    1.412   .     S
C612   C1339   1.546   .     S
C613   C614    1.394   .     D
C613   H652    1.083   .     S
C614   C615    1.402   .     S
C614   H653    1.083   .     S
C615   C616    1.403   .     D
C615   C618    1.482   .     S
C616   H654    1.083   .     S
C617   C618    1.407   .     D
C617   C622    1.397   .     S
C618   C619    1.406   .     S
C619   C620    1.398   .     D
C619   H655    1.084   .     S
C620   C621    1.408   .     S
C620   H656    1.080   .     S
C621   C622    1.399   .     D
C621   N623    1.437   .     S
C622   H657    1.083   .     S
N623   C624    1.299   .     D
C624   C631    1.478   .     S
C624   H658    1.081   .     S
C625   C626    1.483   .     S
C625   C629    1.402   .     S
C625   C632    1.404   .     D
C626   C627    1.404   .     S
C627   C628    1.387   .     D
C627   H659    1.083   .     S
C628   C1355   1.520   .     S
C629   C630    1.395   .     D
C629   H660    1.084   .     S
C630   C631    1.407   .     S
C630   H661    1.083   .     S
C631   C633    1.406   .     D
C632   C633    1.398   .     S
C632   H662    1.083   .     S
C633   F1160   1.357   .     S
C634   C635    1.396   .     S
C634   H663    1.083   .     S
C634   C1054   1.412   .     D
C635   C636    1.402   .     D
C635   H664    1.083   .     S
C636   C637    1.401   .     S
C636   C1052   1.480   .     S
C637   C638    1.395   .     D
C637   H665    1.083   .     S
C638   H666    1.081   .     S
C638   C1054   1.414   .     S
F641   C1117   1.357   .     S
F642   C1151   1.357   .     S
C667   C668    1.395   .     S
C667   C702    1.417   .     D
C667   C1350   1.532   .     S
C668   C669    1.409   .     D
C668   H717    1.083   .     S
C669   C671    1.475   .     S
C669   C700    1.425   .     S
C670   C671    1.401   .     D
C670   C675    1.397   .     S
C670   H718    1.083   .     S
C671   C672    1.402   .     S
C672   C673    1.396   .     D
C672   H719    1.084   .     S
C673   C674    1.406   .     S
C674   C675    1.407   .     D
C674   C676    1.475   .     S
C675   H720    1.083   .     S
C676   N677    1.299   .     D
C676   H721    1.081   .     S
N677   C679    1.436   .     S
C678   C679    1.400   .     D
C678   C683    1.397   .     S
C678   H722    1.083   .     S
C679   C680    1.408   .     S
C680   C681    1.395   .     D
C680   H723    1.080   .     S
C681   C682    1.404   .     S
C681   H724    1.083   .     S
C682   C683    1.408   .     D
C683   F713    1.357   .     S
C684   C1333   1.546   .     S
C685   C686    1.413   .     D
C685   C690    1.398   .     S
C685   H725    1.081   .     S
C686   C687    1.412   .     S
C686   C1339   1.546   .     S
C687   C688    1.394   .     D
C687   H726    1.083   .     S
C688   C689    1.402   .     S
C688   H727    1.083   .     S
C689   C690    1.403   .     D
C689   C692    1.482   .     S
C690   H728    1.083   .     S
C691   C692    1.407   .     D
C691   C696    1.397   .     S
C691   F1084   1.358   .     S
C692   C693    1.406   .     S
C693   C694    1.398   .     D
C693   H729    1.084   .     S
C694   C695    1.408   .     S
C694   H730    1.080   .     S
C695   C696    1.399   .     D
C695   N697    1.437   .     S
C696   H731    1.083   .     S
N697   C698    1.299   .     D
C698   C705    1.478   .     S
C698   H732    1.081   .     S
C699   C700    1.483   .     S
C699   C703    1.402   .     S
C699   C706    1.404   .     D
C700   C701    1.404   .     D
C701   C702    1.387   .     S
C701   H733    1.083   .     S
C702   C1351   1.520   .     S
C703   C704    1.395   .     D
C703   H734    1.084   .     S
C704   C705    1.407   .     S
C704   H735    1.083   .     S
C705   C707    1.406   .     D
C706   C707    1.398   .     S
C706   H736    1.083   .     S
C708   C709    1.396   .     D
C708   H737    1.083   .     S
C709   C710    1.402   .     S
C709   H738    1.083   .     S
C710   C711    1.401   .     D
C711   C712    1.395   .     S
C711   H739    1.083   .     S
C712   H740    1.081   .     S
F714   C1209   1.358   .     S
C741   C742    1.395   .     S
C741   C776    1.417   .     D
C741   C1342   1.532   .     S
C742   C743    1.409   .     D
C742   H791    1.083   .     S
C743   C745    1.475   .     S
C743   C774    1.425   .     S
C744   C745    1.401   .     D
C744   C749    1.397   .     S
C744   H792    1.083   .     S
C745   C746    1.402   .     S
C746   C747    1.396   .     D
C746   H793    1.084   .     S
C747   C748    1.406   .     S
C748   C749    1.407   .     D
C748   C750    1.475   .     S
C749   H794    1.083   .     S
C750   N751    1.299   .     D
C750   H795    1.081   .     S
N751   C753    1.436   .     S
C752   C757    1.397   .     D
C752   H796    1.083   .     S
C752   C753    1.400   1_554 S
C753   C754    1.408   .     D
C753   C752    1.400   1_556 S
C754   C755    1.395   .     S
C754   H797    1.080   .     S
C755   C756    1.404   .     D
C755   H798    1.083   .     S
C756   C757    1.408   1_556 S
C757   F787    1.357   .     S
C757   C756    1.408   1_554 S
C758   C120    1.414   1_556 S
C758   C1334   1.546   1_556 S
C759   C760    1.413   .     D
C759   C764    1.398   .     S
C759   H799    1.081   .     S
C760   C761    1.412   .     S
C760   C1337   1.546   .     S
C761   C762    1.394   .     D
C761   H800    1.083   .     S
C762   C763    1.402   .     S
C762   H801    1.083   .     S
C763   C764    1.403   .     D
C763   C766    1.482   .     S
C764   H802    1.083   .     S
C765   C766    1.407   .     D
C765   C770    1.397   .     S
C765   F936    1.358   .     S
C766   C767    1.406   .     S
C767   C768    1.398   .     D
C767   H803    1.084   .     S
C768   C769    1.408   .     S
C768   H804    1.080   .     S
C769   C770    1.399   .     D
C769   N771    1.437   .     S
C770   H805    1.083   .     S
N771   C772    1.299   .     D
C772   C779    1.478   .     S
C772   H806    1.081   .     S
C773   C774    1.483   .     S
C773   C777    1.402   .     S
C773   C780    1.404   .     D
C774   C775    1.404   .     D
C775   C776    1.387   .     S
C775   H807    1.083   .     S
C776   C1343   1.519   .     S
C777   C778    1.395   .     D
C777   H808    1.084   .     S
C778   C779    1.407   .     S
C778   H809    1.083   .     S
C779   C781    1.406   .     D
C780   C781    1.398   .     S
C780   H810    1.083   .     S
C782   C783    1.396   .     D
C782   H811    1.083   .     S
C783   C784    1.402   .     S
C783   H812    1.083   .     S
C784   C785    1.401   .     D
C785   C786    1.395   .     S
C785   H813    1.083   .     S
C786   H814    1.081   .     S
F788   C1283   1.358   .     S
C815   C816    1.395   .     S
C815   C850    1.417   .     D
C815   C1346   1.532   1_665 S
C816   C817    1.409   .     D
C816   H865    1.083   .     S
C817   C819    1.475   .     S
C817   C848    1.425   .     S
C818   C823    1.397   .     D
C818   H866    1.083   .     S
C818   C819    1.401   1_545 S
C819   C820    1.402   .     D
C819   C818    1.401   1_565 S
C820   C821    1.396   .     S
C820   H867    1.084   .     S
C821   C822    1.406   .     D
C822   C824    1.475   .     S
C822   C823    1.407   1_565 S
C823   H868    1.083   .     S
C823   C822    1.407   1_545 S
C824   H869    1.081   .     S
C824   N825    1.299   1_565 D
N825   C827    1.436   .     S
N825   C824    1.299   1_545 D
C826   C827    1.400   .     D
C826   C831    1.397   .     S
C826   H870    1.083   .     S
C827   C828    1.408   1_545 S
C828   H871    1.080   .     S
C828   C827    1.408   1_565 S
C828   C829    1.395   1_565 D
C829   C830    1.404   .     S
C829   C828    1.395   1_545 D
C829   H872    1.083   1_545 S
C830   C831    1.408   .     D
C831   F861    1.357   .     S
C832   C1341   1.546   .     S
C833   C838    1.398   .     D
C833   H873    1.081   .     S
C833   C834    1.413   1_545 S
C834   C835    1.412   .     D
C834   C833    1.413   1_565 S
C834   C1338   1.546   1_565 S
C835   C836    1.394   .     S
C835   H874    1.083   .     S
C836   C837    1.402   .     D
C836   H875    1.083   .     S
C837   C840    1.482   .     S
C837   C838    1.403   1_565 S
C838   H876    1.083   .     S
C838   C837    1.403   1_545 S
C839   C840    1.407   .     D
C839   C844    1.397   .     S
C839   F1010   1.358   .     S
C840   C841    1.406   1_565 S
C841   C842    1.398   .     D
C841   H877    1.084   .     S
C841   C840    1.406   1_545 S
C842   H878    1.080   .     S
C842   C843    1.408   1_545 S
C843   C844    1.399   .     D
C843   N845    1.437   .     S
C843   C842    1.408   1_565 S
C844   H879    1.083   .     S
N845   C846    1.299   1_565 D
C846   H880    1.081   .     S
C846   N845    1.299   1_545 D
C846   C853    1.478   1_545 S
C847   C848    1.483   .     S
C847   C851    1.402   .     S
C847   C854    1.404   1_565 D
C848   C849    1.404   .     D
C849   C850    1.387   .     S
C849   H881    1.083   .     S
C850   C1347   1.520   1_665 S
C851   C852    1.395   .     D
C851   H882    1.084   .     S
C852   C853    1.407   .     S
C852   H883    1.083   .     S
C853   C846    1.478   1_565 S
C853   C855    1.406   1_565 D
C854   C855    1.398   .     S
C854   H884    1.083   .     S
C854   C847    1.404   1_545 D
C855   C853    1.406   1_545 D
C856   C857    1.396   .     S
C856   H885    1.083   .     S
C857   C858    1.402   .     D
C857   H886    1.083   .     S
C858   C859    1.401   1_554 S
C859   C860    1.395   .     D
C859   H887    1.083   .     S
C859   C858    1.401   1_556 S
C860   H888    1.081   .     S
C860   C166    1.414   1_556 S
F862   C1135   1.358   .     S
H872   C829    1.083   1_565 S
C889   C890    1.395   .     S
C889   C924    1.417   .     D
C889   C1350   1.532   .     S
C890   C891    1.409   .     D
C890   H939    1.083   .     S
C891   C893    1.475   .     S
C891   C922    1.425   .     S
C892   C893    1.401   .     D
C892   C897    1.397   .     S
C892   H940    1.083   .     S
C893   C894    1.402   .     S
C894   C895    1.396   .     D
C894   H941    1.084   .     S
C895   C896    1.406   .     S
C896   C897    1.407   .     D
C896   C898    1.475   .     S
C897   H942    1.083   .     S
C898   N899    1.299   .     D
C898   H943    1.081   .     S
N899   C901    1.436   .     S
C900   C901    1.400   .     D
C900   C905    1.397   .     S
C900   H944    1.083   .     S
C901   C902    1.408   .     S
C902   C903    1.395   .     D
C902   H945    1.080   .     S
C903   C904    1.404   .     S
C903   H946    1.083   .     S
C904   C905    1.408   .     D
C905   F935    1.357   .     S
C906   C1337   1.546   .     S
C907   C908    1.413   .     D
C907   C912    1.398   .     S
C907   H947    1.081   .     S
C908   C909    1.412   .     S
C908   C1340   1.546   .     S
C909   C910    1.394   .     D
C909   H948    1.083   .     S
C910   C911    1.402   .     S
C910   H949    1.083   .     S
C911   C912    1.403   .     D
C911   C914    1.482   .     S
C912   H950    1.083   .     S
C913   C914    1.407   .     D
C913   C918    1.397   .     S
C913   F1306   1.358   .     S
C914   C915    1.406   .     S
C915   C916    1.398   .     D
C915   H951    1.084   .     S
C916   C917    1.408   .     S
C916   H952    1.080   .     S
C917   C918    1.399   .     D
C917   N919    1.437   .     S
C918   H953    1.083   .     S
N919   C920    1.299   .     D
C920   C927    1.478   .     S
C920   H954    1.081   .     S
C921   C922    1.483   .     S
C921   C925    1.402   .     S
C921   C928    1.404   .     D
C922   C923    1.404   .     D
C923   C924    1.387   .     S
C923   H955    1.083   .     S
C924   C1351   1.520   .     S
C925   C926    1.395   .     D
C925   H956    1.084   .     S
C926   C927    1.407   .     S
C926   H957    1.083   .     S
C927   C929    1.406   .     D
C928   C929    1.398   .     S
C928   H958    1.083   .     S
C930   H959    1.083   .     S
C930   C931    1.396   1_655 D
C931   C932    1.402   .     S
C931   H960    1.083   .     S
C931   C930    1.396   1_455 D
C932   C933    1.401   .     D
C933   H961    1.083   .     S
C933   C934    1.395   1_455 S
C934   H962    1.081   .     S
C934   C933    1.395   1_655 S
C963   C964    1.395   .     S
C963   C998    1.417   .     D
C963   C1342   1.532   .     S
C964   C965    1.409   .     D
C964   H1013   1.083   .     S
C965   C967    1.475   .     S
C965   C996    1.425   .     S
C966   C967    1.401   .     D
C966   C971    1.397   .     S
C966   H1014   1.083   .     S
C967   C968    1.402   .     S
C968   C969    1.396   .     D
C968   H1015   1.084   .     S
C969   C970    1.406   .     S
C970   C971    1.407   .     D
C970   C972    1.475   .     S
C971   H1016   1.083   .     S
C972   N973    1.299   .     D
C972   H1017   1.081   .     S
N973   C975    1.436   .     S
C974   C979    1.397   .     D
C974   H1018   1.083   .     S
C974   C975    1.400   1_554 S
C975   C976    1.408   .     D
C975   C974    1.400   1_556 S
C976   C977    1.395   .     S
C976   H1019   1.080   .     S
C977   C978    1.404   .     D
C977   H1020   1.083   .     S
C978   C979    1.408   1_556 S
C979   F1009   1.357   .     S
C979   C978    1.408   1_554 S
C980   C564    1.414   1_556 S
C980   C1338   1.546   1_566 S
C981   C982    1.413   .     D
C981   C986    1.398   .     S
C981   H1021   1.081   .     S
C982   C983    1.412   .     S
C982   C1335   1.546   .     S
C983   C984    1.394   .     D
C983   H1022   1.083   .     S
C984   C985    1.402   .     S
C984   H1023   1.083   .     S
C985   C986    1.403   .     D
C985   C988    1.482   .     S
C986   H1024   1.083   .     S
C987   C988    1.407   .     D
C987   C992    1.397   .     S
C987   F1158   1.358   .     S
C988   C989    1.406   .     S
C989   C990    1.398   .     D
C989   H1025   1.084   .     S
C990   C991    1.408   .     S
C990   H1026   1.080   .     S
C991   C992    1.399   .     D
C991   N993    1.437   .     S
C992   H1027   1.083   .     S
N993   C994    1.299   .     D
C994   C1001   1.478   .     S
C994   H1028   1.081   .     S
C995   C996    1.483   .     S
C995   C999    1.402   .     S
C995   C1002   1.404   .     D
C996   C997    1.404   .     D
C997   C998    1.387   .     S
C997   H1029   1.083   .     S
C998   C1343   1.520   .     S
C999   C1000   1.395   .     D
C999   H1030   1.084   .     S
C1000  C1001   1.407   .     S
C1000  H1031   1.083   .     S
C1001  C1003   1.406   .     D
C1002  C1003   1.398   .     S
C1002  H1032   1.083   .     S
C1004  C1005   1.396   .     D
C1004  H1033   1.083   .     S
C1005  C1006   1.402   .     S
C1005  H1034   1.083   .     S
C1006  C1007   1.401   .     D
C1007  C1008   1.395   .     S
C1007  H1035   1.083   .     S
C1008  H1036   1.081   .     S
C1037  C1038   1.395   .     S
C1037  C1072   1.417   .     D
C1037  C1346   1.532   .     S
C1038  C1039   1.409   .     D
C1038  H1087   1.083   .     S
C1039  C1041   1.475   .     S
C1039  C1070   1.425   .     S
C1040  C1041   1.401   .     D
C1040  C1045   1.397   .     S
C1040  H1088   1.083   .     S
C1041  C1042   1.402   .     S
C1042  C1043   1.396   .     D
C1042  H1089   1.084   .     S
C1043  C1044   1.406   .     S
C1044  C1045   1.407   .     D
C1044  C1046   1.475   .     S
C1045  H1090   1.083   .     S
C1046  N1047   1.299   .     D
C1046  H1091   1.081   .     S
N1047  C1049   1.436   .     S
C1048  C1049   1.400   .     D
C1048  C1053   1.397   .     S
C1048  H1092   1.083   .     S
C1049  C1050   1.408   .     S
C1050  C1051   1.395   .     D
C1050  H1093   1.080   .     S
C1051  C1052   1.404   .     S
C1051  H1094   1.083   .     S
C1052  C1053   1.408   .     D
C1053  F1083   1.357   .     S
C1054  C1339   1.546   .     S
C1055  C1056   1.413   .     D
C1055  C1060   1.398   .     S
C1055  H1095   1.081   .     S
C1056  C1057   1.412   .     S
C1056  C1336   1.546   .     S
C1057  C1058   1.394   .     D
C1057  H1096   1.083   .     S
C1058  C1059   1.402   .     S
C1058  H1097   1.083   .     S
C1059  C1060   1.403   .     D
C1059  C1062   1.482   .     S
C1060  H1098   1.083   .     S
C1061  C1062   1.407   .     D
C1061  C1066   1.397   .     S
C1061  F1232   1.358   .     S
C1062  C1063   1.406   .     S
C1063  C1064   1.398   .     D
C1063  H1099   1.084   .     S
C1064  C1065   1.408   .     S
C1064  H1100   1.080   .     S
C1065  C1066   1.399   .     D
C1065  N1067   1.437   .     S
C1066  H1101   1.083   .     S
N1067  C1068   1.299   .     D
C1068  C1075   1.478   .     S
C1068  H1102   1.081   .     S
C1069  C1070   1.483   .     S
C1069  C1073   1.402   .     S
C1069  C1076   1.404   .     D
C1070  C1071   1.404   .     D
C1071  C1072   1.387   .     S
C1071  H1103   1.083   .     S
C1072  C1347   1.520   .     S
C1073  C1074   1.395   .     D
C1073  H1104   1.084   .     S
C1074  C1075   1.407   .     S
C1074  H1105   1.083   .     S
C1075  C1077   1.406   .     D
C1076  C1077   1.398   .     S
C1076  H1106   1.083   .     S
C1078  C1079   1.396   .     S
C1078  H1107   1.083   .     S
C1079  C1080   1.402   .     D
C1079  H1108   1.083   .     S
C1080  C1081   1.401   1_554 S
C1081  C1082   1.395   .     D
C1081  H1109   1.083   .     S
C1081  C1080   1.401   1_556 S
C1082  H1110   1.081   .     S
C1082  C610    1.414   1_556 S
C1111  C1112   1.395   .     S
C1111  C1146   1.417   .     D
C1111  C1350   1.532   .     S
C1112  C1113   1.409   .     D
C1112  H1161   1.083   .     S
C1113  C1115   1.475   .     S
C1113  C1144   1.425   .     S
C1114  C1115   1.401   .     D
C1114  C1119   1.397   .     S
C1114  H1162   1.083   .     S
C1115  C1116   1.402   .     S
C1116  C1117   1.396   .     D
C1116  H1163   1.084   .     S
C1117  C1118   1.406   .     S
C1118  C1119   1.407   .     D
C1118  C1120   1.475   .     S
C1119  H1164   1.083   .     S
C1120  N1121   1.299   .     D
C1120  H1165   1.081   .     S
N1121  C1123   1.436   .     S
C1122  C1123   1.400   .     D
C1122  C1127   1.397   .     S
C1122  H1166   1.083   .     S
C1123  C1124   1.408   .     S
C1124  C1125   1.395   .     D
C1124  H1167   1.080   .     S
C1125  C1126   1.404   .     S
C1125  H1168   1.083   .     S
C1126  C1127   1.408   .     D
C1127  F1157   1.357   .     S
C1128  C1335   1.546   .     S
C1129  C1130   1.413   .     D
C1129  C1134   1.398   .     S
C1129  H1169   1.081   .     S
C1130  C1131   1.412   .     S
C1130  C1341   1.546   .     S
C1131  C1132   1.394   .     D
C1131  H1170   1.083   .     S
C1132  C1133   1.402   .     S
C1132  H1171   1.083   .     S
C1133  C1134   1.403   .     D
C1133  C1136   1.482   .     S
C1134  H1172   1.083   .     S
C1135  C1136   1.407   .     D
C1135  C1140   1.397   .     S
C1136  C1137   1.406   .     S
C1137  C1138   1.398   .     D
C1137  H1173   1.084   .     S
C1138  C1139   1.408   .     S
C1138  H1174   1.080   .     S
C1139  C1140   1.399   .     D
C1139  N1141   1.437   .     S
C1140  H1175   1.083   .     S
N1141  C1142   1.299   .     D
C1142  C1149   1.478   .     S
C1142  H1176   1.081   .     S
C1143  C1144   1.483   .     S
C1143  C1147   1.402   .     S
C1143  C1150   1.404   .     D
C1144  C1145   1.404   .     D
C1145  C1146   1.387   .     S
C1145  H1177   1.083   .     S
C1146  C1351   1.519   .     S
C1147  C1148   1.395   .     D
C1147  H1178   1.084   .     S
C1148  C1149   1.407   .     S
C1148  H1179   1.083   .     S
C1149  C1151   1.406   .     D
C1150  C1151   1.398   .     S
C1150  H1180   1.083   .     S
C1152  H1181   1.083   .     S
C1152  C1153   1.396   1_545 D
C1153  C1154   1.402   .     S
C1153  H1182   1.083   .     S
C1153  C1152   1.396   1_565 D
C1154  C1155   1.401   .     D
C1155  H1183   1.083   .     S
C1155  C1156   1.395   1_565 S
C1156  H1184   1.081   .     S
C1156  C1155   1.395   1_545 S
C1185  C1186   1.395   .     S
C1185  C1220   1.417   .     D
C1185  C1342   1.533   .     S
C1186  C1187   1.409   .     D
C1186  H1235   1.083   .     S
C1187  C1189   1.475   .     S
C1187  C1218   1.425   .     S
C1188  C1189   1.401   .     D
C1188  C1193   1.397   .     S
C1188  H1236   1.083   .     S
C1189  C1190   1.402   .     S
C1190  C1191   1.396   .     D
C1190  H1237   1.084   .     S
C1191  C1192   1.406   .     S
C1192  C1193   1.407   .     D
C1192  C1194   1.475   .     S
C1193  H1238   1.083   .     S
C1194  N1195   1.299   .     D
C1194  H1239   1.081   .     S
N1195  C1197   1.436   .     S
C1196  C1201   1.397   .     D
C1196  H1240   1.083   .     S
C1196  C1197   1.400   1_554 S
C1197  C1198   1.408   .     D
C1197  C1196   1.400   1_556 S
C1198  C1199   1.395   .     S
C1198  H1241   1.080   .     S
C1199  C1200   1.404   .     D
C1199  H1242   1.083   .     S
C1200  C1201   1.408   1_556 S
C1201  F1231   1.357   .     S
C1201  C1200   1.408   1_554 S
C1202  C342    1.414   1_556 S
C1202  C1336   1.546   1_556 S
C1203  C1204   1.413   .     D
C1203  C1208   1.398   .     S
C1203  H1243   1.081   .     S
C1204  C1205   1.412   .     S
C1204  C1333   1.546   .     S
C1205  C1206   1.394   .     D
C1205  H1244   1.083   .     S
C1206  C1207   1.402   .     S
C1206  H1245   1.083   .     S
C1207  C1208   1.403   .     D
C1207  C1210   1.482   .     S
C1208  H1246   1.083   .     S
C1209  C1210   1.407   .     D
C1209  C1214   1.397   .     S
C1210  C1211   1.406   .     S
C1211  C1212   1.398   .     D
C1211  H1247   1.084   .     S
C1212  C1213   1.408   .     S
C1212  H1248   1.080   .     S
C1213  C1214   1.399   .     D
C1213  N1215   1.437   .     S
C1214  H1249   1.083   .     S
N1215  C1216   1.299   .     D
C1216  C1223   1.478   .     S
C1216  H1250   1.081   .     S
C1217  C1218   1.483   .     S
C1217  C1221   1.402   .     S
C1217  C1224   1.404   .     D
C1218  C1219   1.404   .     D
C1219  C1220   1.387   .     S
C1219  H1251   1.083   .     S
C1220  C1343   1.520   .     S
C1221  C1222   1.395   .     D
C1221  H1252   1.084   .     S
C1222  C1223   1.407   .     S
C1222  H1253   1.083   .     S
C1223  C1225   1.406   .     D
C1224  C1225   1.398   .     S
C1224  H1254   1.083   .     S
C1226  C1227   1.396   .     D
C1226  H1255   1.083   .     S
C1227  C1228   1.402   .     S
C1227  H1256   1.083   .     S
C1228  C1229   1.401   .     D
C1229  C1230   1.395   .     S
C1229  H1257   1.083   .     S
C1230  H1258   1.081   .     S
C1259  C1260   1.395   .     S
C1259  C1294   1.417   .     D
C1259  C1346   1.532   1_565 S
C1260  C1261   1.409   .     D
C1260  H1309   1.083   .     S
C1261  C1263   1.475   .     S
C1261  C1292   1.425   .     S
C1262  C1267   1.397   .     D
C1262  H1310   1.083   .     S
C1262  C1263   1.401   1_655 S
C1263  C1264   1.402   .     D
C1263  C1262   1.401   1_455 S
C1264  C1265   1.396   .     S
C1264  H1311   1.084   .     S
C1265  C1266   1.406   .     D
C1266  C1268   1.475   .     S
C1266  C1267   1.407   1_455 S
C1267  H1312   1.083   .     S
C1267  C1266   1.407   1_655 S
C1268  H1313   1.081   .     S
C1268  N1269   1.299   1_455 D
N1269  C1271   1.436   .     S
N1269  C1268   1.299   1_655 D
C1270  C1271   1.400   .     D
C1270  C1275   1.397   .     S
C1270  H1314   1.083   .     S
C1271  C1272   1.408   1_655 S
C1272  H1315   1.080   .     S
C1272  C1271   1.408   1_455 S
C1272  C1273   1.395   1_455 D
C1273  C1274   1.404   .     S
C1273  C1272   1.395   1_655 D
C1273  H1316   1.083   1_655 S
C1274  C1275   1.408   .     D
C1275  F1305   1.357   .     S
C1276  C1340   1.546   .     S
C1277  C1282   1.398   .     D
C1277  H1317   1.081   .     S
C1277  C1278   1.413   1_655 S
C1278  C1279   1.412   .     D
C1278  C1334   1.546   .     S
C1278  C1277   1.413   1_455 S
C1279  C1280   1.394   .     S
C1279  H1318   1.083   .     S
C1280  C1281   1.402   .     D
C1280  H1319   1.083   .     S
C1281  C1284   1.482   .     S
C1281  C1282   1.403   1_455 S
C1282  H1320   1.083   .     S
C1282  C1281   1.403   1_655 S
C1283  C1284   1.407   .     D
C1283  C1288   1.397   .     S
C1284  C1285   1.406   1_455 S
C1285  C1286   1.398   .     D
C1285  H1321   1.084   .     S
C1285  C1284   1.406   1_655 S
C1286  H1322   1.080   .     S
C1286  C1287   1.408   1_655 S
C1287  C1288   1.399   .     D
C1287  N1289   1.437   .     S
C1287  C1286   1.408   1_455 S
C1288  H1323   1.083   .     S
N1289  C1290   1.299   1_455 D
C1290  H1324   1.081   .     S
C1290  N1289   1.299   1_655 D
C1290  C1297   1.478   1_655 S
C1291  C1292   1.483   .     S
C1291  C1295   1.402   .     S
C1291  C1298   1.404   1_455 D
C1292  C1293   1.404   .     D
C1293  C1294   1.387   .     S
C1293  H1325   1.083   .     S
C1294  C1347   1.520   1_565 S
C1295  C1296   1.395   .     D
C1295  H1326   1.084   .     S
C1296  C1297   1.407   .     S
C1296  H1327   1.083   .     S
C1297  C1290   1.478   1_455 S
C1297  C1299   1.406   1_455 D
C1298  C1299   1.398   .     S
C1298  H1328   1.083   .     S
C1298  C1291   1.404   1_655 D
C1299  C1297   1.406   1_655 D
C1300  C1301   1.396   .     S
C1300  H1329   1.083   .     S
C1301  C1302   1.402   .     D
C1301  H1330   1.083   .     S
C1302  C1303   1.401   1_554 S
C1303  C1304   1.395   .     D
C1303  H1331   1.083   .     S
C1303  C1302   1.401   1_556 S
C1304  H1332   1.081   .     S
C1304  C388    1.414   1_556 S
H1316  C1273   1.083   1_455 S
C1334  C94     1.546   1_454 S
C1334  C388    1.546   1_455 S
C1334  C758    1.546   1_554 S
C1336  C316    1.546   1_554 S
C1336  C1202   1.546   1_554 S
C1338  C538    1.546   1_554 S
C1338  C834    1.546   1_545 S
C1338  C980    1.546   1_544 S
C1342  H1344   1.111   .     S
C1343  H1345   1.112   .     S
C1346  H1348   1.111   .     S
C1346  C815    1.532   1_445 S
C1346  C1259   1.532   1_545 S
C1347  H1349   1.112   .     S
C1347  C850    1.520   1_445 S
C1347  C1294   1.520   1_545 S
C1350  H1352   1.111   .     S
C1351  H1353   1.112   .     S
C1354  H1356   1.111   .     S
C1355  H1357   1.112   .     S
C1358  H1360   1.111   .     S
C1359  H1361   1.112   .     S
C1362  H1364   1.111   .     S
C1362  C75     1.532   1_445 S
C1362  C519    1.532   1_455 S
C1363  H1365   1.112   .     S
C1363  C110    1.520   1_445 S
C1363  C554    1.520   1_455 S
