data_713
_audit_creation_date              2023-09-08
_audit_creation_method            'Materials Studio'
_symmetry_space_group_name_H-M    'P1'
_symmetry_Int_Tables_number       1
_symmetry_cell_setting            triclinic
loop_
_symmetry_equiv_pos_as_xyz
  x,y,z
_cell_length_a                    44.8000
_cell_length_b                    44.8000
_cell_length_c                    7.3000
_cell_angle_alpha                 90.0000
_cell_angle_beta                  90.0000
_cell_angle_gamma                 120.0000
loop_
_atom_site_label
_atom_site_type_symbol
_atom_site_fract_x
_atom_site_fract_y
_atom_site_fract_z
_atom_site_U_iso_or_equiv
_atom_site_adp_type
_atom_site_occupancy
C11    C     0.42237   0.21992   0.25781   0.00000  Uiso   1.00
C22    C     0.41081   0.18502   0.22779   0.00000  Uiso   1.00
C33    C     0.37580   0.16144   0.22422   0.00000  Uiso   1.00
C44    C     0.35197   0.17287   0.24240   0.00000  Uiso   1.00
N55    N     0.36280   0.20628   0.28439   0.00000  Uiso   1.00
C66    C     0.39753   0.22993   0.28945   0.00000  Uiso   1.00
C77    C     0.31476   0.15047   0.21405   0.00000  Uiso   1.00
C88    C     0.29991   0.11565   0.16560   0.00000  Uiso   1.00
C99    C     0.45979   0.24583   0.24354   0.00000  Uiso   1.00
C1010  C     0.26437   0.09514   0.16170   0.00000  Uiso   1.00
C1111  C     0.24319   0.10807   0.22029   0.00000  Uiso   1.00
C1212  C     0.25994   0.14295   0.27715   0.00000  Uiso   1.00
N1313  N     0.29462   0.16482   0.24531   0.00000  Uiso   1.00
C1414  C     0.20446   0.08506   0.21901   0.00000  Uiso   1.00
H1515  H     0.42861   0.17587   0.20068   0.00000  Uiso   1.00
H1616  H     0.40712   0.25675   0.31336   0.00000  Uiso   1.00
H1717  H     0.24512   0.15160   0.35064   0.00000  Uiso   1.00
H1818  H     0.25377   0.06880   0.11769   0.00000  Uiso   1.00
Rh1919 Rh    0.32404   0.21746   0.28478   0.00000  Uiso   1.00
C2020  C     0.30503   0.26007   0.19706   0.00000  Uiso   1.00
C2121  C     0.29198   0.24820   0.36860   0.00000  Uiso   1.00
C2222  C     0.26754   0.21434   0.35238   0.00000  Uiso   1.00
C2323  C     0.26566   0.20587   0.16937   0.00000  Uiso   1.00
C2424  C     0.29095   0.23331   0.07797   0.00000  Uiso   1.00
H2525  H     0.32080   0.28688   0.15909   0.00000  Uiso   1.00
H2626  H     0.29574   0.26433   0.48638   0.00000  Uiso   1.00
H2727  H     0.24855   0.19984   0.45545   0.00000  Uiso   1.00
H2828  H     0.24474   0.18360   0.10352   0.00000  Uiso   1.00
H2929  H     0.29344   0.23592  -0.06823   0.00000  Uiso   1.00
O3030  O     0.35707   0.26499   0.35102   0.00000  Uiso   1.00
H3131  H     0.37333   0.27519   0.24757   0.00000  Uiso   1.00
C3232  C     0.46953   0.27856   0.15811   0.00000  Uiso   1.00
C3333  C     0.52148   0.25943   0.26985   0.00000  Uiso   1.00
C3434  C     0.48380   0.23797   0.29825   0.00000  Uiso   1.00
C3535  C     0.18256   0.09688   0.25564   0.00000  Uiso   1.00
C3636  C     0.14421   0.07599   0.24852   0.00000  Uiso   1.00
C3737  C     0.19070   0.04976   0.15951   0.00000  Uiso   1.00
C3838  C     0.53971   0.24327   0.21210   0.00000  Uiso   1.00
C3939  C     0.57560   0.26187   0.19593   0.00000  Uiso   1.00
C4040  C     0.59406   0.29714   0.23897   0.00000  Uiso   1.00
C4141  C     0.57581   0.31334   0.29688   0.00000  Uiso   1.00
C4242  C     0.53988   0.29470   0.31267   0.00000  Uiso   1.00
C4343  C     0.12568   0.09134   0.18186   0.00000  Uiso   1.00
C4444  C     0.08969   0.07265   0.17259   0.00000  Uiso   1.00
C4545  C     0.07141   0.03816   0.23002   0.00000  Uiso   1.00
C4646  C     0.08982   0.02294   0.30016   0.00000  Uiso   1.00
C4747  C     0.12571   0.04189   0.31310   0.00000  Uiso   1.00
C4848  C     0.63226   0.31644   0.23104   0.00000  Uiso   1.00
C4949  C     0.03327   0.01824   0.22046   0.00000  Uiso   1.00
N5050  N     0.65001   0.29925   0.21785   0.00000  Uiso   1.00
N5151  N     0.01486   0.03476   0.21127   0.00000  Uiso   1.00
N5252  N     0.47710   0.30454   0.08882   0.00000  Uiso   1.00
N5353  N     0.17999   1.02159   0.11204   0.00000  Uiso   1.00
H5454  H     0.36791   0.13481   0.20218   0.00000  Uiso   1.00
H5555  H     0.31503   0.10397   0.12780   0.00000  Uiso   1.00
H5656  H     0.47541   0.21333   0.36250   0.00000  Uiso   1.00
H5757  H     0.19260   0.12395   0.27973   0.00000  Uiso   1.00
H5858  H     0.52609   0.21600   0.18032   0.00000  Uiso   1.00
H5959  H     0.58887   0.24872   0.14892   0.00000  Uiso   1.00
H6060  H     0.58923   0.34036   0.33333   0.00000  Uiso   1.00
H6161  H     0.52676   0.30759   0.36454   0.00000  Uiso   1.00
H6262  H     0.13908   0.11762   0.13350   0.00000  Uiso   1.00
H6363  H     0.07619   0.08504   0.11767   0.00000  Uiso   1.00
H6464  H     0.07643   0.99673   0.35071   0.00000  Uiso   1.00
H6565  H     0.13872   0.02990   0.37752   0.00000  Uiso   1.00
C6666  C     0.78041   0.20164   0.24573   0.00000  Uiso   1.00
C6767  C     0.81571   0.22444   0.27476   0.00000  Uiso   1.00
C6868  C     0.83757   0.21209   0.32117   0.00000  Uiso   1.00
C6969  C     0.82474   0.17662   0.33185   0.00000  Uiso   1.00
N7070  N     0.79078   0.15421   0.30182   0.00000  Uiso   1.00
C7171  C     0.76852   0.16591   0.25933   0.00000  Uiso   1.00
C7272  C     0.84713   0.16142   0.34010   0.00000  Uiso   1.00
C7373  C     0.88316   0.18158   0.34958   0.00000  Uiso   1.00
C7474  C     0.75618   0.21466   0.20112   0.00000  Uiso   1.00
C7575  C     0.90312   0.16709   0.30468   0.00000  Uiso   1.00
C7676  C     0.88757   0.13322   0.24116   0.00000  Uiso   1.00
C7777  C     0.85121   0.11427   0.22990   0.00000  Uiso   1.00
N7878  N     0.83153   0.12701   0.30346   0.00000  Uiso   1.00
C7979  C     0.90959   0.11821   0.19264   0.00000  Uiso   1.00
H8080  H     0.82717   0.25195   0.25850   0.00000  Uiso   1.00
H8181  H     0.74182   0.14836   0.23170   0.00000  Uiso   1.00
H8282  H     0.83965   0.09008   0.15778   0.00000  Uiso   1.00
H8383  H     0.93081   0.18265   0.31604   0.00000  Uiso   1.00
Rh8484 Rh    0.77864   0.10432   0.32269   0.00000  Uiso   1.00
C8585  C     0.74147   0.04497   0.45536   0.00000  Uiso   1.00
C8686  C     0.77358   0.05661   0.52372   0.00000  Uiso   1.00
C8787  C     0.79369   0.05686   0.38435   0.00000  Uiso   1.00
C8888  C     0.77535   0.04990   0.22340   0.00000  Uiso   1.00
C8989  C     0.74247   0.04130   0.26923   0.00000  Uiso   1.00
H9090  H     0.71828   0.03552   0.53661   0.00000  Uiso   1.00
H9191  H     0.77931   0.05669   0.66627   0.00000  Uiso   1.00
H9292  H     0.81768   0.05698   0.40367   0.00000  Uiso   1.00
H9393  H     0.78298   0.04450   0.09318   0.00000  Uiso   1.00
H9494  H     0.72008   0.02846   0.18168   0.00000  Uiso   1.00
O9595  O     0.72982   0.09059   0.33618   0.00000  Uiso   1.00
H9696  H     0.72305   0.09452   0.21380   0.00000  Uiso   1.00
C9797  C     0.72382   0.19161   0.11296   0.00000  Uiso   1.00
C9898  C     0.74195   0.26267   0.21612   0.00000  Uiso   1.00
C9999  C     0.76390   0.24702   0.24603   0.00000  Uiso   1.00
C100100 C     0.89951   0.08515   0.23390   0.00000  Uiso   1.00
C101101 C     0.92122   0.06889   0.21581   0.00000  Uiso   1.00
C102102 C     0.94306   0.14083   0.11307   0.00000  Uiso   1.00
C103103 C     0.75817   0.29768   0.16946   0.00000  Uiso   1.00
C104104 C     0.73953   0.31499   0.16449   0.00000  Uiso   1.00
C105105 C     0.70422   0.29768   0.20735   0.00000  Uiso   1.00
C106106 C     0.68777   0.26245   0.24980   0.00000  Uiso   1.00
C107107 C     0.70650   0.24519   0.25644   0.00000  Uiso   1.00
C108108 C     0.90565   0.03419   0.16379   0.00000  Uiso   1.00
C109109 C     0.92479   0.01734   0.15815   0.00000  Uiso   1.00
C110110 C     0.95988   0.03481   0.20603   0.00000  Uiso   1.00
C111111 C     0.97542   0.06945   0.25959   0.00000  Uiso   1.00
C112112 C     0.95617   0.08611   0.26724   0.00000  Uiso   1.00
C113113 C     0.68504   0.31658   0.21589   0.00000  Uiso   1.00
C114114 C     0.97983   0.01667   0.20816   0.00000  Uiso   1.00
N115115 N     0.70235   0.35146   0.22883   0.00000  Uiso   1.00
N116116 N     0.96325   0.98176   0.21445   0.00000  Uiso   1.00
N117117 N     0.69769   0.17271   0.04484   0.00000  Uiso   1.00
N118118 N     0.03013   0.15935   0.05042   0.00000  Uiso   1.00
H119119 H     0.86439   0.23045   0.34272   0.00000  Uiso   1.00
H120120 H     0.89624   0.20833   0.38946   0.00000  Uiso   1.00
H121121 H     0.78792   0.26396   0.31363   0.00000  Uiso   1.00
H122122 H     0.87385   0.06879   0.28824   0.00000  Uiso   1.00
H123123 H     0.78557   0.31183   0.14009   0.00000  Uiso   1.00
H124124 H     0.75279   0.34201   0.12910   0.00000  Uiso   1.00
H125125 H     0.66067   0.24839   0.28481   0.00000  Uiso   1.00
H126126 H     0.69345   0.21873   0.30149   0.00000  Uiso   1.00
H127127 H     0.87862   0.02011   0.12728   0.00000  Uiso   1.00
H128128 H     0.91207   0.99056   0.11665   0.00000  Uiso   1.00
H129129 H     0.00222   0.08343   0.30168   0.00000  Uiso   1.00
H130130 H     0.96850   0.11209   0.31972   0.00000  Uiso   1.00
C131131 C     0.79954   0.57839   0.23915   0.00000  Uiso   1.00
C132132 C     0.77544   0.58979   0.24742   0.00000  Uiso   1.00
C133133 C     0.78631   0.62470   0.24595   0.00000  Uiso   1.00
C134134 C     0.82159   0.64862   0.23698   0.00000  Uiso   1.00
N135135 N     0.84455   0.63792   0.20741   0.00000  Uiso   1.00
C136136 C     0.83461   0.60362   0.21458   0.00000  Uiso   1.00
C137137 C     0.83590   0.68589   0.25258   0.00000  Uiso   1.00
C138138 C     0.81553   0.70040   0.30018   0.00000  Uiso   1.00
C139139 C     0.78822   0.54073   0.24453   0.00000  Uiso   1.00
C140140 C     0.82969   0.73577   0.29310   0.00000  Uiso   1.00
C141141 C     0.86318   0.75640   0.22797   0.00000  Uiso   1.00
C142142 C     0.88238   0.74052   0.17844   0.00000  Uiso   1.00
N143143 N     0.87027   0.70615   0.21526   0.00000  Uiso   1.00
C144144 C     0.87758   0.79415   0.21136   0.00000  Uiso   1.00
H145145 H     0.74798   0.57206   0.24905   0.00000  Uiso   1.00
H146146 H     0.85338   0.59537   0.20615   0.00000  Uiso   1.00
H147147 H     0.90599   0.75638   0.10676   0.00000  Uiso   1.00
H148148 H     0.81427   0.74698   0.33484   0.00000  Uiso   1.00
Rh149149 Rh    0.89376   0.67662   0.18600   0.00000  Uiso   1.00
C150150 C     0.95704   0.69721   0.23731   0.00000  Uiso   1.00
C151151 C     0.94717   0.71338   0.35990   0.00000  Uiso   1.00
C152152 C     0.94206   0.73650   0.26479   0.00000  Uiso   1.00
C153153 C     0.94419   0.73125   0.07972   0.00000  Uiso   1.00
C154154 C     0.95354   0.70675   0.06370   0.00000  Uiso   1.00
H155155 H     0.96910   0.68224   0.27191   0.00000  Uiso   1.00
H156156 H     0.95109   0.71383   0.50542   0.00000  Uiso   1.00
H157157 H     0.94168   0.75821   0.32659   0.00000  Uiso   1.00
H158158 H     0.94546   0.74791  -0.03029   0.00000  Uiso   1.00
H159159 H     0.96273   0.70068  -0.05927   0.00000  Uiso   1.00
O160160 O     0.90649   0.64179   0.13709   0.00000  Uiso   1.00
H161161 H     0.90172   0.63664   0.00507   0.00000  Uiso   1.00
C162162 C     0.81125   0.52975   0.17288   0.00000  Uiso   1.00
C163163 C     0.73992   0.47947   0.28923   0.00000  Uiso   1.00
C164164 C     0.75685   0.51737   0.31024   0.00000  Uiso   1.00
C165165 C     0.91062   0.81618   0.25812   0.00000  Uiso   1.00
C166166 C     0.92795   0.85429   0.25023   0.00000  Uiso   1.00
C167167 C     0.85493   0.80607   0.14576   0.00000  Uiso   1.00
C168168 C     0.70513   0.46165   0.23647   0.00000  Uiso   1.00
C169169 C     0.68736   0.42585   0.22051   0.00000  Uiso   1.00
C170170 C     0.70402   0.40703   0.25842   0.00000  Uiso   1.00
C171171 C     0.73875   0.42479   0.31322   0.00000  Uiso   1.00
C172172 C     0.75645   0.46068   0.33031   0.00000  Uiso   1.00
C173173 C     0.96259   0.87278   0.19513   0.00000  Uiso   1.00
C174174 C     0.97994   0.90867   0.18606   0.00000  Uiso   1.00
C175175 C     0.96307   0.92686   0.23310   0.00000  Uiso   1.00
C176176 C     0.92864   0.90844   0.29255   0.00000  Uiso   1.00
C177177 C     0.91150   0.87259   0.30446   0.00000  Uiso   1.00
C178178 C     0.68502   0.36904   0.24238   0.00000  Uiso   1.00
C179179 C     0.98133   0.96489   0.22298   0.00000  Uiso   1.00
N180180 N     0.64997   0.35134   0.24340   0.00000  Uiso   1.00
N181181 N     0.01633   0.98327   0.22631   0.00000  Uiso   1.00
N182182 N     0.83020   0.52136   0.11757   0.00000  Uiso   1.00
N183183 N     0.83654   0.81538   0.09396   0.00000  Uiso   1.00
H184184 H     0.76715   0.63252   0.24625   0.00000  Uiso   1.00
H185185 H     0.78910   0.68504   0.34476   0.00000  Uiso   1.00
H186186 H     0.74068   0.52597   0.37275   0.00000  Uiso   1.00
H187187 H     0.92669   0.80568   0.29991   0.00000  Uiso   1.00
H188188 H     0.69174   0.47559   0.20624   0.00000  Uiso   1.00
H189189 H     0.66073   0.41290   0.17634   0.00000  Uiso   1.00
H190190 H     0.75216   0.41098   0.34593   0.00000  Uiso   1.00
H191191 H     0.78265   0.47345   0.37964   0.00000  Uiso   1.00
H192192 H     0.97598   0.85928   0.15557   0.00000  Uiso   1.00
H193193 H     0.00641   0.92216   0.13904   0.00000  Uiso   1.00
H194194 H     0.91520   0.92178   0.33431   0.00000  Uiso   1.00
H195195 H     0.88570   0.85937   0.35988   0.00000  Uiso   1.00
C196196 C     0.24504   0.11270   0.71962   0.00000  Uiso   1.00
C197197 C     0.25733   0.14830   0.72904   0.00000  Uiso   1.00
C198198 C     0.29231   0.17133   0.74442   0.00000  Uiso   1.00
C199199 C     0.31557   0.15909   0.74933   0.00000  Uiso   1.00
N200200 N     0.30458   0.12528   0.71892   0.00000  Uiso   1.00
C201201 C     0.26981   0.10190   0.70996   0.00000  Uiso   1.00
C202202 C     0.35269   0.18155   0.77485   0.00000  Uiso   1.00
C203203 C     0.36736   0.21636   0.82311   0.00000  Uiso   1.00
C204204 C     0.20701   0.08715   0.71329   0.00000  Uiso   1.00
C205205 C     0.40274   0.23750   0.81379   0.00000  Uiso   1.00
C206206 C     0.42312   0.22463   0.74523   0.00000  Uiso   1.00
C207207 C     0.40703   0.18952   0.69758   0.00000  Uiso   1.00
N208208 N     0.37289   0.16740   0.73949   0.00000  Uiso   1.00
C209209 C     0.46078   0.24796   0.72340   0.00000  Uiso   1.00
H210210 H     0.24040   0.15891   0.72078   0.00000  Uiso   1.00
H211211 H     0.26031   0.07482   0.69980   0.00000  Uiso   1.00
H212212 H     0.42233   0.18130   0.62343   0.00000  Uiso   1.00
H213213 H     0.41409   0.26405   0.85561   0.00000  Uiso   1.00
Rh214214 Rh    0.34357   0.11439   0.71587   0.00000  Uiso   1.00
C215215 C     0.36531   0.07324   0.79451   0.00000  Uiso   1.00
C216216 C     0.38161   0.10094   0.90643   0.00000  Uiso   1.00
C217217 C     0.40434   0.12777   0.80187   0.00000  Uiso   1.00
C218218 C     0.39866   0.11788   0.62024   0.00000  Uiso   1.00
C219219 C     0.37458   0.08377   0.61682   0.00000  Uiso   1.00
H220220 H     0.35090   0.04670   0.83994   0.00000  Uiso   1.00
H221221 H     0.38270   0.09945   1.05322   0.00000  Uiso   1.00
H222222 H     0.42624   0.15056   0.85629   0.00000  Uiso   1.00
H223223 H     0.41506   0.13181   0.50662   0.00000  Uiso   1.00
H224224 H     0.36864   0.06676   0.50112   0.00000  Uiso   1.00
O225225 O     0.30997   0.06584   0.67578   0.00000  Uiso   1.00
H226226 H     0.29660   0.06428   0.56454   0.00000  Uiso   1.00
C227227 C     0.19599   0.05314   0.64234   0.00000  Uiso   1.00
C228228 C     0.14551   0.07438   0.75107   0.00000  Uiso   1.00
C229229 C     0.18347   0.09565   0.77088   0.00000  Uiso   1.00
C230230 C     0.48312   0.23709   0.76621   0.00000  Uiso   1.00
C231231 C     0.52129   0.25802   0.75430   0.00000  Uiso   1.00
C232232 C     0.47226   0.28229   0.65623   0.00000  Uiso   1.00
C233233 C     0.12724   0.09082   0.69723   0.00000  Uiso   1.00
C234234 C     0.09127   0.07246   0.68628   0.00000  Uiso   1.00
C235235 C     0.07277   0.03728   0.73084   0.00000  Uiso   1.00
C236236 C     0.09101   0.02088   0.78621   0.00000  Uiso   1.00
C237237 C     0.12700   0.03929   0.79757   0.00000  Uiso   1.00
C238238 C     0.53979   0.24190   0.69966   0.00000  Uiso   1.00
C239239 C     0.57583   0.26044   0.69159   0.00000  Uiso   1.00
C240240 C     0.59411   0.29543   0.73981   0.00000  Uiso   1.00
C241241 C     0.57559   0.31141   0.79735   0.00000  Uiso   1.00
C242242 C     0.53966   0.29277   0.80759   0.00000  Uiso   1.00
C243243 C     0.03462   0.01788   0.72220   0.00000  Uiso   1.00
C244244 C     0.63224   0.31522   0.73252   0.00000  Uiso   1.00
N245245 N     0.01667   0.03487   0.71263   0.00000  Uiso   1.00
N246246 N     0.65055   0.29864   0.72046   0.00000  Uiso   1.00
N247247 N     0.18764   0.02579   0.58735   0.00000  Uiso   1.00
N248248 N     0.48123   0.30986   0.60346   0.00000  Uiso   1.00
H249249 H     0.30088   0.19849   0.74737   0.00000  Uiso   1.00
H250250 H     0.35196   0.22736   0.86869   0.00000  Uiso   1.00
H251251 H     0.19212   0.12074   0.82925   0.00000  Uiso   1.00
H252252 H     0.47288   0.21061   0.80971   0.00000  Uiso   1.00
H253253 H     0.14098   0.11796   0.66276   0.00000  Uiso   1.00
H254254 H     0.07800   0.08584   0.64244   0.00000  Uiso   1.00
H255255 H     0.07749   0.00604   0.82481   0.00000  Uiso   1.00
H256256 H     0.14012   0.02621   0.84725   0.00000  Uiso   1.00
H257257 H     0.52631   0.21503   0.66027   0.00000  Uiso   1.00
H258258 H     0.58928   0.24735   0.64587   0.00000  Uiso   1.00
H259259 H     0.58885   0.33817   0.83906   0.00000  Uiso   1.00
H260260 H     0.52653   0.30555   0.86162   0.00000  Uiso   1.00
C261261 C     0.88617   0.13231   0.75081   0.00000  Uiso   1.00
C262262 C     0.85086   0.10951   0.77858   0.00000  Uiso   1.00
C263263 C     0.82877   0.12172   0.82242   0.00000  Uiso   1.00
C264264 C     0.84149   0.15724   0.83163   0.00000  Uiso   1.00
N265265 N     0.87551   0.17969   0.80295   0.00000  Uiso   1.00
C266266 C     0.89791   0.16800   0.76284   0.00000  Uiso   1.00
C267267 C     0.81901   0.17233   0.83759   0.00000  Uiso   1.00
C268268 C     0.78296   0.15203   0.84724   0.00000  Uiso   1.00
C269269 C     0.91051   0.11933   0.70778   0.00000  Uiso   1.00
C270270 C     0.76286   0.16640   0.80261   0.00000  Uiso   1.00
C271271 C     0.77831   0.20026   0.73859   0.00000  Uiso   1.00
C272272 C     0.81463   0.21933   0.72754   0.00000  Uiso   1.00
N273273 N     0.83451   0.20673   0.80046   0.00000  Uiso   1.00
C274274 C     0.75619   0.21510   0.68817   0.00000  Uiso   1.00
H275275 H     0.83966   0.08201   0.76342   0.00000  Uiso   1.00
H276276 H     0.92463   0.18549   0.73520   0.00000  Uiso   1.00
H277277 H     0.82592   0.24347   0.65583   0.00000  Uiso   1.00
H278278 H     0.73514   0.15083   0.81548   0.00000  Uiso   1.00
Rh279279 Rh    0.88745   0.22954   0.82148   0.00000  Uiso   1.00
C280280 C     0.92524   0.28977   0.94495   0.00000  Uiso   1.00
C281281 C     0.89359   0.27781   1.02026   0.00000  Uiso   1.00
C282282 C     0.87219   0.27655   0.88501   0.00000  Uiso   1.00
C283283 C     0.88938   0.28315   0.72009   0.00000  Uiso   1.00
C284284 C     0.92267   0.29212   0.75886   0.00000  Uiso   1.00
H285285 H     0.94913   0.29992   1.02077   0.00000  Uiso   1.00
H286286 H     0.88888   0.27800   1.16413   0.00000  Uiso   1.00
H287287 H     0.84798   0.27579   0.90870   0.00000  Uiso   1.00
H288288 H     0.88070   0.28779   0.59124   0.00000  Uiso   1.00
H289289 H     0.94423   0.30439   0.66548   0.00000  Uiso   1.00
O290290 O     0.93623   0.24331   0.83848   0.00000  Uiso   1.00
H291291 H     0.94341   0.23959   0.71668   0.00000  Uiso   1.00
C292292 C     0.94283   0.14236   0.61938   0.00000  Uiso   1.00
C293293 C     0.92455   0.07113   0.72212   0.00000  Uiso   1.00
C294294 C     0.90279   0.08697   0.75333   0.00000  Uiso   1.00
C295295 C     0.76599   0.24814   0.72864   0.00000  Uiso   1.00
C296296 C     0.74407   0.26425   0.71072   0.00000  Uiso   1.00
C297297 C     0.72303   0.19229   0.60604   0.00000  Uiso   1.00
C298298 C     0.90819   0.03613   0.67417   0.00000  Uiso   1.00
C299299 C     0.92684   0.01880   0.66473   0.00000  Uiso   1.00
C300300 C     0.96227   0.03610   0.70496   0.00000  Uiso   1.00
C301301 C     0.97871   0.07120   0.75148   0.00000  Uiso   1.00
C302302 C     0.96003   0.08846   0.76139   0.00000  Uiso   1.00
C303303 C     0.75964   0.29913   0.66234   0.00000  Uiso   1.00
C304304 C     0.74056   0.31607   0.66173   0.00000  Uiso   1.00
C305305 C     0.70547   0.29846   0.70971   0.00000  Uiso   1.00
C306306 C     0.68983   0.26350   0.75772   0.00000  Uiso   1.00
C307307 C     0.70905   0.24677   0.76090   0.00000  Uiso   1.00
C308308 C     0.98164   0.01730   0.70722   0.00000  Uiso   1.00
C309309 C     0.68561   0.31670   0.71764   0.00000  Uiso   1.00
N310310 N     0.96456   0.01768   0.71232   0.00000  Uiso   1.00
N311311 N     0.70225   0.35161   0.72849   0.00000  Uiso   1.00
N312312 N     0.96890   0.16119   0.55026   0.00000  Uiso   1.00
N313313 N     0.69650   0.17382   0.54104   0.00000  Uiso   1.00
H314314 H     0.80195   0.10322   0.84496   0.00000  Uiso   1.00
H315315 H     0.76998   0.12528   0.88774   0.00000  Uiso   1.00
H316316 H     0.87880   0.07012   0.82149   0.00000  Uiso   1.00
H317317 H     0.79151   0.26453   0.78462   0.00000  Uiso   1.00
H318318 H     0.88071   0.02205   0.64679   0.00000  Uiso   1.00
H319319 H     0.91343   0.00821   0.62784   0.00000  Uiso   1.00
H320320 H     1.00581   0.08512   0.78673   0.00000  Uiso   1.00
H321321 H     0.97318   0.11486   0.80803   0.00000  Uiso   1.00
H322322 H     0.78668   0.31334   0.62527   0.00000  Uiso   1.00
H323323 H     0.75333   0.34302   0.62395   0.00000  Uiso   1.00
H324324 H     0.66303   0.24939   0.80009   0.00000  Uiso   1.00
H325325 H     0.69672   0.22060   0.81027   0.00000  Uiso   1.00
C326326 C     0.86870   0.75532   0.73532   0.00000  Uiso   1.00
C327327 C     0.89200   0.74420   0.69027   0.00000  Uiso   1.00
C328328 C     0.88105   0.70941   0.68231   0.00000  Uiso   1.00
C329329 C     0.84617   0.68524   0.71185   0.00000  Uiso   1.00
N330330 N     0.82350   0.69567   0.76097   0.00000  Uiso   1.00
C331331 C     0.83427   0.73021   0.77432   0.00000  Uiso   1.00
C332332 C     0.83203   0.64797   0.69710   0.00000  Uiso   1.00
C333333 C     0.85219   0.63312   0.65361   0.00000  Uiso   1.00
C334334 C     0.87993   0.79271   0.73042   0.00000  Uiso   1.00
C335335 C     0.83815   0.59783   0.66797   0.00000  Uiso   1.00
C336336 C     0.80498   0.57728   0.74014   0.00000  Uiso   1.00
C337337 C     0.78695   0.59429   0.79417   0.00000  Uiso   1.00
N338338 N     0.79821   0.62781   0.74382   0.00000  Uiso   1.00
C339339 C     0.78954   0.53874   0.74983   0.00000  Uiso   1.00
H340340 H     0.91861   0.76229   0.65674   0.00000  Uiso   1.00
H341341 H     0.81715   0.73928   0.81286   0.00000  Uiso   1.00
H342342 H     0.76460   0.58061   0.87746   0.00000  Uiso   1.00
H343343 H     0.85385   0.58703   0.62450   0.00000  Uiso   1.00
Rh344344 Rh    0.77386   0.65635   0.77099   0.00000  Uiso   1.00
C345345 C     0.71154   0.63407   0.68533   0.00000  Uiso   1.00
C346346 C     0.71178   0.62509   0.86491   0.00000  Uiso   1.00
C347347 C     0.72198   0.60111   0.86833   0.00000  Uiso   1.00
C348348 C     0.72699   0.59493   0.68887   0.00000  Uiso   1.00
C349349 C     0.72343   0.61741   0.57936   0.00000  Uiso   1.00
H350350 H     0.69974   0.64845   0.63449   0.00000  Uiso   1.00
H351351 H     0.69993   0.63112   0.97678   0.00000  Uiso   1.00
H352352 H     0.71885   0.58480   0.98381   0.00000  Uiso   1.00
H353353 H     0.72804   0.57275   0.63881   0.00000  Uiso   1.00
H354354 H     0.72156   0.61594   0.43275   0.00000  Uiso   1.00
O355355 O     0.75826   0.68937   0.81396   0.00000  Uiso   1.00
H356356 H     0.76677   0.70590   0.71118   0.00000  Uiso   1.00
C357357 C     0.85617   0.80259   0.65718   0.00000  Uiso   1.00
C358358 C     0.92857   0.85434   0.75785   0.00000  Uiso   1.00
C359359 C     0.91229   0.81648   0.78023   0.00000  Uiso   1.00
C360360 C     0.75593   0.51718   0.79028   0.00000  Uiso   1.00
C361361 C     0.73793   0.47890   0.78326   0.00000  Uiso   1.00
C362362 C     0.81091   0.52460   0.69291   0.00000  Uiso   1.00
C363363 C     0.96330   0.87273   0.70452   0.00000  Uiso   1.00
C364364 C     0.98061   0.90859   0.69101   0.00000  Uiso   1.00
C365365 C     0.96353   0.92690   0.73163   0.00000  Uiso   1.00
C366366 C     0.92885   0.90857   0.78651   0.00000  Uiso   1.00
C367367 C     0.91162   0.87267   0.80112   0.00000  Uiso   1.00
C368368 C     0.70397   0.46097   0.71677   0.00000  Uiso   1.00
C369369 C     0.68634   0.42505   0.70427   0.00000  Uiso   1.00
C370370 C     0.70238   0.40633   0.75749   0.00000  Uiso   1.00
C371371 C     0.73589   0.42413   0.82906   0.00000  Uiso   1.00
C372372 C     0.75320   0.45992   0.84529   0.00000  Uiso   1.00
C373373 C     0.98216   0.96495   0.72192   0.00000  Uiso   1.00
C374374 C     0.68421   0.36845   0.74104   0.00000  Uiso   1.00
N375375 N     1.01715   0.98291   0.72690   0.00000  Uiso   1.00
N376376 N     0.64925   0.35011   0.74250   0.00000  Uiso   1.00
N377377 N     0.83682   0.81022   0.59946   0.00000  Uiso   1.00
N378378 N     0.82823   0.51358   0.64728   0.00000  Uiso   1.00
H379379 H     0.89985   0.70193   0.65008   0.00000  Uiso   1.00
H380380 H     0.87837   0.64806   0.60545   0.00000  Uiso   1.00
H381381 H     0.92912   0.80768   0.83316   0.00000  Uiso   1.00
H382382 H     0.73911   0.52745   0.81484   0.00000  Uiso   1.00
H383383 H     0.97703   0.85921   0.67253   0.00000  Uiso   1.00
H384384 H     1.00732   0.92200   0.64806   0.00000  Uiso   1.00
H385385 H     0.91520   0.92193   0.82359   0.00000  Uiso   1.00
H386386 H     0.88553   0.85955   0.85196   0.00000  Uiso   1.00
H387387 H     0.69130   0.47487   0.67050   0.00000  Uiso   1.00
H388388 H     0.66041   0.41199   0.64925   0.00000  Uiso   1.00
H389389 H     0.74858   0.41035   0.87691   0.00000  Uiso   1.00
H390390 H     0.77832   0.47256   0.90883   0.00000  Uiso   1.00
H391391 H     0.29452   0.05769   0.78381   0.00000  Uiso   1.00
H392392 H     0.36969   0.26415   0.45988   0.00000  Uiso   1.00
H393393 H     0.72765   0.10604   0.42518   0.00000  Uiso   1.00
H394394 H     0.93820   0.22775   0.92717   0.00000  Uiso   1.00
H395395 H     0.76936   0.70169   0.92871   0.00000  Uiso   1.00
loop_
_geom_bond_atom_site_label_1
_geom_bond_atom_site_label_2
_geom_bond_distance
_geom_bond_site_symmetry_2
_ccdc_geom_bond_type
C11    C22     1.397   .     S
C11    C66     1.411   .     D
C11    C99     1.491   .     S
C22    C33     1.386   .     D
C22    H1515   1.082   .     S
C33    C44     1.402   .     S
C33    H5454   1.074   .     S
C44    N55     1.358   .     D
C44    C77     1.468   .     S
N55    C66     1.377   .     S
N55    Rh1919  2.034   .     S
C66    H1616   1.069   .     S
C77    C88     1.401   .     S
C77    N1313   1.364   .     D
C88    C1010   1.385   .     D
C88    H5555   1.079   .     S
C99    C3232   1.446   .     S
C99    C3434   1.349   .     D
C1010  C1111   1.403   .     S
C1010  H1818   1.077   .     S
C1111  C1212   1.416   .     D
C1111  C1414   1.512   .     S
C1212  N1313   1.380   .     S
C1212  H1717   1.066   .     S
N1313  Rh1919  2.067   .     S
C1414  C3535   1.354   .     D
C1414  C3737   1.447   .     S
Rh1919 O3030   1.951   .     S
C2020  C2121   1.372   .     S
C2020  C2424   1.355   .     D
C2020  H2525   1.082   .     S
C2121  C2222   1.361   .     S
C2121  H2626   1.081   .     S
C2222  C2323   1.380   .     D
C2222  H2727   1.077   .     S
C2323  C2424   1.359   .     S
C2323  H2828   1.082   .     S
C2424  H2929   1.073   .     S
O3030  H3131   0.988   .     S
O3030  H392392  0.987   .     S
C3232  N5252   1.154   .     T
C3333  C3434   1.481   .     S
C3333  C3838   1.400   .     S
C3333  C4242   1.404   .     D
C3434  H5656   1.079   .     S
C3535  C3636   1.491   .     S
C3535  H5757   1.076   .     S
C3636  C4343   1.403   .     S
C3636  C4747   1.406   .     D
C3737  N5353   1.156   1_545 T
C3838  C3939   1.398   .     D
C3838  H5858   1.083   .     S
C3939  C4040   1.404   .     S
C3939  H5959   1.081   .     S
C4040  C4141   1.403   .     D
C4040  C4848   1.483   .     S
C4141  C4242   1.399   .     S
C4141  H6060   1.082   .     S
C4242  H6161   1.078   .     S
C4343  C4444   1.398   .     D
C4343  H6262   1.079   .     S
C4444  C4545   1.403   .     S
C4444  H6363   1.082   .     S
C4545  C4646   1.403   .     D
C4545  C4949   1.482   .     S
C4646  C4747   1.396   .     S
C4646  H6464   1.082   1_545 S
C4747  H6565   1.078   .     S
C4848  N5050   1.359   .     S
C4848  N180180  1.357   .     D
C4949  N5151   1.358   .     D
C4949  N181181  1.358   1_545 S
N5050  C113113  1.359   .     D
N5151  C114114  1.360   1_455 S
N5353  C3737   1.156   1_565 T
H6464  C4646   1.082   1_565 S
C6666  C6767   1.405   .     D
C6666  C7171   1.415   .     S
C6666  C7474   1.503   .     S
C6767  C6868   1.386   .     S
C6767  H8080   1.079   .     S
C6868  C6969   1.396   .     D
C6868  H119119  1.075   .     S
C6969  N7070   1.358   .     S
C6969  C7272   1.469   .     S
N7070  C7171   1.374   .     D
N7070  Rh8484  2.025   .     S
C7171  H8181   1.072   .     S
C7272  C7373   1.403   .     D
C7272  N7878   1.363   .     S
C7373  C7575   1.382   .     S
C7373  H120120  1.078   .     S
C7474  C9797   1.444   .     S
C7474  C9999   1.352   .     D
C7575  C7676   1.395   .     D
C7575  H8383   1.080   .     S
C7676  C7777   1.414   .     S
C7676  C7979   1.488   .     S
C7777  N7878   1.376   .     D
C7777  H8282   1.076   .     S
N7878  Rh8484  2.064   .     S
C7979  C100100  1.349   .     S
C7979  C102102  1.447   .     D
Rh8484 O9595   1.956   .     S
C8585  C8686   1.357   .     S
C8585  C8989   1.372   .     D
C8585  H9090   1.082   .     S
C8686  C8787   1.355   .     S
C8686  H9191   1.071   .     S
C8787  C8888   1.377   .     D
C8787  H9292   1.081   .     S
C8888  C8989   1.365   .     S
C8888  H9393   1.078   .     S
C8989  H9494   1.081   .     S
O9595  H9696   0.987   .     S
O9595  H393393  0.989   .     S
C9797  N117117  1.159   .     T
C9898  C9999   1.482   .     S
C9898  C103103  1.402   .     D
C9898  C107107  1.407   .     S
C9999  H121121  1.077   .     S
C100100 C101101  1.484   .     D
C100100 H122122  1.083   .     S
C101101 C108108  1.401   .     S
C101101 C112112  1.407   .     S
C103103 C104104  1.396   .     S
C103103 H123123  1.085   .     S
C104104 C105105  1.405   .     D
C104104 H124124  1.080   .     S
C105105 C106106  1.403   .     S
C105105 C113113  1.479   .     S
C106106 C107107  1.398   .     D
C106106 H125125  1.082   .     S
C107107 H126126  1.078   .     S
C108108 C109109  1.398   .     D
C108108 H127127  1.082   .     S
C109109 C110110  1.406   .     S
C109109 H128128  1.083   1_545 S
C110110 C111111  1.402   .     S
C110110 C114114  1.478   .     D
C111111 C112112  1.396   .     D
C111111 H129129  1.085   1_655 S
C112112 H130130  1.079   .     S
C113113 N115115  1.357   .     S
C114114 N5151   1.360   1_655 S
C114114 N116116  1.356   1_545 S
N115115 C178178  1.358   .     D
N116116 C179179  1.358   .     S
N116116 C114114  1.356   1_565 S
H128128 C109109  1.083   1_565 S
H129129 C111111  1.085   1_455 S
C131131 C132132  1.408   .     D
C131131 C136136  1.415   .     S
C131131 C139139  1.500   .     S
C132132 C133133  1.386   .     S
C132132 H145145  1.080   .     S
C133133 C134134  1.399   .     D
C133133 H184184  1.077   .     S
C134134 N135135  1.352   .     S
C134134 C137137  1.463   .     S
N135135 C136136  1.370   .     D
N135135 Rh149149  2.017   .     S
C136136 H146146  1.076   .     S
C137137 C138138  1.403   .     D
C137137 N143143  1.368   .     S
C138138 C140140  1.382   .     S
C138138 H185185  1.080   .     S
C139139 C162162  1.445   .     S
C139139 C164164  1.353   .     D
C140140 C141141  1.395   .     D
C140140 H148148  1.081   .     S
C141141 C142142  1.410   .     S
C141141 C144144  1.483   .     S
C142142 N143143  1.379   .     D
C142142 H147147  1.070   .     S
N143143 Rh149149  2.073   .     S
C144144 C165165  1.349   .     D
C144144 C167167  1.444   .     S
Rh149149 O160160  1.944   .     S
C150150 C151151  1.357   .     S
C150150 C154154  1.371   .     D
C150150 H155155  1.081   .     S
C151151 C152152  1.358   .     S
C151151 H156156  1.075   .     S
C152152 C153153  1.383   .     D
C152152 H157157  1.080   .     S
C153153 C154154  1.361   .     S
C153153 H158158  1.078   .     S
C154154 H159159  1.078   .     S
O160160 H161161  0.989   .     S
C162162 N182182  1.159   .     T
C163163 C164164  1.481   .     S
C163163 C168168  1.404   .     D
C163163 C172172  1.404   .     S
C164164 H186186  1.077   .     S
C165165 C166166  1.482   .     S
C165165 H187187  1.082   .     S
C166166 C173173  1.404   .     D
C166166 C177177  1.406   .     S
C167167 N183183  1.157   .     T
C168168 C169169  1.394   .     S
C168168 H188188  1.083   .     S
C169169 C170170  1.405   .     D
C169169 H189189  1.082   .     S
C170170 C171171  1.406   .     S
C170170 C178178  1.479   .     S
C171171 C172172  1.398   .     D
C171171 H190190  1.083   .     S
C172172 H191191  1.079   .     S
C173173 C174174  1.394   .     S
C173173 H192192  1.083   .     S
C174174 C175175  1.403   .     D
C174174 H193193  1.083   1_655 S
C175175 C176176  1.406   .     S
C175175 C179179  1.478   .     S
C176176 C177177  1.394   .     D
C176176 H194194  1.083   .     S
C177177 H195195  1.080   .     S
C178178 N180180  1.360   .     S
C179179 N181181  1.359   1_655 D
N181181 C4949   1.358   1_565 S
N181181 C179179  1.359   1_455 D
H193193 C174174  1.083   1_455 S
C196196 C197197  1.405   .     S
C196196 C201201  1.417   .     S
C196196 C204204  1.505   .     D
C197197 C198198  1.384   .     D
C197197 H210210  1.080   .     S
C198198 C199199  1.400   .     S
C198198 H249249  1.078   .     S
C199199 N200200  1.357   .     S
C199199 C202202  1.463   .     D
N200200 C201201  1.377   .     D
N200200 Rh214214  2.035   .     S
C201201 H211211  1.069   .     S
C202202 C203203  1.401   .     S
C202202 N208208  1.364   .     S
C203203 C205205  1.383   .     D
C203203 H250250  1.081   .     S
C204204 C227227  1.443   .     S
C204204 C229229  1.355   .     S
C205205 C206206  1.394   .     S
C205205 H213213  1.078   .     S
C206206 C207207  1.407   .     D
C206206 C209209  1.484   .     S
C207207 N208208  1.378   .     S
C207207 H212212  1.073   .     S
N208208 Rh214214  2.068   .     S
C209209 C230230  1.351   .     D
C209209 C232232  1.442   .     S
Rh214214 O225225  1.951   .     S
C215215 C216216  1.354   .     S
C215215 C219219  1.372   .     D
C215215 H220220  1.083   .     S
C216216 C217217  1.357   .     S
C216216 H221221  1.076   .     S
C217217 C218218  1.381   .     D
C217217 H222222  1.078   .     S
C218218 C219219  1.361   .     S
C218218 H223223  1.076   .     S
C219219 H224224  1.078   .     S
O225225 H226226  0.991   .     S
O225225 H391391  0.991   .     S
C227227 N247247  1.159   .     T
C228228 C229229  1.483   .     D
C228228 C233233  1.403   .     S
C228228 C237237  1.404   .     S
C229229 H251251  1.077   .     S
C230230 C231231  1.486   .     S
C230230 H252252  1.084   .     S
C231231 C238238  1.402   .     S
C231231 C242242  1.404   .     D
C232232 N248248  1.157   .     T
C233233 C234234  1.398   .     D
C233233 H253253  1.083   .     S
C234234 C235235  1.404   .     S
C234234 H254254  1.082   .     S
C235235 C236236  1.404   .     S
C235235 C243243  1.482   .     D
C236236 C237237  1.399   .     D
C236236 H255255  0.697   .     S
C237237 H256256  1.079   .     S
C238238 C239239  1.400   .     D
C238238 H257257  1.081   .     S
C239239 C240240  1.403   .     S
C239239 H258258  1.082   .     S
C240240 C241241  1.404   .     D
C240240 C244244  1.481   .     S
C241241 C242242  1.396   .     S
C241241 H259259  1.082   .     S
C242242 H260260  1.080   .     S
C243243 N245245  1.358   .     S
C243243 N375375  1.357   1_445 S
C244244 N246246  1.357   .     S
C244244 N376376  1.356   .     D
N245245 C308308  1.360   1_455 T
N246246 C309309  1.361   .     D
C261261 C262262  1.404   .     S
C261261 C266266  1.414   .     S
C261261 C269269  1.503   .     D
C262262 C263263  1.386   .     D
C262262 H275275  1.079   .     S
C263263 C264264  1.398   .     S
C263263 H314314  1.078   .     S
C264264 N265265  1.358   .     S
C264264 C267267  1.468   .     D
N265265 C266266  1.376   .     D
N265265 Rh279279  2.024   .     S
C266266 H276276  1.072   .     S
C267267 C268268  1.404   .     S
C267267 N273273  1.364   .     S
C268268 C270270  1.382   .     D
C268268 H315315  1.079   .     S
C269269 C292292  1.443   .     S
C269269 C294294  1.353   .     S
C270270 C271271  1.396   .     S
C270270 H278278  1.082   .     S
C271271 C272272  1.412   .     D
C271271 C274274  1.489   .     S
C272272 N273273  1.378   .     S
C272272 H277277  1.074   .     S
N273273 Rh279279  2.066   .     S
C274274 C295295  1.349   .     D
C274274 C297297  1.447   .     S
Rh279279 O290290  1.955   .     S
C280280 C281281  1.357   .     S
C280280 C284284  1.372   .     D
C280280 H285285  1.083   .     S
C281281 C282282  1.358   .     S
C281281 H286286  1.072   .     S
C282282 C283283  1.379   .     D
C282282 H287287  1.082   .     S
C283283 C284284  1.366   .     S
C283283 H288288  1.077   .     S
C284284 H289289  1.081   .     S
O290290 H291291  0.988   .     S
O290290 H394394  0.987   .     S
C292292 N312312  1.160   .     T
C293293 C294294  1.482   .     D
C293293 C298298  1.403   .     S
C293293 C302302  1.406   .     S
C294294 H316316  1.078   .     S
C295295 C296296  1.487   .     S
C295295 H317317  1.083   .     S
C296296 C303303  1.401   .     S
C296296 C307307  1.407   .     D
C297297 N313313  1.157   .     T
C298298 C299299  1.398   .     D
C298298 H318318  1.085   .     S
C299299 C300300  1.406   .     D
C300300 C301301  1.404   .     S
C300300 C308308  1.481   .     S
C301301 C302302  1.397   .     D
C301301 H320320  1.083   .     S
C302302 H321321  1.079   .     S
C303303 C304304  1.398   .     D
C303303 H322322  1.084   .     S
C304304 C305305  1.406   .     S
C304304 H323323  1.082   .     S
C305305 C306306  1.403   .     D
C305305 C309309  1.480   .     S
C306306 C307307  1.396   .     S
C306306 H324324  1.085   .     S
C307307 H325325  1.078   .     S
C308308 N245245  1.360   1_655 T
C309309 N311311  1.357   .     S
N311311 C374374  1.357   .     D
C326326 C327327  1.402   .     S
C326326 C331331  1.411   .     S
C326326 C334334  1.489   .     D
C327327 C328328  1.382   .     D
C327327 H340340  1.082   .     S
C328328 C329329  1.403   .     S
C328328 H379379  1.077   .     S
C329329 N330330  1.361   .     S
C329329 C332332  1.464   .     D
N330330 C331331  1.375   .     D
N330330 Rh344344  2.034   .     S
C331331 H341341  1.070   .     S
C332332 C333333  1.400   .     S
C332332 N338338  1.364   .     S
C333333 C335335  1.383   .     D
C333333 H380380  1.078   .     S
C334334 C357357  1.444   .     S
C334334 C359359  1.351   .     S
C335335 C336336  1.402   .     S
C335335 H343343  1.082   .     S
C336336 C337337  1.416   .     D
C336336 C339339  1.507   .     S
C337337 N338338  1.374   .     S
C337337 H342342  1.065   .     S
N338338 Rh344344  2.064   .     S
C339339 C360360  1.354   .     D
C339339 C362362  1.448   .     S
Rh344344 O355355  1.952   .     S
C345345 C346346  1.373   .     S
C345345 C349349  1.355   .     D
C345345 H350350  1.083   .     S
C346346 C347347  1.362   .     S
C346346 H351351  1.079   .     S
C347347 C348348  1.380   .     D
C347347 H352352  1.078   .     S
C348348 C349349  1.356   .     S
C348348 H353353  1.082   .     S
C349349 H354354  1.073   .     S
O355355 H356356  0.987   .     S
O355355 H395395  0.990   .     S
C357357 N377377  1.159   .     T
C358358 C359359  1.483   .     D
C358358 C363363  1.403   .     S
C358358 C367367  1.405   .     S
C359359 H381381  1.082   .     S
C360360 C361361  1.487   .     S
C360360 H382382  1.076   .     S
C361361 C368368  1.405   .     S
C361361 C372372  1.406   .     D
C362362 N378378  1.158   .     T
C363363 C364364  1.395   .     D
C363363 H383383  1.083   .     S
C364364 C365365  1.405   .     S
C364364 H384384  1.083   .     S
C365365 C366366  1.405   .     S
C365365 C373373  1.478   .     D
C366366 C367367  1.397   .     D
C366366 H385385  1.082   .     S
C367367 H386386  1.078   .     S
C368368 C369369  1.397   .     D
C368368 H387387  1.085   .     S
C369369 C370370  1.405   .     S
C369369 H388388  1.083   .     S
C370370 C371371  1.402   .     D
C370370 C374374  1.475   .     S
C371371 C372372  1.394   .     S
C371371 H389389  1.085   .     S
C372372 H390390  1.079   .     S
C373373 N375375  1.358   .     D
C374374 N376376  1.357   .     S
N375375 C243243  1.357   1_665 S
