data_715
_audit_creation_date              2023-09-08
_audit_creation_method            'Materials Studio'
_symmetry_space_group_name_H-M    'P1'
_symmetry_Int_Tables_number       1
_symmetry_cell_setting            triclinic
loop_
_symmetry_equiv_pos_as_xyz
  x,y,z
_cell_length_a                    44.5577
_cell_length_b                    44.5577
_cell_length_c                    12.7497
_cell_angle_alpha                 90.0000
_cell_angle_beta                  90.0000
_cell_angle_gamma                 90.0000
loop_
_atom_site_label
_atom_site_type_symbol
_atom_site_fract_x
_atom_site_fract_y
_atom_site_fract_z
_atom_site_U_iso_or_equiv
_atom_site_adp_type
_atom_site_occupancy
C1     C     0.05079   0.51523   0.33036   0.00000  Uiso   1.00
C2     C     0.07473   0.51140   0.40172   0.00000  Uiso   1.00
C3     C     0.07569   0.48878   0.48010   0.00000  Uiso   1.00
C4     C     0.05156   0.47058   0.48489   0.00000  Uiso   1.00
C5     C     0.02774   0.47436   0.41404   0.00000  Uiso   1.00
C6     C     0.02684   0.49657   0.33394   0.00000  Uiso   1.00
C7     C     0.12441   0.50394   0.56125   0.00000  Uiso   1.00
C8     C     0.10152   0.48390   0.55569   0.00000  Uiso   1.00
C9     C     0.15037   0.47453   0.69813   0.00000  Uiso   1.00
C10    C     0.14859   0.49942   0.63164   0.00000  Uiso   1.00
N11    N     0.17404   0.46746   0.77194   0.00000  Uiso   1.00
C12    C     0.19695   0.48107   0.79979   0.00000  Uiso   1.00
C13    C     0.72251   0.99228   0.34046   0.00000  Uiso   1.00
C14    C     0.10392   0.45902   0.62335   0.00000  Uiso   1.00
C15    C     0.12788   0.45473   0.69222   0.00000  Uiso   1.00
C16    C     0.24836   0.98709   0.49376   0.00000  Uiso   1.00
C17    C     0.27559   0.99486   0.44836   0.00000  Uiso   1.00
F18    F     0.08084   0.94361   0.61900   0.00000  Uiso   1.00
C19    C     0.94933   0.98462   0.93067   0.00000  Uiso   1.00
C20    C     0.92548   0.98831   0.85870   0.00000  Uiso   1.00
C21    C     0.92441   0.01092   0.77996   0.00000  Uiso   1.00
C22    C     0.94848   0.02930   0.77647   0.00000  Uiso   1.00
C23    C     0.97221   0.02566   0.84788   0.00000  Uiso   1.00
C24    C     0.97317   0.00341   0.92772   0.00000  Uiso   1.00
C25    C     0.87600   0.99645   0.71045   0.00000  Uiso   1.00
C26    C     0.90008   0.01516   0.70721   0.00000  Uiso   1.00
C27    C     0.85100   0.02358   0.56402   0.00000  Uiso   1.00
C28    C     0.85175   0.00049   0.63998   0.00000  Uiso   1.00
N29    N     0.82733   0.03010   0.48942   0.00000  Uiso   1.00
C30    C     0.80351   0.01724   0.46868   0.00000  Uiso   1.00
C31    C     0.27713   0.50664   0.93434   0.00000  Uiso   1.00
C32    C     0.89870   0.03821   0.62918   0.00000  Uiso   1.00
C33    C     0.87463   0.04202   0.56041   0.00000  Uiso   1.00
C34    C     0.75196   0.51348   0.78246   0.00000  Uiso   1.00
C35    C     0.72513   0.50608   0.82801   0.00000  Uiso   1.00
F36    F     0.91656   0.56167   0.62320   0.00000  Uiso   1.00
O37    O     0.25350   0.52551   0.10013   0.00000  Uiso   1.00
O38    O     0.22089   0.55658   0.27595   0.00000  Uiso   1.00
O39    O     0.18778   0.50972   0.34160   0.00000  Uiso   1.00
O40    O     0.20452   0.47484   0.15765   0.00000  Uiso   1.00
C41    C     0.19779   0.51073   0.01648   0.00000  Uiso   1.00
C42    C     0.18651   0.48330   0.06993   0.00000  Uiso   1.00
C43    C     0.18592   0.46539   0.24188   0.00000  Uiso   1.00
C44    C     0.19297   0.48031   0.35186   0.00000  Uiso   1.00
C45    C     0.20679   0.52276   0.41665   0.00000  Uiso   1.00
C46    C     0.23149   0.53663   0.35310   0.00000  Uiso   1.00
C47    C     0.24500   0.56648   0.21798   0.00000  Uiso   1.00
C48    C     0.24494   0.55478   0.09894   0.00000  Uiso   1.00
H49    H     0.05043   0.53375   0.26778   0.00000  Uiso   1.00
H50    H     0.09372   0.52677   0.39644   0.00000  Uiso   1.00
H51    H     0.05097   0.45211   0.54767   0.00000  Uiso   1.00
H52    H     0.00856   0.45925   0.42068   0.00000  Uiso   1.00
H53    H     0.12302   0.52410   0.50723   0.00000  Uiso   1.00
H54    H     0.16660   0.51598   0.63432   0.00000  Uiso   1.00
H55    H     0.12868   0.43426   0.74461   0.00000  Uiso   1.00
H56    H     0.94970   0.96610   0.99326   0.00000  Uiso   1.00
H57    H     0.90657   0.97283   0.86354   0.00000  Uiso   1.00
H58    H     0.94911   0.04787   0.71416   0.00000  Uiso   1.00
H59    H     0.99128   0.04093   0.84190   0.00000  Uiso   1.00
H60    H     0.87655   0.97774   0.77210   0.00000  Uiso   1.00
H61    H     0.83284   0.98500   0.64495   0.00000  Uiso   1.00
H62    H     0.87475   0.06099   0.49990   0.00000  Uiso   1.00
H63    H     0.75322   0.52436   0.69684   0.00000  Uiso   1.00
H64    H     0.70467   0.51041   0.77831   0.00000  Uiso   1.00
H65    H     0.20297   0.52693   0.08537   0.00000  Uiso   1.00
H66    H     0.18068   0.52013   0.95871   0.00000  Uiso   1.00
H67    H     0.16398   0.48724   0.10407   0.00000  Uiso   1.00
H68    H     0.18569   0.46563   0.00375   0.00000  Uiso   1.00
H69    H     0.18836   0.44120   0.25286   0.00000  Uiso   1.00
H70    H     0.16285   0.47056   0.21720   0.00000  Uiso   1.00
H71    H     0.17896   0.47112   0.42165   0.00000  Uiso   1.00
H72    H     0.21655   0.47664   0.37320   0.00000  Uiso   1.00
H73    H     0.21565   0.50589   0.47676   0.00000  Uiso   1.00
H74    H     0.19497   0.53996   0.46667   0.00000  Uiso   1.00
H75    H     0.24630   0.54796   0.41513   0.00000  Uiso   1.00
H76    H     0.24405   0.51930   0.30662   0.00000  Uiso   1.00
H77    H     0.26526   0.55902   0.26310   0.00000  Uiso   1.00
H78    H     0.24463   0.59094   0.21497   0.00000  Uiso   1.00
H79    H     0.22241   0.55659   0.06222   0.00000  Uiso   1.00
H80    H     0.26055   0.56771   0.04526   0.00000  Uiso   1.00
C81    C     0.55079   0.01523   0.83036   0.00000  Uiso   1.00
C82    C     0.57473   0.01140   0.90172   0.00000  Uiso   1.00
C83    C     0.57569   0.98878   0.98010   0.00000  Uiso   1.00
C84    C     0.55156   0.97058   0.98489   0.00000  Uiso   1.00
C85    C     0.52774   0.97436   0.91404   0.00000  Uiso   1.00
C86    C     0.52684   0.99657   0.83394   0.00000  Uiso   1.00
C87    C     0.62441   0.00394   0.06125   0.00000  Uiso   1.00
C88    C     0.60152   0.98390   0.05569   0.00000  Uiso   1.00
C89    C     0.65037   0.97453   0.19813   0.00000  Uiso   1.00
C90    C     0.64859   0.99942   0.13164   0.00000  Uiso   1.00
N91    N     0.67404   0.96746   0.27194   0.00000  Uiso   1.00
C92    C     0.69695   0.98107   0.29979   0.00000  Uiso   1.00
C93    C     0.22251   0.49228   0.84046   0.00000  Uiso   1.00
C94    C     0.60392   0.95902   0.12335   0.00000  Uiso   1.00
C95    C     0.62788   0.95473   0.19222   0.00000  Uiso   1.00
C96    C     0.74836   0.48709   0.99376   0.00000  Uiso   1.00
C97    C     0.77559   0.49486   0.94836   0.00000  Uiso   1.00
F98    F     0.58084   0.44361   0.11900   0.00000  Uiso   1.00
C99    C     0.44933   0.48462   0.43067   0.00000  Uiso   1.00
C100   C     0.42548   0.48831   0.35870   0.00000  Uiso   1.00
C101   C     0.42441   0.51092   0.27996   0.00000  Uiso   1.00
C102   C     0.44848   0.52930   0.27647   0.00000  Uiso   1.00
C103   C     0.47221   0.52566   0.34788   0.00000  Uiso   1.00
C104   C     0.47317   0.50341   0.42772   0.00000  Uiso   1.00
C105   C     0.37600   0.49645   0.21045   0.00000  Uiso   1.00
C106   C     0.40008   0.51516   0.20721   0.00000  Uiso   1.00
C107   C     0.35100   0.52358   0.06402   0.00000  Uiso   1.00
C108   C     0.35175   0.50049   0.13998   0.00000  Uiso   1.00
N109   N     0.32733   0.53010   0.98942   0.00000  Uiso   1.00
C110   C     0.30351   0.51724   0.96868   0.00000  Uiso   1.00
C111   C     0.77713   0.00664   0.43434   0.00000  Uiso   1.00
C112   C     0.39870   0.53821   0.12918   0.00000  Uiso   1.00
C113   C     0.37463   0.54202   0.06041   0.00000  Uiso   1.00
C114   C     0.25196   0.01348   0.28246   0.00000  Uiso   1.00
C115   C     0.22513   0.00608   0.32801   0.00000  Uiso   1.00
F116   F     0.41656   0.06167   0.12320   0.00000  Uiso   1.00
O117   O     0.75350   0.02551   0.60013   0.00000  Uiso   1.00
O118   O     0.72089   0.05658   0.77595   0.00000  Uiso   1.00
O119   O     0.68778   0.00972   0.84160   0.00000  Uiso   1.00
O120   O     0.70452   0.97484   0.65765   0.00000  Uiso   1.00
C121   C     0.69779   0.01073   0.51648   0.00000  Uiso   1.00
C122   C     0.68651   0.98330   0.56993   0.00000  Uiso   1.00
C123   C     0.68592   0.96539   0.74188   0.00000  Uiso   1.00
C124   C     0.69297   0.98031   0.85186   0.00000  Uiso   1.00
C125   C     0.70679   0.02276   0.91665   0.00000  Uiso   1.00
C126   C     0.73149   0.03663   0.85310   0.00000  Uiso   1.00
C127   C     0.74500   0.06648   0.71798   0.00000  Uiso   1.00
C128   C     0.74494   0.05478   0.59894   0.00000  Uiso   1.00
H129   H     0.55043   0.03375   0.76778   0.00000  Uiso   1.00
H130   H     0.59372   0.02677   0.89644   0.00000  Uiso   1.00
H131   H     0.55097   0.95211   0.04767   0.00000  Uiso   1.00
H132   H     0.50856   0.95925   0.92068   0.00000  Uiso   1.00
H133   H     0.62302   0.02410   0.00723   0.00000  Uiso   1.00
H134   H     0.66660   0.01598   0.13432   0.00000  Uiso   1.00
H135   H     0.62868   0.93426   0.24461   0.00000  Uiso   1.00
H136   H     0.44970   0.46610   0.49326   0.00000  Uiso   1.00
H137   H     0.40657   0.47283   0.36354   0.00000  Uiso   1.00
H138   H     0.44911   0.54787   0.21416   0.00000  Uiso   1.00
H139   H     0.49128   0.54093   0.34190   0.00000  Uiso   1.00
H140   H     0.37655   0.47774   0.27210   0.00000  Uiso   1.00
H141   H     0.33284   0.48500   0.14495   0.00000  Uiso   1.00
H142   H     0.37475   0.56099   0.99990   0.00000  Uiso   1.00
H143   H     0.25322   0.02436   0.19684   0.00000  Uiso   1.00
H144   H     0.20467   0.01041   0.27831   0.00000  Uiso   1.00
H145   H     0.70297   0.02693   0.58537   0.00000  Uiso   1.00
H146   H     0.68068   0.02013   0.45871   0.00000  Uiso   1.00
H147   H     0.66398   0.98724   0.60407   0.00000  Uiso   1.00
H148   H     0.68569   0.96563   0.50375   0.00000  Uiso   1.00
H149   H     0.68836   0.94120   0.75286   0.00000  Uiso   1.00
H150   H     0.66285   0.97056   0.71720   0.00000  Uiso   1.00
H151   H     0.67896   0.97112   0.92165   0.00000  Uiso   1.00
H152   H     0.71655   0.97664   0.87320   0.00000  Uiso   1.00
H153   H     0.71565   0.00589   0.97676   0.00000  Uiso   1.00
H154   H     0.69497   0.03996   0.96667   0.00000  Uiso   1.00
H155   H     0.74630   0.04796   0.91513   0.00000  Uiso   1.00
H156   H     0.74405   0.01930   0.80662   0.00000  Uiso   1.00
H157   H     0.76526   0.05902   0.76310   0.00000  Uiso   1.00
H158   H     0.74463   0.09094   0.71497   0.00000  Uiso   1.00
H159   H     0.72241   0.05659   0.56222   0.00000  Uiso   1.00
H160   H     0.76055   0.06771   0.54526   0.00000  Uiso   1.00
C161   C     0.44921   0.98477   0.83036   0.00000  Uiso   1.00
C162   C     0.42527   0.98860   0.90172   0.00000  Uiso   1.00
C163   C     0.42431   0.01122   0.98010   0.00000  Uiso   1.00
C164   C     0.44844   0.02942   0.98489   0.00000  Uiso   1.00
C165   C     0.47226   0.02564   0.91404   0.00000  Uiso   1.00
C166   C     0.47316   0.00343   0.83394   0.00000  Uiso   1.00
C167   C     0.37559   0.99606   0.06125   0.00000  Uiso   1.00
C168   C     0.39848   0.01610   0.05569   0.00000  Uiso   1.00
C169   C     0.34963   0.02547   0.19813   0.00000  Uiso   1.00
C170   C     0.35141   0.00058   0.13164   0.00000  Uiso   1.00
N171   N     0.32596   0.03254   0.27194   0.00000  Uiso   1.00
C172   C     0.30305   0.01893   0.29979   0.00000  Uiso   1.00
C173   C     0.77749   0.50772   0.84046   0.00000  Uiso   1.00
C174   C     0.39608   0.04098   0.12335   0.00000  Uiso   1.00
C175   C     0.37212   0.04527   0.19222   0.00000  Uiso   1.00
C176   C     0.25164   0.51291   0.99376   0.00000  Uiso   1.00
C177   C     0.22441   0.50514   0.94836   0.00000  Uiso   1.00
F178   F     0.41916   0.55639   0.11900   0.00000  Uiso   1.00
C179   C     0.55067   0.51538   0.43067   0.00000  Uiso   1.00
C180   C     0.57452   0.51169   0.35870   0.00000  Uiso   1.00
C181   C     0.57559   0.48908   0.27996   0.00000  Uiso   1.00
C182   C     0.55152   0.47070   0.27647   0.00000  Uiso   1.00
C183   C     0.52779   0.47434   0.34788   0.00000  Uiso   1.00
C184   C     0.52683   0.49659   0.42772   0.00000  Uiso   1.00
C185   C     0.62400   0.50355   0.21045   0.00000  Uiso   1.00
C186   C     0.59992   0.48484   0.20721   0.00000  Uiso   1.00
C187   C     0.64900   0.47642   0.06402   0.00000  Uiso   1.00
C188   C     0.64825   0.49951   0.13998   0.00000  Uiso   1.00
N189   N     0.67267   0.46990   0.98942   0.00000  Uiso   1.00
C190   C     0.69649   0.48276   0.96868   0.00000  Uiso   1.00
C191   C     0.22287   0.99336   0.43434   0.00000  Uiso   1.00
C192   C     0.60130   0.46179   0.12918   0.00000  Uiso   1.00
C193   C     0.62537   0.45798   0.06041   0.00000  Uiso   1.00
C194   C     0.74804   0.98652   0.28246   0.00000  Uiso   1.00
C195   C     0.77487   0.99392   0.32801   0.00000  Uiso   1.00
F196   F     0.58344   0.93833   0.12320   0.00000  Uiso   1.00
O197   O     0.24650   0.97449   0.60013   0.00000  Uiso   1.00
O198   O     0.27911   0.94342   0.77595   0.00000  Uiso   1.00
O199   O     0.31222   0.99028   0.84160   0.00000  Uiso   1.00
O200   O     0.29548   0.02516   0.65765   0.00000  Uiso   1.00
C201   C     0.30221   0.98927   0.51648   0.00000  Uiso   1.00
C202   C     0.31349   0.01670   0.56993   0.00000  Uiso   1.00
C203   C     0.31408   0.03461   0.74188   0.00000  Uiso   1.00
C204   C     0.30703   0.01969   0.85186   0.00000  Uiso   1.00
C205   C     0.29321   0.97724   0.91665   0.00000  Uiso   1.00
C206   C     0.26851   0.96337   0.85310   0.00000  Uiso   1.00
C207   C     0.25500   0.93352   0.71798   0.00000  Uiso   1.00
C208   C     0.25506   0.94522   0.59894   0.00000  Uiso   1.00
H209   H     0.44957   0.96625   0.76778   0.00000  Uiso   1.00
H210   H     0.40628   0.97323   0.89644   0.00000  Uiso   1.00
H211   H     0.44903   0.04789   0.04767   0.00000  Uiso   1.00
H212   H     0.49144   0.04075   0.92068   0.00000  Uiso   1.00
H213   H     0.37698   0.97590   0.00723   0.00000  Uiso   1.00
H214   H     0.33340   0.98402   0.13432   0.00000  Uiso   1.00
H215   H     0.37132   0.06574   0.24461   0.00000  Uiso   1.00
H216   H     0.55030   0.53390   0.49326   0.00000  Uiso   1.00
H217   H     0.59343   0.52717   0.36354   0.00000  Uiso   1.00
H218   H     0.55089   0.45213   0.21416   0.00000  Uiso   1.00
H219   H     0.50872   0.45907   0.34190   0.00000  Uiso   1.00
H220   H     0.62345   0.52226   0.27210   0.00000  Uiso   1.00
H221   H     0.66716   0.51500   0.14495   0.00000  Uiso   1.00
H222   H     0.62525   0.43901   0.99990   0.00000  Uiso   1.00
H223   H     0.74678   0.97564   0.19684   0.00000  Uiso   1.00
H224   H     0.79533   0.98959   0.27831   0.00000  Uiso   1.00
H225   H     0.29703   0.97307   0.58537   0.00000  Uiso   1.00
H226   H     0.31932   0.97987   0.45871   0.00000  Uiso   1.00
H227   H     0.33602   0.01276   0.60407   0.00000  Uiso   1.00
H228   H     0.31431   0.03437   0.50375   0.00000  Uiso   1.00
H229   H     0.31164   0.05880   0.75286   0.00000  Uiso   1.00
H230   H     0.33715   0.02944   0.71720   0.00000  Uiso   1.00
H231   H     0.32104   0.02888   0.92165   0.00000  Uiso   1.00
H232   H     0.28345   0.02336   0.87320   0.00000  Uiso   1.00
H233   H     0.28435   0.99411   0.97676   0.00000  Uiso   1.00
H234   H     0.30503   0.96004   0.96667   0.00000  Uiso   1.00
H235   H     0.25370   0.95204   0.91513   0.00000  Uiso   1.00
H236   H     0.25595   0.98070   0.80662   0.00000  Uiso   1.00
H237   H     0.23474   0.94098   0.76310   0.00000  Uiso   1.00
H238   H     0.25537   0.90906   0.71497   0.00000  Uiso   1.00
H239   H     0.27759   0.94341   0.56222   0.00000  Uiso   1.00
H240   H     0.23945   0.93229   0.54526   0.00000  Uiso   1.00
C241   C     0.94921   0.48477   0.33036   0.00000  Uiso   1.00
C242   C     0.92527   0.48860   0.40172   0.00000  Uiso   1.00
C243   C     0.92431   0.51122   0.48010   0.00000  Uiso   1.00
C244   C     0.94844   0.52942   0.48489   0.00000  Uiso   1.00
C245   C     0.97226   0.52564   0.41404   0.00000  Uiso   1.00
C246   C     0.97316   0.50343   0.33394   0.00000  Uiso   1.00
C247   C     0.87559   0.49606   0.56125   0.00000  Uiso   1.00
C248   C     0.89848   0.51610   0.55569   0.00000  Uiso   1.00
C249   C     0.84963   0.52547   0.69813   0.00000  Uiso   1.00
C250   C     0.85141   0.50058   0.63164   0.00000  Uiso   1.00
N251   N     0.82596   0.53254   0.77194   0.00000  Uiso   1.00
C252   C     0.80305   0.51893   0.79979   0.00000  Uiso   1.00
C253   C     0.27749   0.00772   0.34046   0.00000  Uiso   1.00
C254   C     0.89608   0.54098   0.62335   0.00000  Uiso   1.00
C255   C     0.87212   0.54527   0.69222   0.00000  Uiso   1.00
C256   C     0.75164   0.01291   0.49376   0.00000  Uiso   1.00
C257   C     0.72441   0.00514   0.44836   0.00000  Uiso   1.00
F258   F     0.91916   0.05639   0.61900   0.00000  Uiso   1.00
C259   C     0.05067   0.01538   0.93067   0.00000  Uiso   1.00
C260   C     0.07452   0.01169   0.85870   0.00000  Uiso   1.00
C261   C     0.07559   0.98908   0.77996   0.00000  Uiso   1.00
C262   C     0.05152   0.97070   0.77647   0.00000  Uiso   1.00
C263   C     0.02779   0.97434   0.84788   0.00000  Uiso   1.00
C264   C     0.02683   0.99659   0.92772   0.00000  Uiso   1.00
C265   C     0.12400   0.00355   0.71045   0.00000  Uiso   1.00
C266   C     0.09992   0.98484   0.70721   0.00000  Uiso   1.00
C267   C     0.14900   0.97642   0.56402   0.00000  Uiso   1.00
C268   C     0.14825   0.99951   0.63998   0.00000  Uiso   1.00
N269   N     0.17267   0.96990   0.48942   0.00000  Uiso   1.00
C270   C     0.19649   0.98276   0.46868   0.00000  Uiso   1.00
C271   C     0.72287   0.49336   0.93434   0.00000  Uiso   1.00
C272   C     0.10130   0.96179   0.62918   0.00000  Uiso   1.00
C273   C     0.12537   0.95798   0.56041   0.00000  Uiso   1.00
C274   C     0.24804   0.48652   0.78246   0.00000  Uiso   1.00
C275   C     0.27487   0.49392   0.82801   0.00000  Uiso   1.00
F276   F     0.08344   0.43833   0.62320   0.00000  Uiso   1.00
O277   O     0.74650   0.47449   0.10013   0.00000  Uiso   1.00
O278   O     0.77911   0.44342   0.27595   0.00000  Uiso   1.00
O279   O     0.81222   0.49028   0.34160   0.00000  Uiso   1.00
O280   O     0.79548   0.52516   0.15765   0.00000  Uiso   1.00
C281   C     0.80221   0.48927   0.01648   0.00000  Uiso   1.00
C282   C     0.81349   0.51670   0.06993   0.00000  Uiso   1.00
C283   C     0.81408   0.53461   0.24188   0.00000  Uiso   1.00
C284   C     0.80703   0.51969   0.35186   0.00000  Uiso   1.00
C285   C     0.79321   0.47724   0.41665   0.00000  Uiso   1.00
C286   C     0.76851   0.46337   0.35310   0.00000  Uiso   1.00
C287   C     0.75500   0.43352   0.21798   0.00000  Uiso   1.00
C288   C     0.75506   0.44522   0.09894   0.00000  Uiso   1.00
H289   H     0.94957   0.46625   0.26778   0.00000  Uiso   1.00
H290   H     0.90628   0.47323   0.39644   0.00000  Uiso   1.00
H291   H     0.94903   0.54789   0.54767   0.00000  Uiso   1.00
H292   H     0.99144   0.54075   0.42068   0.00000  Uiso   1.00
H293   H     0.87698   0.47590   0.50723   0.00000  Uiso   1.00
H294   H     0.83340   0.48402   0.63432   0.00000  Uiso   1.00
H295   H     0.87132   0.56574   0.74461   0.00000  Uiso   1.00
H296   H     0.05030   0.03390   0.99326   0.00000  Uiso   1.00
H297   H     0.09343   0.02717   0.86354   0.00000  Uiso   1.00
H298   H     0.05089   0.95213   0.71416   0.00000  Uiso   1.00
H299   H     0.00872   0.95907   0.84190   0.00000  Uiso   1.00
H300   H     0.12345   0.02226   0.77210   0.00000  Uiso   1.00
H301   H     0.16716   0.01500   0.64495   0.00000  Uiso   1.00
H302   H     0.12525   0.93901   0.49990   0.00000  Uiso   1.00
H303   H     0.24678   0.47564   0.69684   0.00000  Uiso   1.00
H304   H     0.29533   0.48959   0.77831   0.00000  Uiso   1.00
H305   H     0.79703   0.47307   0.08537   0.00000  Uiso   1.00
H306   H     0.81932   0.47987   0.95871   0.00000  Uiso   1.00
H307   H     0.83602   0.51276   0.10407   0.00000  Uiso   1.00
H308   H     0.81431   0.53437   0.00375   0.00000  Uiso   1.00
H309   H     0.81164   0.55880   0.25286   0.00000  Uiso   1.00
H310   H     0.83715   0.52944   0.21720   0.00000  Uiso   1.00
H311   H     0.82104   0.52888   0.42165   0.00000  Uiso   1.00
H312   H     0.78345   0.52336   0.37320   0.00000  Uiso   1.00
H313   H     0.78435   0.49411   0.47676   0.00000  Uiso   1.00
H314   H     0.80503   0.46004   0.46667   0.00000  Uiso   1.00
H315   H     0.75370   0.45204   0.41513   0.00000  Uiso   1.00
H316   H     0.75595   0.48070   0.30662   0.00000  Uiso   1.00
H317   H     0.73474   0.44098   0.26310   0.00000  Uiso   1.00
H318   H     0.75537   0.40906   0.21497   0.00000  Uiso   1.00
H319   H     0.77759   0.44341   0.06222   0.00000  Uiso   1.00
H320   H     0.73945   0.43229   0.04526   0.00000  Uiso   1.00
C321   C     0.48477   0.55079   0.58036   0.00000  Uiso   1.00
C322   C     0.48860   0.57473   0.65172   0.00000  Uiso   1.00
C323   C     0.51122   0.57569   0.73010   0.00000  Uiso   1.00
C324   C     0.52942   0.55156   0.73489   0.00000  Uiso   1.00
C325   C     0.52564   0.52774   0.66404   0.00000  Uiso   1.00
C326   C     0.50343   0.52684   0.58394   0.00000  Uiso   1.00
C327   C     0.49606   0.62441   0.81125   0.00000  Uiso   1.00
C328   C     0.51610   0.60152   0.80569   0.00000  Uiso   1.00
C329   C     0.52547   0.65037   0.94813   0.00000  Uiso   1.00
C330   C     0.50058   0.64859   0.88164   0.00000  Uiso   1.00
N331   N     0.53254   0.67404   0.02194   0.00000  Uiso   1.00
C332   C     0.51893   0.69695   0.04979   0.00000  Uiso   1.00
C333   C     0.00772   0.22251   0.59046   0.00000  Uiso   1.00
C334   C     0.54098   0.60392   0.87335   0.00000  Uiso   1.00
C335   C     0.54527   0.62788   0.94222   0.00000  Uiso   1.00
C336   C     0.01291   0.74836   0.74376   0.00000  Uiso   1.00
C337   C     0.00514   0.77559   0.69836   0.00000  Uiso   1.00
F338   F     0.05639   0.58084   0.86900   0.00000  Uiso   1.00
C339   C     0.01538   0.44933   0.18067   0.00000  Uiso   1.00
C340   C     0.01169   0.42548   0.10870   0.00000  Uiso   1.00
C341   C     0.98908   0.42441   0.02996   0.00000  Uiso   1.00
C342   C     0.97070   0.44848   0.02647   0.00000  Uiso   1.00
C343   C     0.97434   0.47221   0.09788   0.00000  Uiso   1.00
C344   C     0.99659   0.47317   0.17772   0.00000  Uiso   1.00
C345   C     0.00355   0.37600   0.96045   0.00000  Uiso   1.00
C346   C     0.98484   0.40008   0.95721   0.00000  Uiso   1.00
C347   C     0.97642   0.35100   0.81402   0.00000  Uiso   1.00
C348   C     0.99951   0.35175   0.88998   0.00000  Uiso   1.00
N349   N     0.96990   0.32733   0.73942   0.00000  Uiso   1.00
C350   C     0.98276   0.30351   0.71868   0.00000  Uiso   1.00
C351   C     0.49336   0.77713   0.18434   0.00000  Uiso   1.00
C352   C     0.96179   0.39870   0.87918   0.00000  Uiso   1.00
C353   C     0.95798   0.37463   0.81041   0.00000  Uiso   1.00
C354   C     0.48652   0.25196   0.03246   0.00000  Uiso   1.00
C355   C     0.49392   0.22513   0.07801   0.00000  Uiso   1.00
F356   F     0.43833   0.41656   0.87320   0.00000  Uiso   1.00
O357   O     0.47449   0.75350   0.35013   0.00000  Uiso   1.00
O358   O     0.44342   0.72089   0.52595   0.00000  Uiso   1.00
O359   O     0.49028   0.68778   0.59160   0.00000  Uiso   1.00
O360   O     0.52516   0.70452   0.40765   0.00000  Uiso   1.00
C361   C     0.48927   0.69779   0.26648   0.00000  Uiso   1.00
C362   C     0.51670   0.68651   0.31993   0.00000  Uiso   1.00
C363   C     0.53461   0.68592   0.49188   0.00000  Uiso   1.00
C364   C     0.51969   0.69297   0.60186   0.00000  Uiso   1.00
C365   C     0.47724   0.70679   0.66665   0.00000  Uiso   1.00
C366   C     0.46337   0.73149   0.60310   0.00000  Uiso   1.00
C367   C     0.43352   0.74500   0.46798   0.00000  Uiso   1.00
C368   C     0.44522   0.74494   0.34894   0.00000  Uiso   1.00
H369   H     0.46625   0.55043   0.51778   0.00000  Uiso   1.00
H370   H     0.47323   0.59372   0.64644   0.00000  Uiso   1.00
H371   H     0.54789   0.55097   0.79767   0.00000  Uiso   1.00
H372   H     0.54075   0.50856   0.67068   0.00000  Uiso   1.00
H373   H     0.47590   0.62302   0.75723   0.00000  Uiso   1.00
H374   H     0.48402   0.66660   0.88432   0.00000  Uiso   1.00
H375   H     0.56574   0.62868   0.99461   0.00000  Uiso   1.00
H376   H     0.03390   0.44970   0.24326   0.00000  Uiso   1.00
H377   H     0.02717   0.40657   0.11354   0.00000  Uiso   1.00
H378   H     0.95213   0.44911   0.96416   0.00000  Uiso   1.00
H379   H     0.95907   0.49128   0.09190   0.00000  Uiso   1.00
H380   H     0.02226   0.37655   0.02210   0.00000  Uiso   1.00
H381   H     0.01500   0.33284   0.89495   0.00000  Uiso   1.00
H382   H     0.93901   0.37475   0.74990   0.00000  Uiso   1.00
H383   H     0.47564   0.25322   0.94684   0.00000  Uiso   1.00
H384   H     0.48959   0.20467   0.02831   0.00000  Uiso   1.00
H385   H     0.47307   0.70297   0.33537   0.00000  Uiso   1.00
H386   H     0.47987   0.68068   0.20871   0.00000  Uiso   1.00
H387   H     0.51276   0.66398   0.35407   0.00000  Uiso   1.00
H388   H     0.53437   0.68569   0.25375   0.00000  Uiso   1.00
H389   H     0.55880   0.68836   0.50286   0.00000  Uiso   1.00
H390   H     0.52944   0.66285   0.46720   0.00000  Uiso   1.00
H391   H     0.52888   0.67896   0.67165   0.00000  Uiso   1.00
H392   H     0.52336   0.71655   0.62320   0.00000  Uiso   1.00
H393   H     0.49411   0.71565   0.72676   0.00000  Uiso   1.00
H394   H     0.46004   0.69497   0.71667   0.00000  Uiso   1.00
H395   H     0.45204   0.74630   0.66513   0.00000  Uiso   1.00
H396   H     0.48070   0.74405   0.55662   0.00000  Uiso   1.00
H397   H     0.44098   0.76526   0.51310   0.00000  Uiso   1.00
H398   H     0.40906   0.74463   0.46497   0.00000  Uiso   1.00
H399   H     0.44341   0.72241   0.31222   0.00000  Uiso   1.00
H400   H     0.43229   0.76055   0.29526   0.00000  Uiso   1.00
C401   C     0.98477   0.05079   0.08036   0.00000  Uiso   1.00
C402   C     0.98860   0.07473   0.15172   0.00000  Uiso   1.00
C403   C     0.01122   0.07569   0.23010   0.00000  Uiso   1.00
C404   C     0.02942   0.05156   0.23489   0.00000  Uiso   1.00
C405   C     0.02564   0.02774   0.16404   0.00000  Uiso   1.00
C406   C     0.00343   0.02684   0.08394   0.00000  Uiso   1.00
C407   C     0.99606   0.12441   0.31125   0.00000  Uiso   1.00
C408   C     0.01610   0.10152   0.30569   0.00000  Uiso   1.00
C409   C     0.02547   0.15037   0.44813   0.00000  Uiso   1.00
C410   C     0.00058   0.14859   0.38164   0.00000  Uiso   1.00
N411   N     0.03254   0.17404   0.52194   0.00000  Uiso   1.00
C412   C     0.01893   0.19695   0.54979   0.00000  Uiso   1.00
C413   C     0.50772   0.72251   0.09046   0.00000  Uiso   1.00
C414   C     0.04098   0.10392   0.37335   0.00000  Uiso   1.00
C415   C     0.04527   0.12788   0.44222   0.00000  Uiso   1.00
C416   C     0.51291   0.24836   0.24376   0.00000  Uiso   1.00
C417   C     0.50514   0.27559   0.19836   0.00000  Uiso   1.00
F418   F     0.55639   0.08084   0.36900   0.00000  Uiso   1.00
C419   C     0.51538   0.94933   0.68067   0.00000  Uiso   1.00
C420   C     0.51169   0.92548   0.60870   0.00000  Uiso   1.00
C421   C     0.48908   0.92441   0.52996   0.00000  Uiso   1.00
C422   C     0.47070   0.94848   0.52647   0.00000  Uiso   1.00
C423   C     0.47434   0.97221   0.59788   0.00000  Uiso   1.00
C424   C     0.49659   0.97317   0.67772   0.00000  Uiso   1.00
C425   C     0.50355   0.87600   0.46045   0.00000  Uiso   1.00
C426   C     0.48484   0.90008   0.45721   0.00000  Uiso   1.00
C427   C     0.47642   0.85100   0.31402   0.00000  Uiso   1.00
C428   C     0.49951   0.85175   0.38998   0.00000  Uiso   1.00
N429   N     0.46990   0.82733   0.23942   0.00000  Uiso   1.00
C430   C     0.48276   0.80351   0.21868   0.00000  Uiso   1.00
C431   C     0.99336   0.27713   0.68434   0.00000  Uiso   1.00
C432   C     0.46179   0.89870   0.37918   0.00000  Uiso   1.00
C433   C     0.45798   0.87463   0.31041   0.00000  Uiso   1.00
C434   C     0.98652   0.75196   0.53246   0.00000  Uiso   1.00
C435   C     0.99392   0.72513   0.57801   0.00000  Uiso   1.00
F436   F     0.93833   0.91656   0.37320   0.00000  Uiso   1.00
O437   O     0.97449   0.25350   0.85013   0.00000  Uiso   1.00
O438   O     0.94342   0.22089   0.02595   0.00000  Uiso   1.00
O439   O     0.99028   0.18778   0.09160   0.00000  Uiso   1.00
O440   O     0.02516   0.20452   0.90765   0.00000  Uiso   1.00
C441   C     0.98927   0.19779   0.76648   0.00000  Uiso   1.00
C442   C     0.01670   0.18651   0.81993   0.00000  Uiso   1.00
C443   C     0.03461   0.18592   0.99188   0.00000  Uiso   1.00
C444   C     0.01969   0.19297   0.10186   0.00000  Uiso   1.00
C445   C     0.97724   0.20679   0.16665   0.00000  Uiso   1.00
C446   C     0.96337   0.23149   0.10310   0.00000  Uiso   1.00
C447   C     0.93352   0.24500   0.96798   0.00000  Uiso   1.00
C448   C     0.94522   0.24494   0.84894   0.00000  Uiso   1.00
H449   H     0.96625   0.05043   0.01778   0.00000  Uiso   1.00
H450   H     0.97323   0.09372   0.14644   0.00000  Uiso   1.00
H451   H     0.04789   0.05097   0.29767   0.00000  Uiso   1.00
H452   H     0.04075   0.00856   0.17068   0.00000  Uiso   1.00
H453   H     0.97590   0.12302   0.25723   0.00000  Uiso   1.00
H454   H     0.98402   0.16660   0.38432   0.00000  Uiso   1.00
H455   H     0.06574   0.12868   0.49461   0.00000  Uiso   1.00
H456   H     0.53390   0.94970   0.74326   0.00000  Uiso   1.00
H457   H     0.52717   0.90657   0.61354   0.00000  Uiso   1.00
H458   H     0.45213   0.94911   0.46416   0.00000  Uiso   1.00
H459   H     0.45907   0.99128   0.59190   0.00000  Uiso   1.00
H460   H     0.52226   0.87655   0.52210   0.00000  Uiso   1.00
H461   H     0.51500   0.83284   0.39495   0.00000  Uiso   1.00
H462   H     0.43901   0.87475   0.24990   0.00000  Uiso   1.00
H463   H     0.97564   0.75322   0.44684   0.00000  Uiso   1.00
H464   H     0.98959   0.70467   0.52831   0.00000  Uiso   1.00
H465   H     0.97307   0.20297   0.83537   0.00000  Uiso   1.00
H466   H     0.97987   0.18068   0.70871   0.00000  Uiso   1.00
H467   H     0.01276   0.16398   0.85407   0.00000  Uiso   1.00
H468   H     0.03437   0.18569   0.75375   0.00000  Uiso   1.00
H469   H     0.05880   0.18836   0.00286   0.00000  Uiso   1.00
H470   H     0.02944   0.16285   0.96720   0.00000  Uiso   1.00
H471   H     0.02888   0.17896   0.17165   0.00000  Uiso   1.00
H472   H     0.02336   0.21655   0.12320   0.00000  Uiso   1.00
H473   H     0.99411   0.21565   0.22676   0.00000  Uiso   1.00
H474   H     0.96004   0.19497   0.21667   0.00000  Uiso   1.00
H475   H     0.95204   0.24630   0.16513   0.00000  Uiso   1.00
H476   H     0.98070   0.24405   0.05662   0.00000  Uiso   1.00
H477   H     0.94098   0.26526   0.01310   0.00000  Uiso   1.00
H478   H     0.90906   0.24463   0.96497   0.00000  Uiso   1.00
H479   H     0.94341   0.22241   0.81222   0.00000  Uiso   1.00
H480   H     0.93229   0.26055   0.79526   0.00000  Uiso   1.00
C481   C     0.01523   0.94921   0.08036   0.00000  Uiso   1.00
C482   C     0.01140   0.92527   0.15172   0.00000  Uiso   1.00
C483   C     0.98878   0.92431   0.23010   0.00000  Uiso   1.00
C484   C     0.97058   0.94844   0.23489   0.00000  Uiso   1.00
C485   C     0.97436   0.97226   0.16404   0.00000  Uiso   1.00
C486   C     0.99657   0.97316   0.08394   0.00000  Uiso   1.00
C487   C     0.00394   0.87559   0.31125   0.00000  Uiso   1.00
C488   C     0.98390   0.89848   0.30569   0.00000  Uiso   1.00
C489   C     0.97453   0.84963   0.44813   0.00000  Uiso   1.00
C490   C     0.99942   0.85141   0.38164   0.00000  Uiso   1.00
N491   N     0.96746   0.82596   0.52194   0.00000  Uiso   1.00
C492   C     0.98107   0.80305   0.54979   0.00000  Uiso   1.00
C493   C     0.49228   0.27749   0.09046   0.00000  Uiso   1.00
C494   C     0.95902   0.89608   0.37335   0.00000  Uiso   1.00
C495   C     0.95473   0.87212   0.44222   0.00000  Uiso   1.00
C496   C     0.48709   0.75164   0.24376   0.00000  Uiso   1.00
C497   C     0.49486   0.72441   0.19836   0.00000  Uiso   1.00
F498   F     0.44361   0.91916   0.36900   0.00000  Uiso   1.00
C499   C     0.48462   0.05067   0.68067   0.00000  Uiso   1.00
C500   C     0.48831   0.07452   0.60870   0.00000  Uiso   1.00
C501   C     0.51092   0.07559   0.52996   0.00000  Uiso   1.00
C502   C     0.52930   0.05152   0.52647   0.00000  Uiso   1.00
C503   C     0.52566   0.02779   0.59788   0.00000  Uiso   1.00
C504   C     0.50341   0.02683   0.67772   0.00000  Uiso   1.00
C505   C     0.49645   0.12400   0.46045   0.00000  Uiso   1.00
C506   C     0.51516   0.09992   0.45721   0.00000  Uiso   1.00
C507   C     0.52358   0.14900   0.31402   0.00000  Uiso   1.00
C508   C     0.50049   0.14825   0.38998   0.00000  Uiso   1.00
N509   N     0.53010   0.17267   0.23942   0.00000  Uiso   1.00
C510   C     0.51724   0.19649   0.21868   0.00000  Uiso   1.00
C511   C     0.00664   0.72287   0.68434   0.00000  Uiso   1.00
C512   C     0.53821   0.10130   0.37918   0.00000  Uiso   1.00
C513   C     0.54202   0.12537   0.31041   0.00000  Uiso   1.00
C514   C     0.01348   0.24804   0.53246   0.00000  Uiso   1.00
C515   C     0.00608   0.27487   0.57801   0.00000  Uiso   1.00
F516   F     0.06167   0.08344   0.37320   0.00000  Uiso   1.00
O517   O     0.02551   0.74650   0.85013   0.00000  Uiso   1.00
O518   O     0.05658   0.77911   0.02595   0.00000  Uiso   1.00
O519   O     0.00972   0.81222   0.09160   0.00000  Uiso   1.00
O520   O     0.97484   0.79548   0.90765   0.00000  Uiso   1.00
C521   C     0.01073   0.80221   0.76648   0.00000  Uiso   1.00
C522   C     0.98330   0.81349   0.81993   0.00000  Uiso   1.00
C523   C     0.96539   0.81408   0.99188   0.00000  Uiso   1.00
C524   C     0.98031   0.80703   0.10186   0.00000  Uiso   1.00
C525   C     0.02276   0.79321   0.16665   0.00000  Uiso   1.00
C526   C     0.03663   0.76851   0.10310   0.00000  Uiso   1.00
C527   C     0.06648   0.75500   0.96798   0.00000  Uiso   1.00
C528   C     0.05478   0.75506   0.84894   0.00000  Uiso   1.00
H529   H     0.03375   0.94957   0.01778   0.00000  Uiso   1.00
H530   H     0.02677   0.90628   0.14644   0.00000  Uiso   1.00
H531   H     0.95211   0.94903   0.29767   0.00000  Uiso   1.00
H532   H     0.95925   0.99144   0.17068   0.00000  Uiso   1.00
H533   H     0.02410   0.87698   0.25723   0.00000  Uiso   1.00
H534   H     0.01598   0.83340   0.38432   0.00000  Uiso   1.00
H535   H     0.93426   0.87132   0.49461   0.00000  Uiso   1.00
H536   H     0.46610   0.05030   0.74326   0.00000  Uiso   1.00
H537   H     0.47283   0.09343   0.61354   0.00000  Uiso   1.00
H538   H     0.54787   0.05089   0.46416   0.00000  Uiso   1.00
H539   H     0.54093   0.00872   0.59190   0.00000  Uiso   1.00
H540   H     0.47774   0.12345   0.52210   0.00000  Uiso   1.00
H541   H     0.48500   0.16716   0.39495   0.00000  Uiso   1.00
H542   H     0.56099   0.12525   0.24990   0.00000  Uiso   1.00
H543   H     0.02436   0.24678   0.44684   0.00000  Uiso   1.00
H544   H     0.01041   0.29533   0.52831   0.00000  Uiso   1.00
H545   H     0.02693   0.79703   0.83537   0.00000  Uiso   1.00
H546   H     0.02013   0.81932   0.70871   0.00000  Uiso   1.00
H547   H     0.98724   0.83602   0.85407   0.00000  Uiso   1.00
H548   H     0.96563   0.81431   0.75375   0.00000  Uiso   1.00
H549   H     0.94120   0.81164   0.00286   0.00000  Uiso   1.00
H550   H     0.97056   0.83715   0.96720   0.00000  Uiso   1.00
H551   H     0.97112   0.82104   0.17165   0.00000  Uiso   1.00
H552   H     0.97664   0.78345   0.12320   0.00000  Uiso   1.00
H553   H     0.00589   0.78435   0.22676   0.00000  Uiso   1.00
H554   H     0.03996   0.80503   0.21667   0.00000  Uiso   1.00
H555   H     0.04796   0.75370   0.16513   0.00000  Uiso   1.00
H556   H     0.01930   0.75595   0.05662   0.00000  Uiso   1.00
H557   H     0.05902   0.73474   0.01310   0.00000  Uiso   1.00
H558   H     0.09094   0.75537   0.96497   0.00000  Uiso   1.00
H559   H     0.05659   0.77759   0.81222   0.00000  Uiso   1.00
H560   H     0.06771   0.73945   0.79526   0.00000  Uiso   1.00
C561   C     0.51523   0.44921   0.58036   0.00000  Uiso   1.00
C562   C     0.51140   0.42527   0.65172   0.00000  Uiso   1.00
C563   C     0.48878   0.42431   0.73010   0.00000  Uiso   1.00
C564   C     0.47058   0.44844   0.73489   0.00000  Uiso   1.00
C565   C     0.47436   0.47226   0.66404   0.00000  Uiso   1.00
C566   C     0.49657   0.47316   0.58394   0.00000  Uiso   1.00
C567   C     0.50394   0.37559   0.81125   0.00000  Uiso   1.00
C568   C     0.48390   0.39848   0.80569   0.00000  Uiso   1.00
C569   C     0.47453   0.34963   0.94813   0.00000  Uiso   1.00
C570   C     0.49942   0.35141   0.88164   0.00000  Uiso   1.00
N571   N     0.46746   0.32596   0.02194   0.00000  Uiso   1.00
C572   C     0.48107   0.30305   0.04979   0.00000  Uiso   1.00
C573   C     0.99228   0.77749   0.59046   0.00000  Uiso   1.00
C574   C     0.45902   0.39608   0.87335   0.00000  Uiso   1.00
C575   C     0.45473   0.37212   0.94222   0.00000  Uiso   1.00
C576   C     0.98709   0.25164   0.74376   0.00000  Uiso   1.00
C577   C     0.99486   0.22441   0.69836   0.00000  Uiso   1.00
F578   F     0.94361   0.41916   0.86900   0.00000  Uiso   1.00
C579   C     0.98462   0.55067   0.18067   0.00000  Uiso   1.00
C580   C     0.98831   0.57452   0.10870   0.00000  Uiso   1.00
C581   C     0.01092   0.57559   0.02996   0.00000  Uiso   1.00
C582   C     0.02930   0.55152   0.02647   0.00000  Uiso   1.00
C583   C     0.02566   0.52779   0.09788   0.00000  Uiso   1.00
C584   C     0.00341   0.52683   0.17772   0.00000  Uiso   1.00
C585   C     0.99645   0.62400   0.96045   0.00000  Uiso   1.00
C586   C     0.01516   0.59992   0.95721   0.00000  Uiso   1.00
C587   C     0.02358   0.64900   0.81402   0.00000  Uiso   1.00
C588   C     0.00049   0.64825   0.88998   0.00000  Uiso   1.00
N589   N     0.03010   0.67267   0.73942   0.00000  Uiso   1.00
C590   C     0.01724   0.69649   0.71868   0.00000  Uiso   1.00
C591   C     0.50664   0.22287   0.18434   0.00000  Uiso   1.00
C592   C     0.03821   0.60130   0.87918   0.00000  Uiso   1.00
C593   C     0.04202   0.62537   0.81041   0.00000  Uiso   1.00
C594   C     0.51348   0.74804   0.03246   0.00000  Uiso   1.00
C595   C     0.50608   0.77487   0.07801   0.00000  Uiso   1.00
F596   F     0.56167   0.58344   0.87320   0.00000  Uiso   1.00
O597   O     0.52551   0.24650   0.35013   0.00000  Uiso   1.00
O598   O     0.55658   0.27911   0.52595   0.00000  Uiso   1.00
O599   O     0.50972   0.31222   0.59160   0.00000  Uiso   1.00
O600   O     0.47484   0.29548   0.40765   0.00000  Uiso   1.00
C601   C     0.51073   0.30221   0.26648   0.00000  Uiso   1.00
C602   C     0.48330   0.31349   0.31993   0.00000  Uiso   1.00
C603   C     0.46539   0.31408   0.49188   0.00000  Uiso   1.00
C604   C     0.48031   0.30703   0.60186   0.00000  Uiso   1.00
C605   C     0.52276   0.29321   0.66665   0.00000  Uiso   1.00
C606   C     0.53663   0.26851   0.60310   0.00000  Uiso   1.00
C607   C     0.56648   0.25500   0.46798   0.00000  Uiso   1.00
C608   C     0.55478   0.25506   0.34894   0.00000  Uiso   1.00
H609   H     0.53375   0.44957   0.51778   0.00000  Uiso   1.00
H610   H     0.52677   0.40628   0.64644   0.00000  Uiso   1.00
H611   H     0.45211   0.44903   0.79767   0.00000  Uiso   1.00
H612   H     0.45925   0.49144   0.67068   0.00000  Uiso   1.00
H613   H     0.52410   0.37698   0.75723   0.00000  Uiso   1.00
H614   H     0.51598   0.33340   0.88432   0.00000  Uiso   1.00
H615   H     0.43426   0.37132   0.99461   0.00000  Uiso   1.00
H616   H     0.96610   0.55030   0.24326   0.00000  Uiso   1.00
H617   H     0.97283   0.59343   0.11354   0.00000  Uiso   1.00
H618   H     0.04787   0.55089   0.96416   0.00000  Uiso   1.00
H619   H     0.04093   0.50872   0.09190   0.00000  Uiso   1.00
H620   H     0.97774   0.62345   0.02210   0.00000  Uiso   1.00
H621   H     0.98500   0.66716   0.89495   0.00000  Uiso   1.00
H622   H     0.06099   0.62525   0.74990   0.00000  Uiso   1.00
H623   H     0.52436   0.74678   0.94684   0.00000  Uiso   1.00
H624   H     0.51041   0.79533   0.02831   0.00000  Uiso   1.00
H625   H     0.52693   0.29703   0.33537   0.00000  Uiso   1.00
H626   H     0.52013   0.31932   0.20871   0.00000  Uiso   1.00
H627   H     0.48724   0.33602   0.35407   0.00000  Uiso   1.00
H628   H     0.46563   0.31431   0.25375   0.00000  Uiso   1.00
H629   H     0.44120   0.31164   0.50286   0.00000  Uiso   1.00
H630   H     0.47056   0.33715   0.46720   0.00000  Uiso   1.00
H631   H     0.47112   0.32104   0.67165   0.00000  Uiso   1.00
H632   H     0.47664   0.28345   0.62320   0.00000  Uiso   1.00
H633   H     0.50589   0.28435   0.72676   0.00000  Uiso   1.00
H634   H     0.53996   0.30503   0.71667   0.00000  Uiso   1.00
H635   H     0.54796   0.25370   0.66513   0.00000  Uiso   1.00
H636   H     0.51930   0.25595   0.55662   0.00000  Uiso   1.00
H637   H     0.55902   0.23474   0.51310   0.00000  Uiso   1.00
H638   H     0.59094   0.25537   0.46497   0.00000  Uiso   1.00
H639   H     0.55659   0.27759   0.31222   0.00000  Uiso   1.00
H640   H     0.56771   0.23945   0.29526   0.00000  Uiso   1.00
C641   C     0.00000   0.50000   0.25586   0.00000  Uiso   1.00
C642   C     0.50000   0.00000   0.75586   0.00000  Uiso   1.00
C643   C     0.50000   0.50000   0.50586   0.00000  Uiso   1.00
C644   C     0.00000   0.00000   0.00586   0.00000  Uiso   1.00
loop_
_geom_bond_atom_site_label_1
_geom_bond_atom_site_label_2
_geom_bond_distance
_geom_bond_site_symmetry_2
_ccdc_geom_bond_type
C1     C2      1.412   .     S
C1     C6      1.354   .     D
C1     H49     1.148   .     S
C2     C3      1.420   .     D
C2     H50     1.091   .     S
C3     C4      1.348   .     S
C3     C8      1.517   .     S
C4     C5      1.404   .     D
C4     H51     1.148   .     S
C5     C6      1.423   .     S
C5     H52     1.091   .     S
C6     C641    1.564   .     S
C7     C8      1.357   .     D
C7     C10     1.417   .     S
C7     H53     1.134   .     S
C8     C14     1.409   .     S
C9     C10     1.398   .     D
C9     N11     1.448   .     S
C9     C15     1.337   .     S
C10    H54     1.091   .     S
N11    C12     1.239   .     D
C12    C93     1.347   .     D
C13    C92     1.347   .     D
C13    C194    1.381   .     S
C13    C257    1.493   1_565 S
C14    C15     1.395   .     D
C14    F276    1.297   .     S
C15    H55     1.131   .     S
C16    C17     1.388   .     D
C16    C191    1.394   .     S
C16    O197    1.470   .     S
C17    C201    1.491   .     S
C17    C253    1.493   1_565 S
F18    C272    1.226   .     S
C19    C20     1.414   .     D
C19    H56     1.148   .     S
C19    C24     1.353   1_565 S
C20    H57     1.091   .     S
C20    C21     1.423   1_565 S
C21    C22     1.350   .     D
C21    C26     1.439   .     S
C21    C20     1.423   1_545 S
C22    C23     1.405   .     S
C22    H58     1.147   .     S
C23    C24     1.422   .     D
C23    H59     1.091   .     S
C24    C19     1.353   1_545 S
C24    C644    1.564   1_656 S
C25    H60     1.146   .     S
C25    C26     1.359   1_565 D
C25    C28     1.417   1_565 S
C26    C32     1.431   .     S
C26    C25     1.359   1_545 D
C27    C28     1.413   .     D
C27    N29     1.450   .     S
C27    C33     1.336   .     S
C28    C25     1.417   1_545 S
C28    H61     1.091   1_545 S
N29    C30     1.235   .     D
C30    C111    1.340   .     D
C31    C176    1.394   .     S
C31    C110    1.340   .     D
C31    C275    1.473   .     S
C32    C33     1.396   .     D
C32    F258    1.226   .     S
C33    H62     1.144   .     S
C34    C35     1.369   .     D
C34    H63     1.196   .     S
C34    C173    1.381   .     S
C35    H64     1.127   .     S
C35    C271    1.473   .     S
F36    C254    1.297   .     S
O37    C48     1.359   .     S
O37    C176    1.470   1_554 S
O38    C46     1.407   .     S
O38    C47     1.377   .     S
O39    C44     1.337   .     S
O39    C45     1.404   .     S
O40    C42     1.427   .     S
O40    C43     1.420   .     S
C41    C42     1.487   .     S
C41    H65     1.160   .     S
C41    H66     1.140   1_554 S
C41    C177    1.491   1_554 S
C42    H67     1.108   .     S
C42    H68     1.155   .     S
C43    C44     1.583   .     S
C43    H69     1.092   .     S
C43    H70     1.099   .     S
C44    H71     1.162   .     S
C44    H72     1.098   .     S
C45    C46     1.500   .     S
C45    H73     1.144   .     S
C45    H74     1.128   .     S
C46    H75     1.147   .     S
C46    H76     1.123   .     S
C47    C48     1.605   .     S
C47    H77     1.121   .     S
C47    H78     1.091   .     S
C48    H79     1.111   .     S
C48    H80     1.133   .     S
H61    C28     1.091   1_565 S
H66    C41     1.140   1_556 S
C81    C82     1.412   .     D
C81    H129    1.148   .     S
C81    C86     1.354   1_545 S
C82    H130    1.091   .     S
C82    C83     1.420   1_545 S
C83    C84     1.348   .     D
C83    C82     1.420   1_565 S
C83    C88     1.517   1_556 S
C84    C85     1.404   .     S
C84    H131    1.148   1_556 S
C85    C86     1.423   .     D
C85    H132    1.091   .     S
C86    C81     1.354   1_565 S
C86    C642    1.564   1_565 S
C87    H133    1.134   .     S
C87    C88     1.357   1_545 D
C87    C90     1.417   1_545 S
C88    C94     1.409   .     S
C88    C83     1.517   1_554 S
C88    C87     1.357   1_565 D
C89    C90     1.398   .     D
C89    N91     1.448   .     S
C89    C95     1.337   .     S
C90    C87     1.417   1_565 S
C90    H134    1.091   1_565 S
N91    C92     1.239   .     D
C93    C274    1.381   .     S
C93    C177    1.493   .     S
C94    C95     1.395   .     D
C94    F196    1.297   .     S
C95    H135    1.131   .     S
C96    C97     1.388   .     D
C96    C271    1.394   .     S
C96    O277    1.470   1_556 S
C97    C173    1.493   .     S
C97    C281    1.491   1_556 S
F98    C192    1.226   .     S
C99    C100    1.414   .     S
C99    C104    1.353   .     D
C99    H136    1.148   .     S
C100   C101    1.423   .     D
C100   H137    1.091   .     S
C101   C102    1.350   .     S
C101   C106    1.439   .     S
C102   C103    1.405   .     D
C102   H138    1.147   .     S
C103   C104    1.422   .     S
C103   H139    1.091   .     S
C104   C643    1.564   .     S
C105   C106    1.359   .     D
C105   C108    1.417   .     S
C105   H140    1.146   .     S
C106   C112    1.431   .     S
C107   C108    1.413   .     D
C107   C113    1.336   .     S
C107   N109    1.450   1_554 S
C108   H141    1.091   .     S
N109   C110    1.235   .     D
N109   C107    1.450   1_556 S
C111   C256    1.394   .     S
C111   C195    1.473   1_545 S
C112   C113    1.396   .     D
C112   F178    1.226   .     S
C113   H142    1.144   1_554 S
C114   C115    1.369   .     D
C114   H143    1.196   .     S
C114   C253    1.381   .     S
C115   H144    1.127   .     S
C115   C191    1.473   1_545 S
F116   C174    1.297   .     S
O117   C128    1.359   .     S
O117   C256    1.470   .     S
O118   C126    1.407   .     S
O118   C127    1.377   .     S
O119   C125    1.404   .     S
O119   C124    1.337   1_545 S
O120   C122    1.427   .     S
O120   C123    1.420   .     S
C121   H145    1.160   .     S
C121   H146    1.140   .     S
C121   C257    1.491   .     S
C121   C122    1.487   1_545 S
C122   H147    1.108   .     S
C122   H148    1.155   .     S
C122   C121    1.487   1_565 S
C123   C124    1.583   .     S
C123   H149    1.092   .     S
C123   H150    1.099   .     S
C124   H151    1.162   .     S
C124   H152    1.098   .     S
C124   O119    1.337   1_565 S
C125   C126    1.500   .     S
C125   H153    1.144   .     S
C125   H154    1.128   .     S
C126   H155    1.147   .     S
C126   H156    1.123   .     S
C127   C128    1.605   .     S
C127   H157    1.121   .     S
C127   H158    1.091   .     S
C128   H159    1.111   .     S
C128   H160    1.133   .     S
H131   C84     1.148   1_554 S
H134   C90     1.091   1_545 S
H142   C113    1.144   1_556 S
C161   C162    1.412   .     D
C161   H209    1.148   .     S
C161   C166    1.354   1_565 S
C162   H210    1.091   .     S
C162   C163    1.420   1_565 S
C163   C164    1.348   .     D
C163   C162    1.420   1_545 S
C163   C168    1.517   1_556 S
C164   C165    1.404   .     S
C164   H211    1.148   1_556 S
C165   C166    1.423   .     D
C165   H212    1.091   .     S
C166   C642    1.564   .     S
C166   C161    1.354   1_545 S
C167   H213    1.134   .     S
C167   C168    1.357   1_565 D
C167   C170    1.417   1_565 S
C168   C174    1.409   .     S
C168   C163    1.517   1_554 S
C168   C167    1.357   1_545 D
C169   C170    1.398   .     D
C169   N171    1.448   .     S
C169   C175    1.337   .     S
C170   C167    1.417   1_545 S
C170   H214    1.091   1_545 S
N171   C172    1.239   .     D
C172   C253    1.347   .     D
C173   C252    1.347   .     D
C174   C175    1.395   .     D
C175   H215    1.131   .     S
C176   C177    1.388   .     D
C176   O37     1.470   1_556 S
C177   C41     1.491   1_556 S
C179   C180    1.414   .     S
C179   C184    1.353   .     D
C179   H216    1.148   .     S
C180   C181    1.423   .     D
C180   H217    1.091   .     S
C181   C182    1.350   .     S
C181   C186    1.439   .     S
C182   C183    1.405   .     D
C182   H218    1.147   .     S
C183   C184    1.422   .     S
C183   H219    1.091   .     S
C184   C643    1.564   .     S
C185   C186    1.359   .     D
C185   C188    1.417   .     S
C185   H220    1.146   .     S
C186   C192    1.431   .     S
C187   C188    1.413   .     D
C187   C193    1.336   .     S
C187   N189    1.450   1_554 S
C188   H221    1.091   .     S
N189   C190    1.235   .     D
N189   C187    1.450   1_556 S
C190   C271    1.340   .     D
C191   C270    1.340   .     D
C191   C115    1.473   1_565 S
C192   C193    1.396   .     D
C193   H222    1.144   1_554 S
C194   C195    1.369   .     D
C194   H223    1.196   .     S
C195   H224    1.127   .     S
C195   C111    1.473   1_565 S
O197   C208    1.359   .     S
O198   C206    1.407   .     S
O198   C207    1.377   .     S
O199   C205    1.404   .     S
O199   C204    1.337   1_565 S
O200   C202    1.427   .     S
O200   C203    1.420   .     S
C201   H225    1.160   .     S
C201   H226    1.140   .     S
C201   C202    1.487   1_565 S
C202   H227    1.108   .     S
C202   H228    1.155   .     S
C202   C201    1.487   1_545 S
C203   C204    1.583   .     S
C203   H229    1.092   .     S
C203   H230    1.099   .     S
C204   H231    1.162   .     S
C204   H232    1.098   .     S
C204   O199    1.337   1_545 S
C205   C206    1.500   .     S
C205   H233    1.144   .     S
C205   H234    1.128   .     S
C206   H235    1.147   .     S
C206   H236    1.123   .     S
C207   C208    1.605   .     S
C207   H237    1.121   .     S
C207   H238    1.091   .     S
C208   H239    1.111   .     S
C208   H240    1.133   .     S
H211   C164    1.148   1_554 S
H214   C170    1.091   1_565 S
H222   C193    1.144   1_556 S
C241   C242    1.412   .     S
C241   C246    1.354   .     D
C241   H289    1.148   .     S
C242   C243    1.420   .     D
C242   H290    1.091   .     S
C243   C244    1.348   .     S
C243   C248    1.517   .     S
C244   C245    1.404   .     D
C244   H291    1.148   .     S
C245   C246    1.423   .     S
C245   H292    1.091   .     S
C246   C641    1.564   1_655 S
C247   C248    1.357   .     D
C247   C250    1.417   .     S
C247   H293    1.134   .     S
C248   C254    1.409   .     S
C249   C250    1.398   .     D
C249   N251    1.448   .     S
C249   C255    1.337   .     S
C250   H294    1.091   .     S
N251   C252    1.239   .     D
C253   C17     1.493   1_545 S
C254   C255    1.395   .     D
C255   H295    1.131   .     S
C256   C257    1.388   .     D
C257   C13     1.493   1_545 S
C259   C260    1.414   .     D
C259   H296    1.148   .     S
C259   C264    1.353   1_545 S
C260   H297    1.091   .     S
C260   C261    1.423   1_545 S
C261   C262    1.350   .     D
C261   C266    1.439   .     S
C261   C260    1.423   1_565 S
C262   C263    1.405   .     S
C262   H298    1.147   .     S
C263   C264    1.422   .     D
C263   H299    1.091   .     S
C264   C259    1.353   1_565 S
C264   C644    1.564   1_566 S
C265   H300    1.146   .     S
C265   C266    1.359   1_545 S
C265   C268    1.417   1_545 D
C266   C272    1.431   .     D
C266   C265    1.359   1_565 S
C267   C268    1.413   .     S
C267   N269    1.450   .     S
C267   C273    1.336   .     D
C268   C265    1.417   1_565 D
C268   H301    1.091   1_565 S
N269   C270    1.235   .     D
C272   C273    1.396   .     S
C273   H302    1.144   .     S
C274   C275    1.369   .     D
C274   H303    1.196   .     S
C275   H304    1.127   .     S
O277   C288    1.359   .     S
O277   C96     1.470   1_554 S
O278   C286    1.407   .     S
O278   C287    1.377   .     S
O279   C284    1.337   .     S
O279   C285    1.404   .     S
O280   C282    1.427   .     S
O280   C283    1.420   .     S
C281   C282    1.487   .     S
C281   H305    1.160   .     S
C281   C97     1.491   1_554 S
C281   H306    1.140   1_554 S
C282   H307    1.108   .     S
C282   H308    1.155   .     S
C283   C284    1.583   .     S
C283   H309    1.092   .     S
C283   H310    1.099   .     S
C284   H311    1.162   .     S
C284   H312    1.098   .     S
C285   C286    1.500   .     S
C285   H313    1.144   .     S
C285   H314    1.128   .     S
C286   H315    1.147   .     S
C286   H316    1.123   .     S
C287   C288    1.605   .     S
C287   H317    1.121   .     S
C287   H318    1.091   .     S
C288   H319    1.111   .     S
C288   H320    1.133   .     S
H301   C268    1.091   1_545 S
H306   C281    1.140   1_556 S
C321   C322    1.412   .     S
C321   C326    1.354   .     D
C321   H369    1.148   .     S
C322   C323    1.420   .     D
C322   H370    1.091   .     S
C323   C324    1.348   .     S
C323   C328    1.517   .     S
C324   C325    1.404   .     D
C324   H371    1.148   .     S
C325   C326    1.423   .     S
C325   H372    1.091   .     S
C326   C643    1.564   .     S
C327   C328    1.357   .     D
C327   C330    1.417   .     S
C327   H373    1.134   .     S
C328   C334    1.409   .     S
C329   C330    1.398   .     D
C329   C335    1.337   .     S
C329   N331    1.448   1_556 S
C330   H374    1.091   .     S
N331   C332    1.239   .     D
N331   C329    1.448   1_554 S
C332   C413    1.347   .     D
C333   C412    1.347   .     D
C333   C514    1.381   .     S
C333   C577    1.493   1_455 S
C334   C335    1.395   .     D
C334   F596    1.297   .     S
C335   H375    1.131   .     S
C336   C337    1.388   .     D
C336   C511    1.394   .     S
C336   O517    1.470   .     S
C337   C521    1.491   .     S
C337   C573    1.493   1_455 S
F338   C592    1.226   .     S
C339   C340    1.414   .     D
C339   H376    1.148   .     S
C339   C344    1.353   1_455 S
C340   H377    1.091   .     S
C340   C341    1.423   1_455 S
C341   C342    1.350   .     D
C341   C340    1.423   1_655 S
C341   C346    1.439   1_554 S
C342   C343    1.405   .     S
C342   H378    1.147   1_554 S
C343   C344    1.422   .     D
C343   H379    1.091   .     S
C344   C339    1.353   1_655 S
C344   C641    1.564   1_655 S
C345   C346    1.359   1_455 D
C345   C348    1.417   1_455 S
C345   H380    1.146   1_556 S
C346   C352    1.431   .     S
C346   C341    1.439   1_556 S
C346   C345    1.359   1_655 D
C347   C348    1.413   .     D
C347   N349    1.450   .     S
C347   C353    1.336   .     S
C348   C345    1.417   1_655 S
C348   H381    1.091   1_655 S
N349   C350    1.235   .     D
C350   C431    1.340   .     D
C351   C496    1.394   .     S
C351   C430    1.340   .     D
C351   C595    1.473   .     S
C352   C353    1.396   .     D
C352   F578    1.226   .     S
C353   H382    1.144   .     S
C354   C355    1.369   .     D
C354   C493    1.381   .     S
C354   H383    1.196   1_554 S
C355   H384    1.127   .     S
C355   C591    1.473   .     S
F356   C574    1.297   .     S
O357   C368    1.359   .     S
O357   C496    1.470   .     S
O358   C366    1.407   .     S
O358   C367    1.377   .     S
O359   C364    1.337   .     S
O359   C365    1.404   .     S
O360   C362    1.427   .     S
O360   C363    1.420   .     S
C361   C362    1.487   .     S
C361   H385    1.160   .     S
C361   H386    1.140   .     S
C361   C497    1.491   .     S
C362   H387    1.108   .     S
C362   H388    1.155   .     S
C363   C364    1.583   .     S
C363   H389    1.092   .     S
C363   H390    1.099   .     S
C364   H391    1.162   .     S
C364   H392    1.098   .     S
C365   C366    1.500   .     S
C365   H393    1.144   .     S
C365   H394    1.128   .     S
C366   H395    1.147   .     S
C366   H396    1.123   .     S
C367   C368    1.605   .     S
C367   H397    1.121   .     S
C367   H398    1.091   .     S
C368   H399    1.111   .     S
C368   H400    1.133   .     S
H378   C342    1.147   1_556 S
H380   C345    1.146   1_554 S
H381   C348    1.091   1_455 S
H383   C354    1.196   1_556 S
C401   C402    1.412   .     D
C401   H449    1.148   .     S
C401   C406    1.354   1_655 S
C402   H450    1.091   .     S
C402   C403    1.420   1_655 S
C403   C404    1.348   .     D
C403   C408    1.517   .     S
C403   C402    1.420   1_455 S
C404   C405    1.404   .     S
C404   H451    1.148   .     S
C405   C406    1.423   .     D
C405   H452    1.091   .     S
C406   C644    1.564   .     S
C406   C401    1.354   1_455 S
C407   H453    1.134   .     S
C407   C408    1.357   1_655 D
C407   C410    1.417   1_655 S
C408   C414    1.409   .     S
C408   C407    1.357   1_455 D
C409   C410    1.398   .     D
C409   N411    1.448   .     S
C409   C415    1.337   .     S
C410   C407    1.417   1_455 S
C410   H454    1.091   1_455 S
N411   C412    1.239   .     D
C413   C594    1.381   .     S
C413   C497    1.493   .     S
C414   C415    1.395   .     D
C414   F516    1.297   .     S
C415   H455    1.131   .     S
C416   C417    1.388   .     D
C416   C591    1.394   .     S
C416   O597    1.470   .     S
C417   C493    1.493   .     S
C417   C601    1.491   .     S
F418   C512    1.226   .     S
C419   C420    1.414   .     S
C419   C424    1.353   .     D
C419   H456    1.148   .     S
C420   C421    1.423   .     D
C420   H457    1.091   .     S
C421   C422    1.350   .     S
C421   C426    1.439   .     S
C422   C423    1.405   .     D
C422   H458    1.147   .     S
C423   C424    1.422   .     S
C423   H459    1.091   .     S
C424   C642    1.564   1_565 S
C425   C426    1.359   .     S
C425   C428    1.417   .     D
C425   H460    1.146   .     S
C426   C432    1.431   .     D
C427   C428    1.413   .     S
C427   N429    1.450   .     S
C427   C433    1.336   .     D
C428   H461    1.091   .     S
N429   C430    1.235   .     D
C431   C576    1.394   .     S
C431   C515    1.473   1_655 S
C432   C433    1.396   .     S
C432   F498    1.226   .     S
C433   H462    1.144   .     S
C434   C435    1.369   .     D
C434   H463    1.196   .     S
C434   C573    1.381   .     S
C435   H464    1.127   .     S
C435   C511    1.473   1_655 S
F436   C494    1.297   .     S
O437   C448    1.359   .     S
O437   C576    1.470   .     S
O438   C446    1.407   .     S
O438   C447    1.377   1_554 S
O439   C445    1.404   .     S
O439   C444    1.337   1_655 S
O440   C442    1.427   .     S
O440   C443    1.420   .     S
C441   H465    1.160   .     S
C441   H466    1.140   .     S
C441   C577    1.491   .     S
C441   C442    1.487   1_655 S
C442   H467    1.108   .     S
C442   H468    1.155   .     S
C442   C441    1.487   1_455 S
C443   H470    1.099   .     S
C443   C444    1.583   1_556 S
C443   H469    1.092   1_556 S
C444   H471    1.162   .     S
C444   H472    1.098   .     S
C444   O439    1.337   1_455 S
C444   C443    1.583   1_554 S
C445   C446    1.500   .     S
C445   H473    1.144   .     S
C445   H474    1.128   .     S
C446   H475    1.147   .     S
C446   H476    1.123   .     S
C447   C448    1.605   .     S
C447   H478    1.091   .     S
C447   O438    1.377   1_556 S
C447   H477    1.121   1_556 S
C448   H479    1.111   .     S
C448   H480    1.133   .     S
H454   C410    1.091   1_655 S
H469   C443    1.092   1_554 S
H477   C447    1.121   1_554 S
C481   C482    1.412   .     D
C481   H529    1.148   .     S
C481   C486    1.354   1_455 S
C482   H530    1.091   .     S
C482   C483    1.420   1_455 S
C483   C484    1.348   .     D
C483   C488    1.517   .     S
C483   C482    1.420   1_655 S
C484   C485    1.404   .     S
C484   H531    1.148   .     S
C485   C486    1.423   .     D
C485   H532    1.091   .     S
C486   C481    1.354   1_655 S
C486   C644    1.564   1_665 S
C487   H533    1.134   .     S
C487   C488    1.357   1_455 D
C487   C490    1.417   1_455 S
C488   C494    1.409   .     S
C488   C487    1.357   1_655 D
C489   C490    1.398   .     D
C489   N491    1.448   .     S
C489   C495    1.337   .     S
C490   C487    1.417   1_655 S
C490   H534    1.091   1_655 S
N491   C492    1.239   .     D
C492   C573    1.347   .     D
C493   C572    1.347   .     D
C494   C495    1.395   .     D
C495   H535    1.131   .     S
C496   C497    1.388   .     D
C499   C500    1.414   .     S
C499   C504    1.353   .     D
C499   H536    1.148   .     S
C500   C501    1.423   .     D
C500   H537    1.091   .     S
C501   C502    1.350   .     S
C501   C506    1.439   .     S
C502   C503    1.405   .     D
C502   H538    1.147   .     S
C503   C504    1.422   .     S
C503   H539    1.091   .     S
C504   C642    1.564   .     S
C505   C506    1.359   .     D
C505   C508    1.417   .     S
C505   H540    1.146   .     S
C506   C512    1.431   .     S
C507   C508    1.413   .     D
C507   N509    1.450   .     S
C507   C513    1.336   .     S
C508   H541    1.091   .     S
N509   C510    1.235   .     D
C510   C591    1.340   .     D
C511   C590    1.340   .     D
C511   C435    1.473   1_455 S
C512   C513    1.396   .     D
C513   H542    1.144   .     S
C514   C515    1.369   .     D
C514   H543    1.196   .     S
C515   H544    1.127   .     S
C515   C431    1.473   1_455 S
O517   C528    1.359   .     S
O518   C526    1.407   .     S
O518   C527    1.377   1_554 S
O519   C525    1.404   .     S
O519   C524    1.337   1_455 S
O520   C522    1.427   .     S
O520   C523    1.420   .     S
C521   H545    1.160   .     S
C521   H546    1.140   .     S
C521   C522    1.487   1_455 S
C522   H547    1.108   .     S
C522   H548    1.155   .     S
C522   C521    1.487   1_655 S
C523   H550    1.099   .     S
C523   C524    1.583   1_556 S
C523   H549    1.092   1_556 S
C524   H551    1.162   .     S
C524   H552    1.098   .     S
C524   O519    1.337   1_655 S
C524   C523    1.583   1_554 S
C525   C526    1.500   .     S
C525   H553    1.144   .     S
C525   H554    1.128   .     S
C526   H555    1.147   .     S
C526   H556    1.123   .     S
C527   C528    1.605   .     S
C527   H558    1.091   .     S
C527   O518    1.377   1_556 S
C527   H557    1.121   1_556 S
C528   H559    1.111   .     S
C528   H560    1.133   .     S
H534   C490    1.091   1_455 S
H549   C523    1.092   1_554 S
H557   C527    1.121   1_554 S
C561   C562    1.412   .     S
C561   C566    1.354   .     D
C561   H609    1.148   .     S
C562   C563    1.420   .     D
C562   H610    1.091   .     S
C563   C564    1.348   .     S
C563   C568    1.517   .     S
C564   C565    1.404   .     D
C564   H611    1.148   .     S
C565   C566    1.423   .     S
C565   H612    1.091   .     S
C566   C643    1.564   .     S
C567   C568    1.357   .     D
C567   C570    1.417   .     S
C567   H613    1.134   .     S
C568   C574    1.409   .     S
C569   C570    1.398   .     D
C569   C575    1.337   .     S
C569   N571    1.448   1_556 S
C570   H614    1.091   .     S
N571   C572    1.239   .     D
N571   C569    1.448   1_554 S
C573   C337    1.493   1_655 S
C574   C575    1.395   .     D
C575   H615    1.131   .     S
C576   C577    1.388   .     D
C577   C333    1.493   1_655 S
C579   C580    1.414   .     D
C579   H616    1.148   .     S
C579   C584    1.353   1_655 S
C580   H617    1.091   .     S
C580   C581    1.423   1_655 S
C581   C582    1.350   .     D
C581   C580    1.423   1_455 S
C581   C586    1.439   1_554 S
C582   C583    1.405   .     S
C582   H618    1.147   1_554 S
C583   C584    1.422   .     D
C583   H619    1.091   .     S
C584   C641    1.564   .     S
C584   C579    1.353   1_455 S
C585   C586    1.359   1_655 D
C585   C588    1.417   1_655 S
C585   H620    1.146   1_556 S
C586   C592    1.431   .     S
C586   C581    1.439   1_556 S
C586   C585    1.359   1_455 D
C587   C588    1.413   .     D
C587   N589    1.450   .     S
C587   C593    1.336   .     S
C588   C585    1.417   1_455 S
C588   H621    1.091   1_455 S
N589   C590    1.235   .     D
C592   C593    1.396   .     D
C593   H622    1.144   .     S
C594   C595    1.369   .     D
C594   H623    1.196   1_554 S
C595   H624    1.127   .     S
O597   C608    1.359   .     S
O598   C606    1.407   .     S
O598   C607    1.377   .     S
O599   C604    1.337   .     S
O599   C605    1.404   .     S
O600   C602    1.427   .     S
O600   C603    1.420   .     S
C601   C602    1.487   .     S
C601   H625    1.160   .     S
C601   H626    1.140   .     S
C602   H627    1.108   .     S
C602   H628    1.155   .     S
C603   C604    1.583   .     S
C603   H629    1.092   .     S
C603   H630    1.099   .     S
C604   H631    1.162   .     S
C604   H632    1.098   .     S
C605   C606    1.500   .     S
C605   H633    1.144   .     S
C605   H634    1.128   .     S
C606   H635    1.147   .     S
C606   H636    1.123   .     S
C607   C608    1.605   .     S
C607   H637    1.121   .     S
C607   H638    1.091   .     S
C608   H639    1.111   .     S
C608   H640    1.133   .     S
H618   C582    1.147   1_556 S
H620   C585    1.146   1_554 S
H621   C588    1.091   1_655 S
H623   C594    1.196   1_556 S
C641   C246    1.564   1_455 S
C641   C344    1.564   1_455 S
C642   C86     1.564   1_545 S
C642   C424    1.564   1_545 S
C644   C24     1.564   1_454 S
C644   C264    1.564   1_544 S
C644   C486    1.564   1_445 S
