data_717
_audit_creation_date              2023-09-08
_audit_creation_method            'Materials Studio'
_symmetry_space_group_name_H-M    'P1'
_symmetry_Int_Tables_number       1
_symmetry_cell_setting            triclinic
loop_
_symmetry_equiv_pos_as_xyz
  x,y,z
_cell_length_a                    29.9319
_cell_length_b                    29.9319
_cell_length_c                    6.5682
_cell_angle_alpha                 90.0000
_cell_angle_beta                  90.0000
_cell_angle_gamma                 90.0000
loop_
_atom_site_label
_atom_site_type_symbol
_atom_site_fract_x
_atom_site_fract_y
_atom_site_fract_z
_atom_site_U_iso_or_equiv
_atom_site_adp_type
_atom_site_occupancy
C1     C     0.54435   0.96137   0.46619   0.00000  Uiso   1.00
C2     C     0.41867   0.04232   0.33756   0.00000  Uiso   1.00
C3     C     0.38408   0.01111   0.34797   0.00000  Uiso   1.00
C4     C     0.38674   0.97605   0.48901   0.00000  Uiso   1.00
C5     C     0.42364   0.97247   0.61738   0.00000  Uiso   1.00
C6     C     0.45870   0.00377   0.60918   0.00000  Uiso   1.00
C7     C     0.31522   0.98589   0.20268   0.00000  Uiso   1.00
N8     N     0.34719   0.01505   0.21076   0.00000  Uiso   1.00
C9     C     0.24513   0.95668   0.04041   0.00000  Uiso   1.00
C10    C     0.27652   0.02745   0.92875   0.00000  Uiso   1.00
C11    C     0.27791   0.99044   0.05887   0.00000  Uiso   1.00
C12    C     0.04135   0.46191   0.96304   0.00000  Uiso   1.00
C13    C     0.92332   0.54217   0.82690   0.00000  Uiso   1.00
C14    C     0.88748   0.51259   0.83517   0.00000  Uiso   1.00
C15    C     0.88707   0.47858   0.98207   0.00000  Uiso   1.00
C16    C     0.92269   0.47443   0.11851   0.00000  Uiso   1.00
C17    C     0.95908   0.50421   0.11125   0.00000  Uiso   1.00
C18    C     0.81783   0.49221   0.67637   0.00000  Uiso   1.00
N19    N     0.85311   0.51706   0.68631   0.00000  Uiso   1.00
C20    C     0.74417   0.47590   0.53254   0.00000  Uiso   1.00
C21    C     0.79271   0.52556   0.34070   0.00000  Uiso   1.00
C22    C     0.78472   0.49833   0.51305   0.00000  Uiso   1.00
O23    O     0.18100   0.92578   0.86503   0.00000  Uiso   1.00
O24    O     0.24747   0.91650   0.15005   0.00000  Uiso   1.00
C25    C     0.04154   0.04016   0.71692   0.00000  Uiso   1.00
C26    C     0.95283   0.92484   0.57978   0.00000  Uiso   1.00
C27    C     0.98193   0.88853   0.58129   0.00000  Uiso   1.00
C28    C     0.01671   0.88711   0.72434   0.00000  Uiso   1.00
C29    C     0.02235   0.92227   0.86183   0.00000  Uiso   1.00
C30    C     0.99334   0.95933   0.85996   0.00000  Uiso   1.00
C31    C     0.00408   0.82201   0.40405   0.00000  Uiso   1.00
N32    N     0.97647   0.85478   0.42966   0.00000  Uiso   1.00
C33    C     0.03102   0.75637   0.22015   0.00000  Uiso   1.00
C34    C     0.96049   0.78820   0.11048   0.00000  Uiso   1.00
C35    C     0.99769   0.78851   0.24297   0.00000  Uiso   1.00
O36    O     0.54603   0.16543   0.68188   0.00000  Uiso   1.00
O37    O     0.55235   0.22937   0.99222   0.00000  Uiso   1.00
C38    C     0.53865   0.54174   0.21087   0.00000  Uiso   1.00
C39    C     0.45707   0.42229   0.07713   0.00000  Uiso   1.00
C40    C     0.48628   0.38609   0.08985   0.00000  Uiso   1.00
C41    C     0.51976   0.38602   0.23943   0.00000  Uiso   1.00
C42    C     0.52404   0.42205   0.37267   0.00000  Uiso   1.00
C43    C     0.49500   0.45891   0.36049   0.00000  Uiso   1.00
C44    C     0.50768   0.31562   0.94933   0.00000  Uiso   1.00
N45    N     0.48311   0.35120   0.94175   0.00000  Uiso   1.00
C46    C     0.52951   0.24035   0.81216   0.00000  Uiso   1.00
C47    C     0.47962   0.28842   0.61741   0.00000  Uiso   1.00
C48    C     0.50585   0.28109   0.79059   0.00000  Uiso   1.00
C49    C     0.15855   0.91796   0.03801   0.00000  Uiso   1.00
C50    C     0.25686   0.92183   0.34834   0.00000  Uiso   1.00
C51    C     0.59304   0.16775   0.70963   0.00000  Uiso   1.00
C52    C     0.58418   0.26165   0.05788   0.00000  Uiso   1.00
C53    C     0.15725   0.87396   0.05320   0.00000  Uiso   1.00
C54    C     0.25998   0.88066   0.41937   0.00000  Uiso   1.00
C55    C     0.60678   0.13571   0.87647   0.00000  Uiso   1.00
C56    C     0.62902   0.23947   0.09397   0.00000  Uiso   1.00
O57    O     0.12932   0.86499   0.20455   0.00000  Uiso   1.00
O58    O     0.22408   0.87482   0.53291   0.00000  Uiso   1.00
O59    O     0.65190   0.14170   0.92137   0.00000  Uiso   1.00
O60    O     0.62459   0.20649   0.24308   0.00000  Uiso   1.00
C61    C     0.15152   0.87480   0.38875   0.00000  Uiso   1.00
C62    C     0.19502   0.84916   0.41397   0.00000  Uiso   1.00
C63    C     0.65475   0.13659   0.13230   0.00000  Uiso   1.00
C64    C     0.66393   0.18154   0.23201   0.00000  Uiso   1.00
H65    H     0.69749   0.94492   0.94410   0.00000  Uiso   1.00
H66    H     0.75688   0.93846   0.67604   0.00000  Uiso   1.00
H67    H     0.85727   0.95963   0.27160   0.00000  Uiso   1.00
H68    H     0.92121   0.94928   0.02246   0.00000  Uiso   1.00
H69    H     0.98922   0.06575   0.28802   0.00000  Uiso   1.00
H70    H     0.45429   0.26250   0.32779   0.00000  Uiso   1.00
H71    H     0.46102   0.32138   0.59813   0.00000  Uiso   1.00
H72    H     0.31656   0.95614   0.31089   0.00000  Uiso   1.00
H73    H     0.51640   0.93563   0.45413   0.00000  Uiso   1.00
H74    H     0.41682   0.07100   0.22366   0.00000  Uiso   1.00
H75    H     0.35863   0.95044   0.49854   0.00000  Uiso   1.00
H76    H     0.42579   0.94384   0.73145   0.00000  Uiso   1.00
H77    H     0.01242   0.43723   0.95313   0.00000  Uiso   1.00
H78    H     0.92380   0.56992   0.70805   0.00000  Uiso   1.00
H79    H     0.85772   0.45437   0.99011   0.00000  Uiso   1.00
H80    H     0.92204   0.44653   0.23662   0.00000  Uiso   1.00
H81    H     0.81201   0.46507   0.79523   0.00000  Uiso   1.00
H82    H     0.92416   0.92603   0.46567   0.00000  Uiso   1.00
H83    H     0.03403   0.81953   0.51069   0.00000  Uiso   1.00
H84    H     0.56296   0.51257   0.19751   0.00000  Uiso   1.00
H85    H     0.42956   0.42257   0.95711   0.00000  Uiso   1.00
H86    H     0.54358   0.35644   0.25236   0.00000  Uiso   1.00
H87    H     0.55136   0.42190   0.49360   0.00000  Uiso   1.00
H88    H     0.53165   0.31038   0.08208   0.00000  Uiso   1.00
H89    H     0.12325   0.93205   0.02698   0.00000  Uiso   1.00
H90    H     0.17711   0.93383   0.17121   0.00000  Uiso   1.00
H91    H     0.22859   0.94046   0.42783   0.00000  Uiso   1.00
H92    H     0.28957   0.94099   0.36508   0.00000  Uiso   1.00
H93    H     0.60285   0.20322   0.75435   0.00000  Uiso   1.00
H94    H     0.61053   0.15825   0.56164   0.00000  Uiso   1.00
H95    H     0.57213   0.27770   0.20540   0.00000  Uiso   1.00
H96    H     0.58804   0.28849   0.93599   0.00000  Uiso   1.00
H97    H     0.19193   0.86046   0.09020   0.00000  Uiso   1.00
H98    H     0.14482   0.85911   0.90374   0.00000  Uiso   1.00
H99    H     0.29140   0.87702   0.51608   0.00000  Uiso   1.00
H100   H     0.26090   0.85611   0.28675   0.00000  Uiso   1.00
H101   H     0.60098   0.09991   0.82343   0.00000  Uiso   1.00
H102   H     0.58600   0.14242   0.01869   0.00000  Uiso   1.00
H103   H     0.65420   0.26557   0.14696   0.00000  Uiso   1.00
H104   H     0.64123   0.22361   0.94631   0.00000  Uiso   1.00
H105   H     0.12845   0.86633   0.52134   0.00000  Uiso   1.00
H106   H     0.15978   0.91196   0.39446   0.00000  Uiso   1.00
H107   H     0.18819   0.81595   0.49300   0.00000  Uiso   1.00
H108   H     0.21081   0.84281   0.25869   0.00000  Uiso   1.00
H109   H     0.68301   0.11246   0.17032   0.00000  Uiso   1.00
H110   H     0.62189   0.12265   0.19283   0.00000  Uiso   1.00
H111   H     0.67753   0.17595   0.39213   0.00000  Uiso   1.00
H112   H     0.68972   0.20047   0.13783   0.00000  Uiso   1.00
C113   C     0.45565   0.03863   0.46619   0.00000  Uiso   1.00
C114   C     0.58133   0.95768   0.33756   0.00000  Uiso   1.00
C115   C     0.61592   0.98889   0.34797   0.00000  Uiso   1.00
C116   C     0.61326   0.02395   0.48901   0.00000  Uiso   1.00
C117   C     0.57636   0.02753   0.61738   0.00000  Uiso   1.00
C118   C     0.54130   0.99623   0.60918   0.00000  Uiso   1.00
C119   C     0.68478   0.01411   0.20268   0.00000  Uiso   1.00
N120   N     0.65281   0.98495   0.21076   0.00000  Uiso   1.00
C121   C     0.75487   0.04332   0.04041   0.00000  Uiso   1.00
C122   C     0.72348   0.97255   0.92875   0.00000  Uiso   1.00
C123   C     0.72209   0.00956   0.05887   0.00000  Uiso   1.00
C124   C     0.95865   0.53809   0.96304   0.00000  Uiso   1.00
C125   C     0.07668   0.45783   0.82690   0.00000  Uiso   1.00
C126   C     0.11252   0.48741   0.83517   0.00000  Uiso   1.00
C127   C     0.11293   0.52142   0.98207   0.00000  Uiso   1.00
C128   C     0.07731   0.52557   0.11851   0.00000  Uiso   1.00
C129   C     0.04092   0.49579   0.11125   0.00000  Uiso   1.00
C130   C     0.18217   0.50779   0.67637   0.00000  Uiso   1.00
N131   N     0.14689   0.48294   0.68631   0.00000  Uiso   1.00
C132   C     0.25583   0.52410   0.53254   0.00000  Uiso   1.00
C133   C     0.20729   0.47444   0.34070   0.00000  Uiso   1.00
C134   C     0.21528   0.50167   0.51305   0.00000  Uiso   1.00
O135   O     0.81900   0.07422   0.86503   0.00000  Uiso   1.00
O136   O     0.75253   0.08350   0.15005   0.00000  Uiso   1.00
C137   C     0.95846   0.95984   0.71692   0.00000  Uiso   1.00
C138   C     0.04717   0.07516   0.57978   0.00000  Uiso   1.00
C139   C     0.01807   0.11147   0.58129   0.00000  Uiso   1.00
C140   C     0.98329   0.11289   0.72434   0.00000  Uiso   1.00
C141   C     0.97765   0.07773   0.86183   0.00000  Uiso   1.00
C142   C     0.00666   0.04067   0.85996   0.00000  Uiso   1.00
C143   C     0.99592   0.17799   0.40405   0.00000  Uiso   1.00
N144   N     0.02353   0.14522   0.42966   0.00000  Uiso   1.00
C145   C     0.96898   0.24363   0.22015   0.00000  Uiso   1.00
C146   C     0.03951   0.21180   0.11048   0.00000  Uiso   1.00
C147   C     0.00231   0.21149   0.24297   0.00000  Uiso   1.00
O148   O     0.45397   0.83457   0.68188   0.00000  Uiso   1.00
O149   O     0.44765   0.77063   0.99222   0.00000  Uiso   1.00
C150   C     0.46135   0.45826   0.21087   0.00000  Uiso   1.00
C151   C     0.54293   0.57771   0.07713   0.00000  Uiso   1.00
C152   C     0.51372   0.61391   0.08985   0.00000  Uiso   1.00
C153   C     0.48024   0.61398   0.23943   0.00000  Uiso   1.00
C154   C     0.47596   0.57795   0.37267   0.00000  Uiso   1.00
C155   C     0.50500   0.54109   0.36049   0.00000  Uiso   1.00
C156   C     0.49232   0.68438   0.94933   0.00000  Uiso   1.00
N157   N     0.51689   0.64880   0.94175   0.00000  Uiso   1.00
C158   C     0.47049   0.75965   0.81216   0.00000  Uiso   1.00
C159   C     0.52038   0.71158   0.61741   0.00000  Uiso   1.00
C160   C     0.49415   0.71891   0.79059   0.00000  Uiso   1.00
C161   C     0.84145   0.08204   0.03801   0.00000  Uiso   1.00
C162   C     0.74314   0.07817   0.34834   0.00000  Uiso   1.00
C163   C     0.40696   0.83225   0.70963   0.00000  Uiso   1.00
C164   C     0.41582   0.73835   0.05788   0.00000  Uiso   1.00
C165   C     0.84275   0.12604   0.05320   0.00000  Uiso   1.00
C166   C     0.74002   0.11934   0.41937   0.00000  Uiso   1.00
C167   C     0.39322   0.86429   0.87647   0.00000  Uiso   1.00
C168   C     0.37098   0.76053   0.09397   0.00000  Uiso   1.00
O169   O     0.87068   0.13501   0.20455   0.00000  Uiso   1.00
O170   O     0.77592   0.12518   0.53291   0.00000  Uiso   1.00
O171   O     0.34810   0.85830   0.92137   0.00000  Uiso   1.00
O172   O     0.37541   0.79351   0.24308   0.00000  Uiso   1.00
C173   C     0.84848   0.12520   0.38875   0.00000  Uiso   1.00
C174   C     0.80498   0.15084   0.41397   0.00000  Uiso   1.00
C175   C     0.34525   0.86341   0.13230   0.00000  Uiso   1.00
C176   C     0.33607   0.81846   0.23201   0.00000  Uiso   1.00
H177   H     0.30251   0.05508   0.94410   0.00000  Uiso   1.00
H178   H     0.24312   0.06154   0.67604   0.00000  Uiso   1.00
H179   H     0.14273   0.04037   0.27160   0.00000  Uiso   1.00
H180   H     0.07879   0.05072   0.02246   0.00000  Uiso   1.00
H181   H     0.01078   0.93425   0.28802   0.00000  Uiso   1.00
H182   H     0.54571   0.73750   0.32779   0.00000  Uiso   1.00
H183   H     0.53898   0.67862   0.59813   0.00000  Uiso   1.00
H184   H     0.68344   0.04386   0.31089   0.00000  Uiso   1.00
H185   H     0.48360   0.06437   0.45413   0.00000  Uiso   1.00
H186   H     0.58318   0.92900   0.22366   0.00000  Uiso   1.00
H187   H     0.64137   0.04956   0.49854   0.00000  Uiso   1.00
H188   H     0.57421   0.05616   0.73145   0.00000  Uiso   1.00
H189   H     0.98758   0.56277   0.95313   0.00000  Uiso   1.00
H190   H     0.07620   0.43008   0.70805   0.00000  Uiso   1.00
H191   H     0.14228   0.54563   0.99011   0.00000  Uiso   1.00
H192   H     0.07796   0.55347   0.23662   0.00000  Uiso   1.00
H193   H     0.18799   0.53493   0.79523   0.00000  Uiso   1.00
H194   H     0.07584   0.07397   0.46567   0.00000  Uiso   1.00
H195   H     0.96597   0.18047   0.51069   0.00000  Uiso   1.00
H196   H     0.43704   0.48743   0.19751   0.00000  Uiso   1.00
H197   H     0.57044   0.57743   0.95711   0.00000  Uiso   1.00
H198   H     0.45642   0.64356   0.25236   0.00000  Uiso   1.00
H199   H     0.44864   0.57810   0.49360   0.00000  Uiso   1.00
H200   H     0.46835   0.68962   0.08208   0.00000  Uiso   1.00
H201   H     0.87675   0.06795   0.02698   0.00000  Uiso   1.00
H202   H     0.82289   0.06617   0.17121   0.00000  Uiso   1.00
H203   H     0.77141   0.05954   0.42783   0.00000  Uiso   1.00
H204   H     0.71043   0.05901   0.36508   0.00000  Uiso   1.00
H205   H     0.39715   0.79678   0.75435   0.00000  Uiso   1.00
H206   H     0.38947   0.84175   0.56164   0.00000  Uiso   1.00
H207   H     0.42787   0.72230   0.20540   0.00000  Uiso   1.00
H208   H     0.41196   0.71151   0.93599   0.00000  Uiso   1.00
H209   H     0.80807   0.13954   0.09020   0.00000  Uiso   1.00
H210   H     0.85518   0.14089   0.90374   0.00000  Uiso   1.00
H211   H     0.70860   0.12298   0.51608   0.00000  Uiso   1.00
H212   H     0.73910   0.14389   0.28675   0.00000  Uiso   1.00
H213   H     0.39902   0.90009   0.82343   0.00000  Uiso   1.00
H214   H     0.41400   0.85758   0.01869   0.00000  Uiso   1.00
H215   H     0.34580   0.73443   0.14696   0.00000  Uiso   1.00
H216   H     0.35877   0.77639   0.94631   0.00000  Uiso   1.00
H217   H     0.87155   0.13367   0.52134   0.00000  Uiso   1.00
H218   H     0.84022   0.08804   0.39446   0.00000  Uiso   1.00
H219   H     0.81181   0.18405   0.49300   0.00000  Uiso   1.00
H220   H     0.78919   0.15719   0.25869   0.00000  Uiso   1.00
H221   H     0.31699   0.88754   0.17032   0.00000  Uiso   1.00
H222   H     0.37811   0.87735   0.19283   0.00000  Uiso   1.00
H223   H     0.32247   0.82405   0.39213   0.00000  Uiso   1.00
H224   H     0.31028   0.79953   0.13783   0.00000  Uiso   1.00
C225   C     0.96137   0.45565   0.53381   0.00000  Uiso   1.00
C226   C     0.04232   0.58133   0.66244   0.00000  Uiso   1.00
C227   C     0.01111   0.61592   0.65203   0.00000  Uiso   1.00
C228   C     0.97605   0.61326   0.51099   0.00000  Uiso   1.00
C229   C     0.97247   0.57636   0.38262   0.00000  Uiso   1.00
C230   C     0.00377   0.54130   0.39082   0.00000  Uiso   1.00
C231   C     0.98589   0.68478   0.79732   0.00000  Uiso   1.00
N232   N     0.01505   0.65281   0.78924   0.00000  Uiso   1.00
C233   C     0.95668   0.75487   0.95959   0.00000  Uiso   1.00
C234   C     0.02745   0.72348   0.07125   0.00000  Uiso   1.00
C235   C     0.99044   0.72209   0.94113   0.00000  Uiso   1.00
C236   C     0.46191   0.95865   0.03696   0.00000  Uiso   1.00
C237   C     0.54217   0.07668   0.17310   0.00000  Uiso   1.00
C238   C     0.51259   0.11252   0.16483   0.00000  Uiso   1.00
C239   C     0.47858   0.11293   0.01793   0.00000  Uiso   1.00
C240   C     0.47443   0.07731   0.88149   0.00000  Uiso   1.00
C241   C     0.50421   0.04092   0.88875   0.00000  Uiso   1.00
C242   C     0.49221   0.18217   0.32363   0.00000  Uiso   1.00
N243   N     0.51706   0.14689   0.31369   0.00000  Uiso   1.00
C244   C     0.47590   0.25583   0.46746   0.00000  Uiso   1.00
C245   C     0.52556   0.20729   0.65930   0.00000  Uiso   1.00
C246   C     0.49833   0.21528   0.48695   0.00000  Uiso   1.00
O247   O     0.92578   0.81900   0.13497   0.00000  Uiso   1.00
O248   O     0.91650   0.75253   0.84995   0.00000  Uiso   1.00
C249   C     0.04016   0.95846   0.28308   0.00000  Uiso   1.00
C250   C     0.92484   0.04717   0.42022   0.00000  Uiso   1.00
C251   C     0.88853   0.01807   0.41871   0.00000  Uiso   1.00
C252   C     0.88711   0.98329   0.27566   0.00000  Uiso   1.00
C253   C     0.92227   0.97765   0.13817   0.00000  Uiso   1.00
C254   C     0.95933   0.00666   0.14004   0.00000  Uiso   1.00
C255   C     0.82201   0.99592   0.59595   0.00000  Uiso   1.00
N256   N     0.85478   0.02353   0.57034   0.00000  Uiso   1.00
C257   C     0.75637   0.96898   0.77985   0.00000  Uiso   1.00
C258   C     0.78820   0.03951   0.88952   0.00000  Uiso   1.00
C259   C     0.78851   0.00231   0.75703   0.00000  Uiso   1.00
O260   O     0.16543   0.45397   0.31812   0.00000  Uiso   1.00
O261   O     0.22937   0.44765   0.00778   0.00000  Uiso   1.00
C262   C     0.54174   0.46135   0.78913   0.00000  Uiso   1.00
C263   C     0.42229   0.54293   0.92287   0.00000  Uiso   1.00
C264   C     0.38609   0.51372   0.91015   0.00000  Uiso   1.00
C265   C     0.38602   0.48024   0.76057   0.00000  Uiso   1.00
C266   C     0.42205   0.47596   0.62733   0.00000  Uiso   1.00
C267   C     0.45891   0.50500   0.63951   0.00000  Uiso   1.00
C268   C     0.31562   0.49232   0.05067   0.00000  Uiso   1.00
N269   N     0.35120   0.51689   0.05825   0.00000  Uiso   1.00
C270   C     0.24035   0.47049   0.18784   0.00000  Uiso   1.00
C271   C     0.28842   0.52038   0.38259   0.00000  Uiso   1.00
C272   C     0.28109   0.49415   0.20941   0.00000  Uiso   1.00
C273   C     0.91796   0.84145   0.96199   0.00000  Uiso   1.00
C274   C     0.92183   0.74314   0.65166   0.00000  Uiso   1.00
C275   C     0.16775   0.40696   0.29037   0.00000  Uiso   1.00
C276   C     0.26165   0.41582   0.94212   0.00000  Uiso   1.00
C277   C     0.87396   0.84275   0.94680   0.00000  Uiso   1.00
C278   C     0.88066   0.74002   0.58063   0.00000  Uiso   1.00
C279   C     0.13571   0.39322   0.12353   0.00000  Uiso   1.00
C280   C     0.23947   0.37098   0.90603   0.00000  Uiso   1.00
O281   O     0.86499   0.87068   0.79545   0.00000  Uiso   1.00
O282   O     0.87482   0.77592   0.46709   0.00000  Uiso   1.00
O283   O     0.14170   0.34810   0.07863   0.00000  Uiso   1.00
O284   O     0.20649   0.37541   0.75692   0.00000  Uiso   1.00
C285   C     0.87480   0.84848   0.61125   0.00000  Uiso   1.00
C286   C     0.84916   0.80498   0.58603   0.00000  Uiso   1.00
C287   C     0.13659   0.34525   0.86770   0.00000  Uiso   1.00
C288   C     0.18154   0.33607   0.76799   0.00000  Uiso   1.00
H289   H     0.94492   0.30251   0.05590   0.00000  Uiso   1.00
H290   H     0.93846   0.24312   0.32396   0.00000  Uiso   1.00
H291   H     0.95963   0.14273   0.72840   0.00000  Uiso   1.00
H292   H     0.94928   0.07879   0.97754   0.00000  Uiso   1.00
H293   H     0.06575   0.01078   0.71198   0.00000  Uiso   1.00
H294   H     0.26250   0.54571   0.67221   0.00000  Uiso   1.00
H295   H     0.32138   0.53898   0.40187   0.00000  Uiso   1.00
H296   H     0.95614   0.68344   0.68911   0.00000  Uiso   1.00
H297   H     0.93563   0.48360   0.54587   0.00000  Uiso   1.00
H298   H     0.07100   0.58318   0.77634   0.00000  Uiso   1.00
H299   H     0.95044   0.64137   0.50146   0.00000  Uiso   1.00
H300   H     0.94384   0.57421   0.26855   0.00000  Uiso   1.00
H301   H     0.43723   0.98758   0.04687   0.00000  Uiso   1.00
H302   H     0.56992   0.07620   0.29195   0.00000  Uiso   1.00
H303   H     0.45437   0.14228   0.00989   0.00000  Uiso   1.00
H304   H     0.44653   0.07796   0.76338   0.00000  Uiso   1.00
H305   H     0.46507   0.18799   0.20477   0.00000  Uiso   1.00
H306   H     0.92603   0.07584   0.53433   0.00000  Uiso   1.00
H307   H     0.81953   0.96597   0.48931   0.00000  Uiso   1.00
H308   H     0.51257   0.43704   0.80249   0.00000  Uiso   1.00
H309   H     0.42257   0.57044   0.04289   0.00000  Uiso   1.00
H310   H     0.35644   0.45642   0.74764   0.00000  Uiso   1.00
H311   H     0.42190   0.44864   0.50640   0.00000  Uiso   1.00
H312   H     0.31038   0.46835   0.91792   0.00000  Uiso   1.00
H313   H     0.93205   0.87675   0.97302   0.00000  Uiso   1.00
H314   H     0.93383   0.82289   0.82879   0.00000  Uiso   1.00
H315   H     0.94046   0.77141   0.57217   0.00000  Uiso   1.00
H316   H     0.94099   0.71043   0.63492   0.00000  Uiso   1.00
H317   H     0.20322   0.39715   0.24565   0.00000  Uiso   1.00
H318   H     0.15825   0.38947   0.43836   0.00000  Uiso   1.00
H319   H     0.27770   0.42787   0.79460   0.00000  Uiso   1.00
H320   H     0.28849   0.41196   0.06401   0.00000  Uiso   1.00
H321   H     0.86046   0.80807   0.90980   0.00000  Uiso   1.00
H322   H     0.85911   0.85518   0.09626   0.00000  Uiso   1.00
H323   H     0.87702   0.70860   0.48392   0.00000  Uiso   1.00
H324   H     0.85611   0.73910   0.71325   0.00000  Uiso   1.00
H325   H     0.09991   0.39902   0.17657   0.00000  Uiso   1.00
H326   H     0.14242   0.41400   0.98131   0.00000  Uiso   1.00
H327   H     0.26557   0.34580   0.85304   0.00000  Uiso   1.00
H328   H     0.22361   0.35877   0.05369   0.00000  Uiso   1.00
H329   H     0.86633   0.87155   0.47866   0.00000  Uiso   1.00
H330   H     0.91196   0.84022   0.60554   0.00000  Uiso   1.00
H331   H     0.81595   0.81181   0.50700   0.00000  Uiso   1.00
H332   H     0.84281   0.78919   0.74131   0.00000  Uiso   1.00
H333   H     0.11246   0.31699   0.82968   0.00000  Uiso   1.00
H334   H     0.12265   0.37811   0.80717   0.00000  Uiso   1.00
H335   H     0.17595   0.32247   0.60787   0.00000  Uiso   1.00
H336   H     0.20047   0.31028   0.86217   0.00000  Uiso   1.00
C337   C     0.03863   0.54435   0.53381   0.00000  Uiso   1.00
C338   C     0.95768   0.41867   0.66244   0.00000  Uiso   1.00
C339   C     0.98889   0.38408   0.65203   0.00000  Uiso   1.00
C340   C     0.02395   0.38674   0.51099   0.00000  Uiso   1.00
C341   C     0.02753   0.42364   0.38262   0.00000  Uiso   1.00
C342   C     0.99623   0.45870   0.39082   0.00000  Uiso   1.00
C343   C     0.01411   0.31522   0.79732   0.00000  Uiso   1.00
N344   N     0.98495   0.34719   0.78924   0.00000  Uiso   1.00
C345   C     0.04332   0.24513   0.95959   0.00000  Uiso   1.00
C346   C     0.97255   0.27652   0.07125   0.00000  Uiso   1.00
C347   C     0.00956   0.27791   0.94113   0.00000  Uiso   1.00
C348   C     0.53809   0.04135   0.03696   0.00000  Uiso   1.00
C349   C     0.45783   0.92332   0.17310   0.00000  Uiso   1.00
C350   C     0.48741   0.88748   0.16483   0.00000  Uiso   1.00
C351   C     0.52142   0.88707   0.01793   0.00000  Uiso   1.00
C352   C     0.52557   0.92269   0.88149   0.00000  Uiso   1.00
C353   C     0.49579   0.95908   0.88875   0.00000  Uiso   1.00
C354   C     0.50779   0.81783   0.32363   0.00000  Uiso   1.00
N355   N     0.48294   0.85311   0.31369   0.00000  Uiso   1.00
C356   C     0.52410   0.74417   0.46746   0.00000  Uiso   1.00
C357   C     0.47444   0.79271   0.65930   0.00000  Uiso   1.00
C358   C     0.50167   0.78472   0.48695   0.00000  Uiso   1.00
O359   O     0.07422   0.18100   0.13497   0.00000  Uiso   1.00
O360   O     0.08350   0.24747   0.84995   0.00000  Uiso   1.00
C361   C     0.95984   0.04154   0.28308   0.00000  Uiso   1.00
C362   C     0.07516   0.95283   0.42022   0.00000  Uiso   1.00
C363   C     0.11147   0.98193   0.41871   0.00000  Uiso   1.00
C364   C     0.11289   0.01671   0.27566   0.00000  Uiso   1.00
C365   C     0.07773   0.02235   0.13817   0.00000  Uiso   1.00
C366   C     0.04067   0.99334   0.14004   0.00000  Uiso   1.00
C367   C     0.17799   0.00408   0.59595   0.00000  Uiso   1.00
N368   N     0.14522   0.97647   0.57034   0.00000  Uiso   1.00
C369   C     0.24363   0.03102   0.77985   0.00000  Uiso   1.00
C370   C     0.21180   0.96049   0.88952   0.00000  Uiso   1.00
C371   C     0.21149   0.99769   0.75703   0.00000  Uiso   1.00
O372   O     0.83457   0.54603   0.31812   0.00000  Uiso   1.00
O373   O     0.77063   0.55235   0.00778   0.00000  Uiso   1.00
C374   C     0.45826   0.53865   0.78913   0.00000  Uiso   1.00
C375   C     0.57771   0.45707   0.92287   0.00000  Uiso   1.00
C376   C     0.61391   0.48628   0.91015   0.00000  Uiso   1.00
C377   C     0.61398   0.51976   0.76057   0.00000  Uiso   1.00
C378   C     0.57795   0.52404   0.62733   0.00000  Uiso   1.00
C379   C     0.54109   0.49500   0.63951   0.00000  Uiso   1.00
C380   C     0.68438   0.50768   0.05067   0.00000  Uiso   1.00
N381   N     0.64880   0.48311   0.05825   0.00000  Uiso   1.00
C382   C     0.75965   0.52951   0.18784   0.00000  Uiso   1.00
C383   C     0.71158   0.47962   0.38259   0.00000  Uiso   1.00
C384   C     0.71891   0.50585   0.20941   0.00000  Uiso   1.00
C385   C     0.08204   0.15855   0.96199   0.00000  Uiso   1.00
C386   C     0.07817   0.25686   0.65166   0.00000  Uiso   1.00
C387   C     0.83225   0.59304   0.29037   0.00000  Uiso   1.00
C388   C     0.73835   0.58418   0.94212   0.00000  Uiso   1.00
C389   C     0.12604   0.15725   0.94680   0.00000  Uiso   1.00
C390   C     0.11934   0.25998   0.58063   0.00000  Uiso   1.00
C391   C     0.86429   0.60678   0.12353   0.00000  Uiso   1.00
C392   C     0.76053   0.62902   0.90603   0.00000  Uiso   1.00
O393   O     0.13501   0.12932   0.79545   0.00000  Uiso   1.00
O394   O     0.12518   0.22408   0.46709   0.00000  Uiso   1.00
O395   O     0.85830   0.65190   0.07863   0.00000  Uiso   1.00
O396   O     0.79351   0.62459   0.75692   0.00000  Uiso   1.00
C397   C     0.12520   0.15152   0.61125   0.00000  Uiso   1.00
C398   C     0.15084   0.19502   0.58603   0.00000  Uiso   1.00
C399   C     0.86341   0.65475   0.86770   0.00000  Uiso   1.00
C400   C     0.81846   0.66393   0.76799   0.00000  Uiso   1.00
H401   H     0.05508   0.69749   0.05590   0.00000  Uiso   1.00
H402   H     0.06154   0.75688   0.32396   0.00000  Uiso   1.00
H403   H     0.04037   0.85727   0.72840   0.00000  Uiso   1.00
H404   H     0.05072   0.92121   0.97754   0.00000  Uiso   1.00
H405   H     0.93425   0.98922   0.71198   0.00000  Uiso   1.00
H406   H     0.73750   0.45429   0.67221   0.00000  Uiso   1.00
H407   H     0.67862   0.46102   0.40187   0.00000  Uiso   1.00
H408   H     0.04386   0.31656   0.68911   0.00000  Uiso   1.00
H409   H     0.06437   0.51640   0.54587   0.00000  Uiso   1.00
H410   H     0.92900   0.41682   0.77634   0.00000  Uiso   1.00
H411   H     0.04956   0.35863   0.50146   0.00000  Uiso   1.00
H412   H     0.05616   0.42579   0.26855   0.00000  Uiso   1.00
H413   H     0.56277   0.01242   0.04687   0.00000  Uiso   1.00
H414   H     0.43008   0.92380   0.29195   0.00000  Uiso   1.00
H415   H     0.54563   0.85772   0.00989   0.00000  Uiso   1.00
H416   H     0.55347   0.92204   0.76338   0.00000  Uiso   1.00
H417   H     0.53493   0.81201   0.20477   0.00000  Uiso   1.00
H418   H     0.07397   0.92416   0.53433   0.00000  Uiso   1.00
H419   H     0.18047   0.03403   0.48931   0.00000  Uiso   1.00
H420   H     0.48743   0.56296   0.80249   0.00000  Uiso   1.00
H421   H     0.57743   0.42956   0.04289   0.00000  Uiso   1.00
H422   H     0.64356   0.54358   0.74764   0.00000  Uiso   1.00
H423   H     0.57810   0.55136   0.50640   0.00000  Uiso   1.00
H424   H     0.68962   0.53165   0.91792   0.00000  Uiso   1.00
H425   H     0.06795   0.12325   0.97302   0.00000  Uiso   1.00
H426   H     0.06617   0.17711   0.82879   0.00000  Uiso   1.00
H427   H     0.05954   0.22859   0.57217   0.00000  Uiso   1.00
H428   H     0.05901   0.28957   0.63492   0.00000  Uiso   1.00
H429   H     0.79678   0.60285   0.24565   0.00000  Uiso   1.00
H430   H     0.84175   0.61053   0.43836   0.00000  Uiso   1.00
H431   H     0.72230   0.57213   0.79460   0.00000  Uiso   1.00
H432   H     0.71151   0.58804   0.06401   0.00000  Uiso   1.00
H433   H     0.13954   0.19193   0.90980   0.00000  Uiso   1.00
H434   H     0.14089   0.14482   0.09626   0.00000  Uiso   1.00
H435   H     0.12298   0.29140   0.48392   0.00000  Uiso   1.00
H436   H     0.14389   0.26090   0.71325   0.00000  Uiso   1.00
H437   H     0.90009   0.60098   0.17657   0.00000  Uiso   1.00
H438   H     0.85758   0.58600   0.98131   0.00000  Uiso   1.00
H439   H     0.73443   0.65420   0.85304   0.00000  Uiso   1.00
H440   H     0.77639   0.64123   0.05369   0.00000  Uiso   1.00
H441   H     0.13367   0.12845   0.47866   0.00000  Uiso   1.00
H442   H     0.08804   0.15978   0.60554   0.00000  Uiso   1.00
H443   H     0.18405   0.18819   0.50700   0.00000  Uiso   1.00
H444   H     0.15719   0.21081   0.74131   0.00000  Uiso   1.00
H445   H     0.88754   0.68301   0.82968   0.00000  Uiso   1.00
H446   H     0.87735   0.62189   0.80717   0.00000  Uiso   1.00
H447   H     0.82405   0.67753   0.60787   0.00000  Uiso   1.00
H448   H     0.79953   0.68972   0.86217   0.00000  Uiso   1.00
C449   C     0.50000   0.50000   0.50000   0.00000  Uiso   1.00
C450   C     0.00000   0.00000   0.00000   0.00000  Uiso   1.00
C451   C     0.50000   0.00000   0.74787   0.00000  Uiso   1.00
C452   C     0.00000   0.50000   0.25213   0.00000  Uiso   1.00
loop_
_geom_bond_atom_site_label_1
_geom_bond_atom_site_label_2
_geom_bond_distance
_geom_bond_site_symmetry_2
_ccdc_geom_bond_type
C1     H73     1.140   .     S
C1     C114    1.397   .     S
C1     C118    1.407   .     D
C2     C3      1.396   .     D
C2     H74     1.140   .     S
C2     C113    1.397   .     S
C3     N8      1.430   .     S
C3     C4      1.402   1_545 S
C4     C5      1.394   .     D
C4     H75     1.140   .     S
C4     C3      1.402   1_565 S
C5     H76     1.140   .     S
C5     C6      1.408   1_565 S
C6     C451    1.540   .     S
C6     C113    1.407   .     D
C6     C5      1.408   1_545 S
C7     C11     1.469   .     S
C7     H72     1.140   .     S
C7     N8      1.296   1_565 D
N8     C7      1.296   1_545 D
C9     C11     1.414   .     D
C9     O24     1.404   .     S
C9     C370    1.411   1_554 S
C10    H177    1.140   .     S
C10    C369    1.392   .     D
C10    C11     1.400   1_546 S
C11    C10     1.400   1_564 S
C12    H77     1.140   .     S
C12    C125    1.390   .     D
C12    C129    1.406   1_556 S
C13    C14     1.392   .     S
C13    H78     1.140   .     S
C13    C124    1.390   .     D
C14    C15     1.403   .     D
C14    N19     1.426   .     S
C15    H79     1.140   .     S
C15    C16     1.398   1_556 S
C16    C17     1.408   .     D
C16    H80     1.140   .     S
C16    C15     1.398   1_554 S
C17    C124    1.406   1_554 S
C17    C452    1.540   1_655 S
C18    N19     1.293   .     D
C18    C22     1.472   .     S
C18    H81     1.140   .     S
C20    C22     1.393   .     D
C20    C383    1.391   .     S
C20    H406    1.140   .     S
C21    C22     1.415   .     S
C21    O372    1.403   .     S
C21    C382    1.415   .     D
O23    C370    1.398   .     S
O23    C49     1.341   1_556 S
O24    C50     1.342   .     S
C25    H293    1.140   .     S
C25    C138    1.392   .     S
C25    C142    1.405   .     D
C26    C27     1.393   .     D
C26    H82     1.140   .     S
C26    C137    1.392   .     S
C27    N32     1.428   .     S
C27    C28     1.403   1_655 S
C28    C29     1.397   .     D
C28    H403    1.140   .     S
C28    C27     1.403   1_455 S
C29    H404    1.140   .     S
C29    C30     1.409   1_455 S
C30    C137    1.405   .     D
C30    C29     1.409   1_655 S
C30    C450    1.539   1_666 S
C31    H83     1.140   .     S
C31    N32     1.294   1_455 D
C31    C35     1.470   1_455 S
N32    C31     1.294   1_655 D
C33    C234    1.392   .     D
C33    H402    1.140   .     S
C33    C35     1.394   1_455 S
C34    C35     1.413   .     D
C34    O247    1.398   .     S
C34    C233    1.411   1_554 S
C35    C31     1.470   1_655 S
C35    C33     1.394   1_655 S
O36    C51     1.421   .     S
O36    C245    1.403   .     S
O37    C46     1.405   .     S
O37    C52     1.424   1_556 S
C38    H84     1.140   .     S
C38    C151    1.395   .     D
C38    C155    1.407   .     S
C39    C40     1.395   .     S
C39    C150    1.395   .     D
C39    H85     1.140   1_554 S
C40    C41     1.403   .     D
C40    N45     1.430   1_554 S
C41    C42     1.395   .     S
C41    H86     1.140   .     S
C42    C43     1.407   .     D
C42    H87     1.140   .     S
C43    C449    1.541   .     S
C43    C150    1.407   .     S
C44    N45     1.295   .     D
C44    C48     1.469   .     S
C44    H88     1.140   1_556 S
N45    C40     1.430   1_556 S
C46    C48     1.417   .     D
C46    C245    1.415   .     S
C47    C48     1.399   .     S
C47    H71     1.140   .     S
C47    C244    1.391   .     D
C49    C53     1.321   .     S
C49    H89     1.140   .     S
C49    H90     1.140   .     S
C49    O23     1.341   1_554 S
C50    C54     1.321   .     S
C50    H91     1.140   .     S
C50    H92     1.140   .     S
C51    C55     1.513   .     S
C51    H93     1.140   .     S
C51    H94     1.140   .     S
C52    C56     1.516   .     S
C52    H95     1.140   .     S
C52    O37     1.424   1_554 S
C52    H96     1.140   1_554 S
C53    O57     1.326   .     S
C53    H97     1.140   .     S
C53    H98     1.140   1_554 S
C54    O58     1.320   .     S
C54    H99     1.140   .     S
C54    H100    1.140   .     S
C55    O59     1.394   .     S
C55    H101    1.140   .     S
C55    H102    1.140   1_556 S
C56    O60     1.397   .     S
C56    H103    1.140   .     S
C56    H104    1.140   1_554 S
O57    C61     1.411   .     S
O58    C62     1.399   .     S
O59    C63     1.396   1_556 S
O60    C64     1.396   .     S
C61    C62     1.520   .     S
C61    H105    1.140   .     S
C61    H106    1.140   .     S
C62    H107    1.140   .     S
C62    H108    1.140   .     S
C63    C64     1.521   .     S
C63    H109    1.140   .     S
C63    H110    1.140   .     S
C63    O59     1.396   1_554 S
C64    H111    1.140   .     S
C64    H112    1.140   .     S
H65    C122    1.140   .     S
H66    C257    1.140   .     S
H67    C252    1.140   .     S
H68    C253    1.140   .     S
H69    C361    1.140   .     S
H70    C244    1.140   .     S
H85    C39     1.140   1_556 S
H88    C44     1.140   1_554 S
H96    C52     1.140   1_556 S
H98    C53     1.140   1_556 S
H102   C55     1.140   1_554 S
H104   C56     1.140   1_556 S
C113   H185    1.140   .     S
C114   C115    1.396   .     D
C114   H186    1.140   .     S
C115   N120    1.430   .     S
C115   C116    1.402   1_565 S
C116   C117    1.394   .     D
C116   H187    1.140   .     S
C116   C115    1.402   1_545 S
C117   H188    1.140   .     S
C117   C118    1.408   1_545 S
C118   C117    1.408   1_565 S
C118   C451    1.540   1_565 S
C119   C123    1.469   .     S
C119   H184    1.140   .     S
C119   N120    1.296   1_545 D
N120   C119    1.296   1_565 D
C121   C123    1.414   .     D
C121   O136    1.404   .     S
C121   C258    1.411   1_554 S
C122   C257    1.392   .     D
C122   C123    1.400   1_566 S
C123   C122    1.400   1_544 S
C124   H189    1.140   .     S
C124   C17     1.406   1_556 S
C125   C126    1.392   .     S
C125   H190    1.140   .     S
C126   C127    1.403   .     D
C126   N131    1.426   .     S
C127   H191    1.140   .     S
C127   C128    1.398   1_556 S
C128   C129    1.408   .     D
C128   H192    1.140   .     S
C128   C127    1.398   1_554 S
C129   C452    1.540   .     S
C129   C12     1.406   1_554 S
C130   N131    1.293   .     D
C130   C134    1.472   .     S
C130   H193    1.140   .     S
C132   C134    1.393   .     D
C132   C271    1.391   .     S
C132   H294    1.140   .     S
C133   C134    1.415   .     S
C133   O260    1.403   .     S
C133   C270    1.415   .     D
O135   C258    1.398   .     S
O135   C161    1.341   1_556 S
O136   C162    1.342   .     S
C137   H405    1.140   .     S
C138   C139    1.393   .     D
C138   H194    1.140   .     S
C139   N144    1.428   .     S
C139   C140    1.403   1_455 S
C140   C141    1.397   .     D
C140   H291    1.140   .     S
C140   C139    1.403   1_655 S
C141   H292    1.140   .     S
C141   C142    1.409   1_655 S
C142   C141    1.409   1_455 S
C142   C450    1.539   1_556 S
C143   H195    1.140   .     S
C143   N144    1.294   1_655 D
C143   C147    1.470   1_655 S
N144   C143    1.294   1_455 D
C145   C346    1.392   .     D
C145   H290    1.140   .     S
C145   C147    1.394   1_655 S
C146   C147    1.413   .     D
C146   O359    1.398   .     S
C146   C345    1.411   1_554 S
C147   C143    1.470   1_455 S
C147   C145    1.394   1_455 S
O148   C163    1.421   .     S
O148   C357    1.403   .     S
O149   C158    1.405   .     S
O149   C164    1.424   1_556 S
C150   H196    1.140   .     S
C151   C152    1.395   .     S
C151   H197    1.140   1_554 S
C152   C153    1.403   .     D
C152   N157    1.430   1_554 S
C153   C154    1.395   .     S
C153   H198    1.140   .     S
C154   C155    1.407   .     D
C154   H199    1.140   .     S
C155   C449    1.541   .     S
C156   N157    1.295   .     D
C156   C160    1.469   .     S
C156   H200    1.140   1_556 S
N157   C152    1.430   1_556 S
C158   C160    1.417   .     D
C158   C357    1.415   .     S
C159   C160    1.399   .     S
C159   H183    1.140   .     S
C159   C356    1.391   .     D
C161   C165    1.321   .     S
C161   H201    1.140   .     S
C161   H202    1.140   .     S
C161   O135    1.341   1_554 S
C162   C166    1.321   .     S
C162   H203    1.140   .     S
C162   H204    1.140   .     S
C163   C167    1.513   .     S
C163   H205    1.140   .     S
C163   H206    1.140   .     S
C164   C168    1.516   .     S
C164   H207    1.140   .     S
C164   O149    1.424   1_554 S
C164   H208    1.140   1_554 S
C165   O169    1.326   .     S
C165   H209    1.140   .     S
C165   H210    1.140   1_554 S
C166   O170    1.320   .     S
C166   H211    1.140   .     S
C166   H212    1.140   .     S
C167   O171    1.394   .     S
C167   H213    1.140   .     S
C167   H214    1.140   1_556 S
C168   O172    1.397   .     S
C168   H215    1.140   .     S
C168   H216    1.140   1_554 S
O169   C173    1.411   .     S
O170   C174    1.399   .     S
O171   C175    1.396   1_556 S
O172   C176    1.396   .     S
C173   C174    1.520   .     S
C173   H217    1.140   .     S
C173   H218    1.140   .     S
C174   H219    1.140   .     S
C174   H220    1.140   .     S
C175   C176    1.521   .     S
C175   H221    1.140   .     S
C175   H222    1.140   .     S
C175   O171    1.396   1_554 S
C176   H223    1.140   .     S
C176   H224    1.140   .     S
H178   C369    1.140   .     S
H179   C364    1.140   .     S
H180   C365    1.140   .     S
H181   C249    1.140   .     S
H182   C356    1.140   .     S
H197   C151    1.140   1_556 S
H200   C156    1.140   1_554 S
H208   C164    1.140   1_556 S
H210   C165    1.140   1_556 S
H214   C167    1.140   1_554 S
H216   C168    1.140   1_556 S
C225   H297    1.140   .     S
C225   C338    1.397   .     S
C225   C342    1.407   .     D
C226   C227    1.396   .     D
C226   H298    1.140   .     S
C226   C337    1.397   .     S
C227   N232    1.430   .     S
C227   C228    1.402   1_455 S
C228   C229    1.394   .     D
C228   H299    1.140   .     S
C228   C227    1.402   1_655 S
C229   H300    1.140   .     S
C229   C230    1.408   1_655 S
C230   C452    1.540   .     S
C230   C337    1.407   .     D
C230   C229    1.408   1_455 S
C231   C235    1.469   .     S
C231   H296    1.140   .     S
C231   N232    1.296   1_655 D
N232   C231    1.296   1_455 D
C233   C235    1.414   .     D
C233   O248    1.404   .     S
C233   C34     1.411   1_556 S
C234   H401    1.140   .     S
C234   C235    1.400   1_454 S
C235   C234    1.400   1_656 S
C236   H301    1.140   .     S
C236   C349    1.390   .     S
C236   C353    1.406   1_554 D
C237   C238    1.392   .     D
C237   H302    1.140   .     S
C237   C348    1.390   .     S
C238   C239    1.403   .     S
C238   N243    1.426   .     S
C239   H303    1.140   .     S
C239   C240    1.398   1_554 D
C240   C241    1.408   .     S
C240   H304    1.140   .     S
C240   C239    1.398   1_556 D
C241   C451    1.540   .     S
C241   C348    1.406   1_556 D
C242   N243    1.293   .     D
C242   C246    1.472   .     S
C242   H305    1.140   .     S
C244   C246    1.393   .     S
C245   C246    1.415   .     D
O247   C273    1.341   1_554 S
O248   C274    1.342   .     S
C249   C362    1.392   .     S
C249   C366    1.405   .     D
C250   C251    1.393   .     D
C250   H306    1.140   .     S
C250   C361    1.392   .     S
C251   N256    1.428   .     S
C251   C252    1.403   1_545 S
C252   C253    1.397   .     D
C252   C251    1.403   1_565 S
C253   C254    1.409   1_565 S
C254   C361    1.405   .     D
C254   C253    1.409   1_545 S
C254   C450    1.539   1_655 S
C255   H307    1.140   .     S
C255   N256    1.294   1_565 D
C255   C259    1.470   1_565 S
N256   C255    1.294   1_545 D
C257   C259    1.394   1_565 S
C258   C259    1.413   .     D
C258   C121    1.411   1_556 S
C259   C255    1.470   1_545 S
C259   C257    1.394   1_545 S
O260   C275    1.421   .     S
O261   C270    1.405   .     S
O261   C276    1.424   1_554 S
C262   H308    1.140   .     S
C262   C375    1.395   .     D
C262   C379    1.407   .     S
C263   C264    1.395   .     D
C263   C374    1.395   .     S
C263   H309    1.140   1_556 S
C264   C265    1.403   .     S
C264   N269    1.430   1_556 S
C265   C266    1.395   .     D
C265   H310    1.140   .     S
C266   C267    1.407   .     S
C266   H311    1.140   .     S
C267   C449    1.541   .     S
C267   C374    1.407   .     D
C268   N269    1.295   .     D
C268   C272    1.469   .     S
C268   H312    1.140   1_554 S
N269   C264    1.430   1_554 S
C270   C272    1.417   .     S
C271   C272    1.399   .     D
C271   H295    1.140   .     S
C273   C277    1.321   .     S
C273   H313    1.140   .     S
C273   H314    1.140   .     S
C273   O247    1.341   1_556 S
C274   C278    1.321   .     S
C274   H315    1.140   .     S
C274   H316    1.140   .     S
C275   C279    1.513   .     S
C275   H317    1.140   .     S
C275   H318    1.140   .     S
C276   C280    1.516   .     S
C276   H319    1.140   .     S
C276   O261    1.424   1_556 S
C276   H320    1.140   1_556 S
C277   O281    1.326   .     S
C277   H321    1.140   .     S
C277   H322    1.140   1_556 S
C278   O282    1.320   .     S
C278   H323    1.140   .     S
C278   H324    1.140   .     S
C279   O283    1.394   .     S
C279   H325    1.140   .     S
C279   H326    1.140   1_554 S
C280   O284    1.397   .     S
C280   H327    1.140   .     S
C280   H328    1.140   1_556 S
O281   C285    1.411   .     S
O282   C286    1.399   .     S
O283   C287    1.396   1_554 S
O284   C288    1.396   .     S
C285   C286    1.520   .     S
C285   H329    1.140   .     S
C285   H330    1.140   .     S
C286   H331    1.140   .     S
C286   H332    1.140   .     S
C287   C288    1.521   .     S
C287   H333    1.140   .     S
C287   H334    1.140   .     S
C287   O283    1.396   1_556 S
C288   H335    1.140   .     S
C288   H336    1.140   .     S
H289   C346    1.140   .     S
H309   C263    1.140   1_554 S
H312   C268    1.140   1_556 S
H320   C276    1.140   1_554 S
H322   C277    1.140   1_554 S
H326   C279    1.140   1_556 S
H328   C280    1.140   1_554 S
C337   H409    1.140   .     S
C338   C339    1.396   .     D
C338   H410    1.140   .     S
C339   N344    1.430   .     S
C339   C340    1.402   1_655 S
C340   C341    1.394   .     D
C340   H411    1.140   .     S
C340   C339    1.402   1_455 S
C341   H412    1.140   .     S
C341   C342    1.408   1_455 S
C342   C341    1.408   1_655 S
C342   C452    1.540   1_655 S
C343   C347    1.469   .     S
C343   H408    1.140   .     S
C343   N344    1.296   1_455 D
N344   C343    1.296   1_655 D
C345   C347    1.414   .     D
C345   O360    1.404   .     S
C345   C146    1.411   1_556 S
C346   C347    1.400   1_654 S
C347   C346    1.400   1_456 S
C348   H413    1.140   .     S
C348   C241    1.406   1_554 D
C349   C350    1.392   .     D
C349   H414    1.140   .     S
C350   C351    1.403   .     S
C350   N355    1.426   .     S
C351   H415    1.140   .     S
C351   C352    1.398   1_554 D
C352   C353    1.408   .     S
C352   H416    1.140   .     S
C352   C351    1.398   1_556 D
C353   C236    1.406   1_556 D
C353   C451    1.540   1_565 S
C354   N355    1.293   .     D
C354   C358    1.472   .     S
C354   H417    1.140   .     S
C356   C358    1.393   .     S
C357   C358    1.415   .     D
O359   C385    1.341   1_554 S
O360   C386    1.342   .     S
C362   C363    1.393   .     D
C362   H418    1.140   .     S
C363   N368    1.428   .     S
C363   C364    1.403   1_565 S
C364   C365    1.397   .     D
C364   C363    1.403   1_545 S
C365   C366    1.409   1_545 S
C366   C365    1.409   1_565 S
C366   C450    1.539   1_565 S
C367   H419    1.140   .     S
C367   N368    1.294   1_545 D
C367   C371    1.470   1_545 S
N368   C367    1.294   1_565 D
C369   C371    1.394   1_545 S
C370   C371    1.413   .     D
C370   C9      1.411   1_556 S
C371   C367    1.470   1_565 S
C371   C369    1.394   1_565 S
O372   C387    1.421   .     S
O373   C382    1.405   .     S
O373   C388    1.424   1_554 S
C374   H420    1.140   .     S
C375   C376    1.395   .     S
C375   H421    1.140   1_556 S
C376   C377    1.403   .     D
C376   N381    1.430   1_556 S
C377   C378    1.395   .     S
C377   H422    1.140   .     S
C378   C379    1.407   .     D
C378   H423    1.140   .     S
C379   C449    1.541   .     S
C380   N381    1.295   .     D
C380   C384    1.469   .     S
C380   H424    1.140   1_554 S
N381   C376    1.430   1_554 S
C382   C384    1.417   .     S
C383   C384    1.399   .     D
C383   H407    1.140   .     S
C385   C389    1.321   .     S
C385   H425    1.140   .     S
C385   H426    1.140   .     S
C385   O359    1.341   1_556 S
C386   C390    1.321   .     S
C386   H427    1.140   .     S
C386   H428    1.140   .     S
C387   C391    1.513   .     S
C387   H429    1.140   .     S
C387   H430    1.140   .     S
C388   C392    1.516   .     S
C388   H431    1.140   .     S
C388   O373    1.424   1_556 S
C388   H432    1.140   1_556 S
C389   O393    1.326   .     S
C389   H433    1.140   .     S
C389   H434    1.140   1_556 S
C390   O394    1.320   .     S
C390   H435    1.140   .     S
C390   H436    1.140   .     S
C391   O395    1.394   .     S
C391   H437    1.140   .     S
C391   H438    1.140   1_554 S
C392   O396    1.397   .     S
C392   H439    1.140   .     S
C392   H440    1.140   1_556 S
O393   C397    1.411   .     S
O394   C398    1.399   .     S
O395   C399    1.396   1_554 S
O396   C400    1.396   .     S
C397   C398    1.520   .     S
C397   H441    1.140   .     S
C397   H442    1.140   .     S
C398   H443    1.140   .     S
C398   H444    1.140   .     S
C399   C400    1.521   .     S
C399   H445    1.140   .     S
C399   H446    1.140   .     S
C399   O395    1.396   1_556 S
C400   H447    1.140   .     S
C400   H448    1.140   .     S
H421   C375    1.140   1_554 S
H424   C380    1.140   1_556 S
H432   C388    1.140   1_554 S
H434   C389    1.140   1_554 S
H438   C391    1.140   1_556 S
H440   C392    1.140   1_554 S
C450   C30     1.539   1_444 S
C450   C142    1.539   1_554 S
C450   C254    1.539   1_455 S
C450   C366    1.539   1_545 S
C451   C118    1.540   1_545 S
C451   C353    1.540   1_545 S
C452   C17     1.540   1_455 S
C452   C342    1.540   1_455 S
