data_72
_audit_creation_date              2023-09-08
_audit_creation_method            'Materials Studio'
_symmetry_space_group_name_H-M    'P1'
_symmetry_Int_Tables_number       1
_symmetry_cell_setting            triclinic
loop_
_symmetry_equiv_pos_as_xyz
  x,y,z
_cell_length_a                    48.1440
_cell_length_b                    48.0750
_cell_length_c                    29.8460
_cell_angle_alpha                 90.0000
_cell_angle_beta                  90.2410
_cell_angle_gamma                 90.0000
loop_
_atom_site_label
_atom_site_type_symbol
_atom_site_fract_x
_atom_site_fract_y
_atom_site_fract_z
_atom_site_U_iso_or_equiv
_atom_site_adp_type
_atom_site_occupancy
C1     C     0.11619   0.10093   0.32788   0.00000  Uiso   1.00
C2     C     0.88381   0.60093   0.67212   0.00000  Uiso   1.00
C3     C     0.22513   0.52126   0.10392   0.00000  Uiso   1.00
C4     C     0.77487   0.02126   0.89608   0.00000  Uiso   1.00
C5     C     0.31192   0.84672   0.32253   0.00000  Uiso   1.00
C6     C     0.68808   0.34672   0.67747   0.00000  Uiso   1.00
C7     C     0.29122   0.86653   0.32940   0.00000  Uiso   1.00
C8     C     0.70878   0.36653   0.67060   0.00000  Uiso   1.00
C9     C     0.29805   0.89450   0.33715   0.00000  Uiso   1.00
C10    C     0.70195   0.39450   0.66285   0.00000  Uiso   1.00
C11    C     0.32614   0.90276   0.33689   0.00000  Uiso   1.00
C12    C     0.67386   0.40276   0.66311   0.00000  Uiso   1.00
C13    C     0.34753   0.88340   0.33027   0.00000  Uiso   1.00
C14    C     0.65247   0.38340   0.66973   0.00000  Uiso   1.00
C15    C     0.37822   0.64362   0.24953   0.00000  Uiso   1.00
C16    C     0.62178   0.14362   0.75047   0.00000  Uiso   1.00
C17    C     0.36218   0.62070   0.23648   0.00000  Uiso   1.00
C18    C     0.63782   0.12070   0.76352   0.00000  Uiso   1.00
C19    C     0.33430   0.62410   0.22371   0.00000  Uiso   1.00
C20    C     0.66570   0.12410   0.77629   0.00000  Uiso   1.00
C21    C     0.32265   0.65092   0.22451   0.00000  Uiso   1.00
C22    C     0.67735   0.15092   0.77549   0.00000  Uiso   1.00
C23    C     0.33869   0.67385   0.23745   0.00000  Uiso   1.00
C24    C     0.66131   0.17385   0.76255   0.00000  Uiso   1.00
C25    C     0.59350   0.85672   0.23880   0.00000  Uiso   1.00
C26    C     0.40650   0.35672   0.76120   0.00000  Uiso   1.00
C27    C     0.60965   0.87949   0.22567   0.00000  Uiso   1.00
C28    C     0.39035   0.37949   0.77433   0.00000  Uiso   1.00
C29    C     0.59811   0.90634   0.22404   0.00000  Uiso   1.00
C30    C     0.40189   0.40634   0.77596   0.00000  Uiso   1.00
C31    C     0.57020   0.90993   0.23617   0.00000  Uiso   1.00
C32    C     0.42980   0.40993   0.76383   0.00000  Uiso   1.00
C33    C     0.55405   0.88718   0.24942   0.00000  Uiso   1.00
C34    C     0.44595   0.38718   0.75058   0.00000  Uiso   1.00
C35    C     0.58293   0.64747   0.33237   0.00000  Uiso   1.00
C36    C     0.41707   0.14747   0.66763   0.00000  Uiso   1.00
C37    C     0.60401   0.62769   0.33850   0.00000  Uiso   1.00
C38    C     0.39599   0.12769   0.66150   0.00000  Uiso   1.00
C39    C     0.63210   0.63572   0.33771   0.00000  Uiso   1.00
C40    C     0.36790   0.13572   0.66229   0.00000  Uiso   1.00
C41    C     0.63865   0.66371   0.32962   0.00000  Uiso   1.00
C42    C     0.36135   0.16371   0.67038   0.00000  Uiso   1.00
C43    C     0.61764   0.68344   0.32356   0.00000  Uiso   1.00
C44    C     0.38236   0.18344   0.67644   0.00000  Uiso   1.00
C45    C     0.27542   0.91438   0.34746   0.00000  Uiso   1.00
C46    C     0.72458   0.41438   0.65254   0.00000  Uiso   1.00
C47    C     0.65487   0.61586   0.34735   0.00000  Uiso   1.00
C48    C     0.34513   0.11586   0.65265   0.00000  Uiso   1.00
C49    C     0.81466   0.42948   0.32714   0.00000  Uiso   1.00
C50    C     0.18534   0.92948   0.67286   0.00000  Uiso   1.00
C51    C     0.95326   0.25528   0.24480   0.00000  Uiso   1.00
C52    C     0.04674   0.75528   0.75520   0.00000  Uiso   1.00
C53    C     0.97785   0.27580   0.24499   0.00000  Uiso   1.00
C54    C     0.02215   0.77580   0.75501   0.00000  Uiso   1.00
C55    C     0.96536   0.26577   0.31612   0.00000  Uiso   1.00
C56    C     0.03464   0.76577   0.68388   0.00000  Uiso   1.00
C57    C     0.97940   0.24412   0.34630   0.00000  Uiso   1.00
C58    C     0.02060   0.74412   0.65370   0.00000  Uiso   1.00
C59    C     0.90488   0.24042   0.21282   0.00000  Uiso   1.00
C60    C     0.09512   0.74042   0.78718   0.00000  Uiso   1.00
C61    C     0.90674   0.21475   0.23581   0.00000  Uiso   1.00
C62    C     0.09326   0.71475   0.76419   0.00000  Uiso   1.00
C63    C     0.88567   0.19477   0.23193   0.00000  Uiso   1.00
C64    C     0.11433   0.69477   0.76807   0.00000  Uiso   1.00
C65    C     0.86215   0.19972   0.20509   0.00000  Uiso   1.00
C66    C     0.13785   0.69972   0.79491   0.00000  Uiso   1.00
C67    C     0.86030   0.22504   0.18186   0.00000  Uiso   1.00
C68    C     0.13970   0.72504   0.81814   0.00000  Uiso   1.00
C69    C     0.88129   0.24497   0.18560   0.00000  Uiso   1.00
C70    C     0.11871   0.74497   0.81440   0.00000  Uiso   1.00
C71    C     0.92692   0.26373   0.21563   0.00000  Uiso   1.00
C72    C     0.07308   0.76373   0.78437   0.00000  Uiso   1.00
C73    C     0.75857   0.07188   0.16244   0.00000  Uiso   1.00
C74    C     0.24143   0.57188   0.83756   0.00000  Uiso   1.00
N75    N     0.77867   0.09263   0.17541   0.00000  Uiso   1.00
N76    N     0.22133   0.59263   0.82459   0.00000  Uiso   1.00
C77    C     0.91239   0.28990   0.23488   0.00000  Uiso   1.00
C78    C     0.08761   0.78990   0.76512   0.00000  Uiso   1.00
C79    C     0.89609   0.28775   0.27399   0.00000  Uiso   1.00
C80    C     0.10391   0.78775   0.72601   0.00000  Uiso   1.00
C81    C     0.88074   0.31038   0.28989   0.00000  Uiso   1.00
C82    C     0.11926   0.81038   0.71011   0.00000  Uiso   1.00
C83    C     0.88110   0.33596   0.26723   0.00000  Uiso   1.00
C84    C     0.11890   0.83596   0.73277   0.00000  Uiso   1.00
C85    C     0.89754   0.33847   0.22872   0.00000  Uiso   1.00
C86    C     0.10246   0.83847   0.77128   0.00000  Uiso   1.00
C87    C     0.91280   0.31585   0.21264   0.00000  Uiso   1.00
C88    C     0.08720   0.81585   0.78736   0.00000  Uiso   1.00
C89    C     0.95103   0.28779   0.34504   0.00000  Uiso   1.00
C90    C     0.04897   0.78779   0.65496   0.00000  Uiso   1.00
N91    N     0.78958   0.42630   0.34241   0.00000  Uiso   1.00
N92    N     0.21042   0.92630   0.65759   0.00000  Uiso   1.00
C93    C     0.77184   0.44762   0.36060   0.00000  Uiso   1.00
C94    C     0.22816   0.94762   0.63940   0.00000  Uiso   1.00
C95    C     0.02648   0.29038   0.21431   0.00000  Uiso   1.00
C96    C     0.97352   0.79038   0.78569   0.00000  Uiso   1.00
C97    C     0.05032   0.28557   0.18811   0.00000  Uiso   1.00
C98    C     0.94968   0.78557   0.81189   0.00000  Uiso   1.00
C99    C     0.07151   0.30532   0.18510   0.00000  Uiso   1.00
C100   C     0.92849   0.80532   0.81490   0.00000  Uiso   1.00
C101   C     0.06956   0.33075   0.20792   0.00000  Uiso   1.00
C102   C     0.93044   0.83075   0.79208   0.00000  Uiso   1.00
C103   C     0.04577   0.33600   0.23368   0.00000  Uiso   1.00
C104   C     0.95423   0.83600   0.76632   0.00000  Uiso   1.00
C105   C     0.02454   0.31618   0.23691   0.00000  Uiso   1.00
C106   C     0.97546   0.81618   0.76309   0.00000  Uiso   1.00
C107   C     0.00426   0.26723   0.21644   0.00000  Uiso   1.00
C108   C     0.99574   0.76723   0.78356   0.00000  Uiso   1.00
C109   C     0.17438   0.45748   0.16466   0.00000  Uiso   1.00
C110   C     0.82562   0.95748   0.83534   0.00000  Uiso   1.00
N111   N     0.15432   0.43684   0.17798   0.00000  Uiso   1.00
N112   N     0.84568   0.93684   0.82202   0.00000  Uiso   1.00
C113   C     0.01851   0.24091   0.23587   0.00000  Uiso   1.00
C114   C     0.98149   0.74091   0.76413   0.00000  Uiso   1.00
C115   C     0.01822   0.21508   0.21323   0.00000  Uiso   1.00
C116   C     0.98178   0.71508   0.78677   0.00000  Uiso   1.00
C117   C     0.03331   0.19235   0.22949   0.00000  Uiso   1.00
C118   C     0.96669   0.69235   0.77051   0.00000  Uiso   1.00
C119   C     0.04949   0.19461   0.26854   0.00000  Uiso   1.00
C120   C     0.95051   0.69461   0.73146   0.00000  Uiso   1.00
C121   C     0.04971   0.22007   0.29160   0.00000  Uiso   1.00
C122   C     0.95029   0.72007   0.70840   0.00000  Uiso   1.00
C123   C     0.03451   0.24281   0.27554   0.00000  Uiso   1.00
C124   C     0.96549   0.74281   0.72446   0.00000  Uiso   1.00
N125   N     0.14123   0.10413   0.34367   0.00000  Uiso   1.00
N126   N     0.85877   0.60413   0.65633   0.00000  Uiso   1.00
C127   C     0.15913   0.08279   0.36168   0.00000  Uiso   1.00
C128   C     0.84087   0.58279   0.63832   0.00000  Uiso   1.00
O129   O     0.94535   0.25218   0.28950   0.00000  Uiso   1.00
O130   O     0.05465   0.75218   0.71050   0.00000  Uiso   1.00
O131   O     0.99628   0.26296   0.17140   0.00000  Uiso   1.00
O132   O     0.00372   0.76296   0.82860   0.00000  Uiso   1.00
O133   O     0.98564   0.27899   0.28983   0.00000  Uiso   1.00
O134   O     0.01436   0.77899   0.71017   0.00000  Uiso   1.00
O135   O     0.93504   0.26817   0.17081   0.00000  Uiso   1.00
O136   O     0.06496   0.76817   0.82919   0.00000  Uiso   1.00
C137   C     0.73358   0.07874   0.14026   0.00000  Uiso   1.00
C138   C     0.26642   0.57874   0.85974   0.00000  Uiso   1.00
C139   C     0.71630   0.05780   0.12335   0.00000  Uiso   1.00
C140   C     0.28370   0.55780   0.87665   0.00000  Uiso   1.00
C141   C     0.72361   0.02968   0.12803   0.00000  Uiso   1.00
C142   C     0.27639   0.52968   0.87197   0.00000  Uiso   1.00
C143   C     0.74798   0.02279   0.15149   0.00000  Uiso   1.00
C144   C     0.25202   0.52279   0.84851   0.00000  Uiso   1.00
C145   C     0.76534   0.04375   0.16832   0.00000  Uiso   1.00
C146   C     0.23466   0.54375   0.83168   0.00000  Uiso   1.00
C147   C     0.19931   0.45045   0.14279   0.00000  Uiso   1.00
C148   C     0.80069   0.95045   0.85721   0.00000  Uiso   1.00
C149   C     0.21652   0.47123   0.12546   0.00000  Uiso   1.00
C150   C     0.78348   0.97123   0.87454   0.00000  Uiso   1.00
C151   C     0.20921   0.49938   0.12942   0.00000  Uiso   1.00
C152   C     0.79079   0.99938   0.87058   0.00000  Uiso   1.00
C153   C     0.18491   0.50647   0.15259   0.00000  Uiso   1.00
C154   C     0.81509   0.00647   0.84741   0.00000  Uiso   1.00
C155   C     0.16762   0.48567   0.16985   0.00000  Uiso   1.00
C156   C     0.83238   0.98567   0.83015   0.00000  Uiso   1.00
C157   C     0.18320   0.09115   0.38451   0.00000  Uiso   1.00
C158   C     0.81680   0.59115   0.61549   0.00000  Uiso   1.00
C159   C     0.20013   0.07165   0.40615   0.00000  Uiso   1.00
C160   C     0.79987   0.57165   0.59385   0.00000  Uiso   1.00
C161   C     0.19341   0.04325   0.40502   0.00000  Uiso   1.00
C162   C     0.80659   0.54325   0.59498   0.00000  Uiso   1.00
C163   C     0.17010   0.03459   0.38027   0.00000  Uiso   1.00
C164   C     0.82990   0.53459   0.61973   0.00000  Uiso   1.00
C165   C     0.15308   0.05413   0.35867   0.00000  Uiso   1.00
C166   C     0.84692   0.55413   0.64133   0.00000  Uiso   1.00
C167   C     0.74788   0.43927   0.38341   0.00000  Uiso   1.00
C168   C     0.25212   0.93927   0.61659   0.00000  Uiso   1.00
C169   C     0.73108   0.45876   0.40510   0.00000  Uiso   1.00
C170   C     0.26892   0.95876   0.59490   0.00000  Uiso   1.00
C171   C     0.73783   0.48716   0.40402   0.00000  Uiso   1.00
C172   C     0.26217   0.98716   0.59598   0.00000  Uiso   1.00
C173   C     0.76102   0.49582   0.37932   0.00000  Uiso   1.00
C174   C     0.23898   0.99582   0.62068   0.00000  Uiso   1.00
C175   C     0.77791   0.47628   0.35768   0.00000  Uiso   1.00
C176   C     0.22209   0.97628   0.64232   0.00000  Uiso   1.00
C177   C     0.72243   0.50753   0.43328   0.00000  Uiso   1.00
C178   C     0.27757   0.00753   0.56672   0.00000  Uiso   1.00
C179   C     0.83960   0.17862   0.20107   0.00000  Uiso   1.00
C180   C     0.16040   0.67862   0.79893   0.00000  Uiso   1.00
C181   C     0.86394   0.35982   0.28295   0.00000  Uiso   1.00
C182   C     0.13606   0.85982   0.71705   0.00000  Uiso   1.00
C183   C     0.09233   0.35159   0.20458   0.00000  Uiso   1.00
C184   C     0.90767   0.85159   0.79542   0.00000  Uiso   1.00
C185   C     0.06664   0.17071   0.28431   0.00000  Uiso   1.00
C186   C     0.93336   0.67071   0.71569   0.00000  Uiso   1.00
C187   C     0.31806   0.59966   0.20853   0.00000  Uiso   1.00
C188   C     0.68194   0.09966   0.79147   0.00000  Uiso   1.00
C189   C     0.12170   0.34253   0.20270   0.00000  Uiso   1.00
C190   C     0.87830   0.84253   0.79730   0.00000  Uiso   1.00
C191   C     0.14266   0.36215   0.19658   0.00000  Uiso   1.00
C192   C     0.85734   0.86215   0.80342   0.00000  Uiso   1.00
C193   C     0.13630   0.39054   0.19256   0.00000  Uiso   1.00
C194   C     0.86370   0.89054   0.80744   0.00000  Uiso   1.00
C195   C     0.10845   0.39933   0.19555   0.00000  Uiso   1.00
C196   C     0.89155   0.89933   0.80445   0.00000  Uiso   1.00
C197   C     0.08682   0.38019   0.20149   0.00000  Uiso   1.00
C198   C     0.91318   0.88019   0.79851   0.00000  Uiso   1.00
C199   C     0.05624   0.14340   0.28227   0.00000  Uiso   1.00
C200   C     0.94376   0.64340   0.71773   0.00000  Uiso   1.00
C201   C     0.07254   0.12089   0.29628   0.00000  Uiso   1.00
C202   C     0.92746   0.62089   0.70372   0.00000  Uiso   1.00
C203   C     0.09962   0.12512   0.31251   0.00000  Uiso   1.00
C204   C     0.90038   0.62512   0.68749   0.00000  Uiso   1.00
C205   C     0.11010   0.15240   0.31456   0.00000  Uiso   1.00
C206   C     0.88990   0.65240   0.68544   0.00000  Uiso   1.00
C207   C     0.09377   0.17493   0.30067   0.00000  Uiso   1.00
C208   C     0.90623   0.67493   0.69933   0.00000  Uiso   1.00
C209   C     0.83673   0.35560   0.29857   0.00000  Uiso   1.00
C210   C     0.16327   0.85560   0.70143   0.00000  Uiso   1.00
C211   C     0.82046   0.37810   0.31261   0.00000  Uiso   1.00
C212   C     0.17954   0.87810   0.68739   0.00000  Uiso   1.00
C213   C     0.83110   0.40533   0.31144   0.00000  Uiso   1.00
C214   C     0.16890   0.90533   0.68856   0.00000  Uiso   1.00
C215   C     0.85824   0.40956   0.29584   0.00000  Uiso   1.00
C216   C     0.14176   0.90956   0.70416   0.00000  Uiso   1.00
C217   C     0.87446   0.38710   0.28170   0.00000  Uiso   1.00
C218   C     0.12554   0.88710   0.71830   0.00000  Uiso   1.00
C219   C     0.84581   0.15009   0.19756   0.00000  Uiso   1.00
C220   C     0.15419   0.65009   0.80244   0.00000  Uiso   1.00
C221   C     0.82456   0.13047   0.19181   0.00000  Uiso   1.00
C222   C     0.17544   0.63047   0.80819   0.00000  Uiso   1.00
C223   C     0.79664   0.13899   0.18958   0.00000  Uiso   1.00
C224   C     0.20336   0.63899   0.81042   0.00000  Uiso   1.00
C225   C     0.79041   0.16736   0.19402   0.00000  Uiso   1.00
C226   C     0.20959   0.66736   0.80598   0.00000  Uiso   1.00
C227   C     0.81160   0.18694   0.19970   0.00000  Uiso   1.00
C228   C     0.18840   0.68694   0.80030   0.00000  Uiso   1.00
C229   C     0.15910   0.41040   0.18334   0.00000  Uiso   1.00
C230   C     0.84090   0.91040   0.81666   0.00000  Uiso   1.00
C231   C     0.77383   0.11905   0.18065   0.00000  Uiso   1.00
C232   C     0.22617   0.61905   0.81935   0.00000  Uiso   1.00
C233   C     0.47758   0.75498   0.28178   0.00000  Uiso   1.00
C234   C     0.52242   0.25498   0.71822   0.00000  Uiso   1.00
C235   C     0.45390   0.77646   0.28172   0.00000  Uiso   1.00
C236   C     0.54610   0.27646   0.71828   0.00000  Uiso   1.00
C237   C     0.46584   0.76600   0.21067   0.00000  Uiso   1.00
C238   C     0.53416   0.26600   0.78933   0.00000  Uiso   1.00
C239   C     0.45138   0.74462   0.18052   0.00000  Uiso   1.00
C240   C     0.54862   0.24462   0.81948   0.00000  Uiso   1.00
C241   C     0.52518   0.73862   0.31501   0.00000  Uiso   1.00
C242   C     0.47482   0.23862   0.68499   0.00000  Uiso   1.00
C243   C     0.52210   0.71245   0.29383   0.00000  Uiso   1.00
C244   C     0.47790   0.21245   0.70617   0.00000  Uiso   1.00
C245   C     0.54281   0.69205   0.29737   0.00000  Uiso   1.00
C246   C     0.45719   0.19205   0.70263   0.00000  Uiso   1.00
C247   C     0.56728   0.69712   0.32182   0.00000  Uiso   1.00
C248   C     0.43272   0.19712   0.67818   0.00000  Uiso   1.00
C249   C     0.57046   0.72299   0.34299   0.00000  Uiso   1.00
C250   C     0.42954   0.22299   0.65701   0.00000  Uiso   1.00
C251   C     0.54984   0.74330   0.33966   0.00000  Uiso   1.00
C252   C     0.45016   0.24330   0.66034   0.00000  Uiso   1.00
C253   C     0.50341   0.76238   0.31200   0.00000  Uiso   1.00
C254   C     0.49659   0.26238   0.68800   0.00000  Uiso   1.00
C255   C     0.67025   0.56956   0.37015   0.00000  Uiso   1.00
C256   C     0.32975   0.06956   0.62985   0.00000  Uiso   1.00
N257   N     0.64992   0.58980   0.35601   0.00000  Uiso   1.00
N258   N     0.35008   0.08980   0.64399   0.00000  Uiso   1.00
C259   C     0.51787   0.78880   0.29399   0.00000  Uiso   1.00
C260   C     0.48213   0.28880   0.70601   0.00000  Uiso   1.00
C261   C     0.53578   0.78713   0.25682   0.00000  Uiso   1.00
C262   C     0.46422   0.28713   0.74318   0.00000  Uiso   1.00
C263   C     0.55084   0.81031   0.24246   0.00000  Uiso   1.00
C264   C     0.44916   0.31031   0.75754   0.00000  Uiso   1.00
C265   C     0.54835   0.83596   0.26460   0.00000  Uiso   1.00
C266   C     0.45165   0.33596   0.73540   0.00000  Uiso   1.00
C267   C     0.52978   0.83806   0.30064   0.00000  Uiso   1.00
C268   C     0.47022   0.33806   0.69936   0.00000  Uiso   1.00
C269   C     0.51477   0.81485   0.31516   0.00000  Uiso   1.00
C270   C     0.48523   0.31485   0.68484   0.00000  Uiso   1.00
C271   C     0.48053   0.78781   0.18181   0.00000  Uiso   1.00
C272   C     0.51947   0.28781   0.81819   0.00000  Uiso   1.00
N273   N     0.64011   0.92770   0.19581   0.00000  Uiso   1.00
N274   N     0.35989   0.42770   0.80419   0.00000  Uiso   1.00
C275   C     0.65795   0.94890   0.17759   0.00000  Uiso   1.00
C276   C     0.34205   0.44890   0.82241   0.00000  Uiso   1.00
C277   C     0.40614   0.79256   0.31409   0.00000  Uiso   1.00
C278   C     0.59386   0.29256   0.68591   0.00000  Uiso   1.00
C279   C     0.38135   0.78763   0.33794   0.00000  Uiso   1.00
C280   C     0.61865   0.28763   0.66206   0.00000  Uiso   1.00
C281   C     0.36062   0.80784   0.34096   0.00000  Uiso   1.00
C282   C     0.63938   0.30784   0.65904   0.00000  Uiso   1.00
C283   C     0.36387   0.83386   0.32041   0.00000  Uiso   1.00
C284   C     0.63613   0.33386   0.67959   0.00000  Uiso   1.00
C285   C     0.38846   0.83918   0.29675   0.00000  Uiso   1.00
C286   C     0.61154   0.33918   0.70325   0.00000  Uiso   1.00
C287   C     0.40925   0.81887   0.29342   0.00000  Uiso   1.00
C288   C     0.59075   0.31887   0.70658   0.00000  Uiso   1.00
C289   C     0.42808   0.76895   0.31153   0.00000  Uiso   1.00
C290   C     0.57192   0.26895   0.68847   0.00000  Uiso   1.00
C291   C     0.26047   0.96067   0.37091   0.00000  Uiso   1.00
C292   C     0.73953   0.46067   0.62909   0.00000  Uiso   1.00
N293   N     0.28054   0.94039   0.35626   0.00000  Uiso   1.00
N294   N     0.71946   0.44039   0.64374   0.00000  Uiso   1.00
C295   C     0.41384   0.74238   0.29344   0.00000  Uiso   1.00
C296   C     0.58616   0.24238   0.70656   0.00000  Uiso   1.00
C297   C     0.41694   0.71645   0.31502   0.00000  Uiso   1.00
C298   C     0.58306   0.21645   0.68498   0.00000  Uiso   1.00
C299   C     0.40210   0.69311   0.30043   0.00000  Uiso   1.00
C300   C     0.59790   0.19311   0.69957   0.00000  Uiso   1.00
C301   C     0.38366   0.69495   0.26394   0.00000  Uiso   1.00
C302   C     0.61634   0.19495   0.73606   0.00000  Uiso   1.00
C303   C     0.38111   0.72050   0.24145   0.00000  Uiso   1.00
C304   C     0.61889   0.22050   0.75855   0.00000  Uiso   1.00
C305   C     0.39605   0.74381   0.25585   0.00000  Uiso   1.00
C306   C     0.60395   0.24381   0.74415   0.00000  Uiso   1.00
N307   N     0.29241   0.60235   0.19532   0.00000  Uiso   1.00
N308   N     0.70759   0.10235   0.80468   0.00000  Uiso   1.00
C309   C     0.27465   0.58091   0.17736   0.00000  Uiso   1.00
C310   C     0.72535   0.08091   0.82264   0.00000  Uiso   1.00
O311   O     0.48575   0.75207   0.23720   0.00000  Uiso   1.00
O312   O     0.51425   0.25207   0.76280   0.00000  Uiso   1.00
O313   O     0.43835   0.76455   0.35533   0.00000  Uiso   1.00
O314   O     0.56165   0.26455   0.64467   0.00000  Uiso   1.00
O315   O     0.44573   0.77951   0.23706   0.00000  Uiso   1.00
O316   O     0.55427   0.27951   0.76294   0.00000  Uiso   1.00
O317   O     0.49313   0.76693   0.35560   0.00000  Uiso   1.00
O318   O     0.50687   0.26693   0.64440   0.00000  Uiso   1.00
C319   C     0.69547   0.57726   0.39089   0.00000  Uiso   1.00
C320   C     0.30453   0.07726   0.60911   0.00000  Uiso   1.00
C321   C     0.71307   0.55701   0.40908   0.00000  Uiso   1.00
C322   C     0.28693   0.05701   0.59092   0.00000  Uiso   1.00
C323   C     0.70590   0.52874   0.40705   0.00000  Uiso   1.00
C324   C     0.29410   0.02874   0.59295   0.00000  Uiso   1.00
C325   C     0.68129   0.52096   0.38501   0.00000  Uiso   1.00
C326   C     0.31871   0.02096   0.61499   0.00000  Uiso   1.00
C327   C     0.66357   0.54124   0.36700   0.00000  Uiso   1.00
C328   C     0.33643   0.04124   0.63300   0.00000  Uiso   1.00
C329   C     0.23544   0.95303   0.39193   0.00000  Uiso   1.00
C330   C     0.76456   0.45303   0.60807   0.00000  Uiso   1.00
C331   C     0.21805   0.97333   0.41030   0.00000  Uiso   1.00
C332   C     0.78195   0.47333   0.58970   0.00000  Uiso   1.00
C333   C     0.22528   0.00159   0.40821   0.00000  Uiso   1.00
C334   C     0.77472   0.50159   0.59179   0.00000  Uiso   1.00
C335   C     0.24977   0.00929   0.38609   0.00000  Uiso   1.00
C336   C     0.75023   0.50929   0.61391   0.00000  Uiso   1.00
C337   C     0.26725   0.98897   0.36785   0.00000  Uiso   1.00
C338   C     0.73275   0.48897   0.63215   0.00000  Uiso   1.00
C339   C     0.24992   0.58908   0.15627   0.00000  Uiso   1.00
C340   C     0.75008   0.08908   0.84373   0.00000  Uiso   1.00
C341   C     0.23308   0.56959   0.13449   0.00000  Uiso   1.00
C342   C     0.76692   0.06959   0.86551   0.00000  Uiso   1.00
C343   C     0.24056   0.54138   0.13379   0.00000  Uiso   1.00
C344   C     0.75944   0.04138   0.86621   0.00000  Uiso   1.00
C345   C     0.26451   0.53283   0.15700   0.00000  Uiso   1.00
C346   C     0.73549   0.03283   0.84300   0.00000  Uiso   1.00
C347   C     0.28146   0.55238   0.17868   0.00000  Uiso   1.00
C348   C     0.71854   0.05238   0.82132   0.00000  Uiso   1.00
C349   C     0.68269   0.94045   0.15716   0.00000  Uiso   1.00
C350   C     0.31731   0.44045   0.84284   0.00000  Uiso   1.00
C351   C     0.69957   0.95964   0.13501   0.00000  Uiso   1.00
C352   C     0.30043   0.45964   0.86499   0.00000  Uiso   1.00
C353   C     0.69214   0.98785   0.13328   0.00000  Uiso   1.00
C354   C     0.30786   0.48785   0.86672   0.00000  Uiso   1.00
C355   C     0.66820   0.99672   0.15587   0.00000  Uiso   1.00
C356   C     0.33180   0.49672   0.84413   0.00000  Uiso   1.00
C357   C     0.65120   0.97746   0.17793   0.00000  Uiso   1.00
C358   C     0.34880   0.47746   0.82207   0.00000  Uiso   1.00
C359   C     0.70762   0.00756   0.10300   0.00000  Uiso   1.00
C360   C     0.29238   0.50756   0.89700   0.00000  Uiso   1.00
C361   C     0.20893   0.02287   0.43434   0.00000  Uiso   1.00
C362   C     0.79107   0.52287   0.56566   0.00000  Uiso   1.00
C363   C     0.58951   0.67567   0.32549   0.00000  Uiso   1.00
C364   C     0.41049   0.17567   0.67451   0.00000  Uiso   1.00
C365   C     0.56546   0.86026   0.25067   0.00000  Uiso   1.00
C366   C     0.43454   0.36026   0.74933   0.00000  Uiso   1.00
C367   C     0.34150   0.85513   0.32379   0.00000  Uiso   1.00
C368   C     0.65850   0.35513   0.67621   0.00000  Uiso   1.00
C369   C     0.36670   0.67051   0.24999   0.00000  Uiso   1.00
C370   C     0.63330   0.17051   0.75001   0.00000  Uiso   1.00
C371   C     0.61447   0.93060   0.20861   0.00000  Uiso   1.00
C372   C     0.38553   0.43060   0.79139   0.00000  Uiso   1.00
H373   H     0.10648   0.08067   0.32724   0.00000  Uiso   1.00
H374   H     0.89352   0.58067   0.67276   0.00000  Uiso   1.00
H375   H     0.24042   0.51142   0.08103   0.00000  Uiso   1.00
H376   H     0.75958   0.01142   0.91897   0.00000  Uiso   1.00
H377   H     0.21024   0.53254   0.08187   0.00000  Uiso   1.00
H378   H     0.78976   0.03254   0.91813   0.00000  Uiso   1.00
H379   H     0.30612   0.82531   0.31632   0.00000  Uiso   1.00
H380   H     0.69388   0.32531   0.68368   0.00000  Uiso   1.00
H381   H     0.26971   0.85990   0.32915   0.00000  Uiso   1.00
H382   H     0.73029   0.35990   0.67085   0.00000  Uiso   1.00
H383   H     0.33168   0.92427   0.34285   0.00000  Uiso   1.00
H384   H     0.66832   0.42427   0.65715   0.00000  Uiso   1.00
H385   H     0.36885   0.89049   0.33179   0.00000  Uiso   1.00
H386   H     0.63115   0.39049   0.66821   0.00000  Uiso   1.00
H387   H     0.39977   0.64036   0.25858   0.00000  Uiso   1.00
H388   H     0.60023   0.14036   0.74142   0.00000  Uiso   1.00
H389   H     0.37168   0.60027   0.23603   0.00000  Uiso   1.00
H390   H     0.62832   0.10027   0.76397   0.00000  Uiso   1.00
H391   H     0.30119   0.65424   0.21497   0.00000  Uiso   1.00
H392   H     0.69881   0.15424   0.78503   0.00000  Uiso   1.00
H393   H     0.32905   0.69419   0.23813   0.00000  Uiso   1.00
H394   H     0.67095   0.19419   0.76187   0.00000  Uiso   1.00
H395   H     0.60305   0.83635   0.24010   0.00000  Uiso   1.00
H396   H     0.39695   0.33635   0.75990   0.00000  Uiso   1.00
H397   H     0.63112   0.87600   0.21660   0.00000  Uiso   1.00
H398   H     0.36888   0.37600   0.78340   0.00000  Uiso   1.00
H399   H     0.56077   0.93038   0.23501   0.00000  Uiso   1.00
H400   H     0.43923   0.43038   0.76499   0.00000  Uiso   1.00
H401   H     0.53248   0.89059   0.25795   0.00000  Uiso   1.00
H402   H     0.46752   0.39059   0.74205   0.00000  Uiso   1.00
H403   H     0.56148   0.64084   0.33437   0.00000  Uiso   1.00
H404   H     0.43852   0.14084   0.66563   0.00000  Uiso   1.00
H405   H     0.59829   0.60626   0.34477   0.00000  Uiso   1.00
H406   H     0.40171   0.10626   0.65523   0.00000  Uiso   1.00
H407   H     0.66011   0.67044   0.32867   0.00000  Uiso   1.00
H408   H     0.33989   0.17044   0.67133   0.00000  Uiso   1.00
H409   H     0.62345   0.70487   0.31752   0.00000  Uiso   1.00
H410   H     0.37655   0.20487   0.68248   0.00000  Uiso   1.00
H411   H     0.25437   0.90652   0.34851   0.00000  Uiso   1.00
H412   H     0.74563   0.40652   0.65149   0.00000  Uiso   1.00
H413   H     0.67591   0.62377   0.34805   0.00000  Uiso   1.00
H414   H     0.32409   0.12377   0.65195   0.00000  Uiso   1.00
H415   H     0.82453   0.44967   0.32725   0.00000  Uiso   1.00
H416   H     0.17547   0.94967   0.67275   0.00000  Uiso   1.00
H417   H     0.96089   0.23475   0.23308   0.00000  Uiso   1.00
H418   H     0.03911   0.73475   0.76692   0.00000  Uiso   1.00
H419   H     0.97026   0.29631   0.23301   0.00000  Uiso   1.00
H420   H     0.02974   0.79631   0.76699   0.00000  Uiso   1.00
H421   H     0.98824   0.22712   0.32563   0.00000  Uiso   1.00
H422   H     0.01176   0.72712   0.67437   0.00000  Uiso   1.00
H423   H     0.96407   0.23480   0.36962   0.00000  Uiso   1.00
H424   H     0.03593   0.73480   0.63038   0.00000  Uiso   1.00
H425   H     0.99642   0.25382   0.36614   0.00000  Uiso   1.00
H426   H     0.00358   0.75382   0.63386   0.00000  Uiso   1.00
H427   H     0.92414   0.20966   0.25717   0.00000  Uiso   1.00
H428   H     0.07586   0.70966   0.74283   0.00000  Uiso   1.00
H429   H     0.88763   0.17554   0.25055   0.00000  Uiso   1.00
H430   H     0.11237   0.67554   0.74945   0.00000  Uiso   1.00
H431   H     0.84272   0.22937   0.16022   0.00000  Uiso   1.00
H432   H     0.15728   0.72937   0.83978   0.00000  Uiso   1.00
H433   H     0.87909   0.26425   0.16713   0.00000  Uiso   1.00
H434   H     0.12091   0.76425   0.83287   0.00000  Uiso   1.00
H435   H     0.89469   0.26823   0.29190   0.00000  Uiso   1.00
H436   H     0.10531   0.76823   0.70810   0.00000  Uiso   1.00
H437   H     0.86851   0.30780   0.31997   0.00000  Uiso   1.00
H438   H     0.13149   0.80780   0.68003   0.00000  Uiso   1.00
H439   H     0.89797   0.35778   0.21007   0.00000  Uiso   1.00
H440   H     0.10203   0.85778   0.78993   0.00000  Uiso   1.00
H441   H     0.92432   0.31906   0.18215   0.00000  Uiso   1.00
H442   H     0.07568   0.81906   0.81785   0.00000  Uiso   1.00
H443   H     0.93373   0.27838   0.36435   0.00000  Uiso   1.00
H444   H     0.06627   0.77838   0.63565   0.00000  Uiso   1.00
H445   H     0.94253   0.30461   0.32349   0.00000  Uiso   1.00
H446   H     0.05747   0.80461   0.67651   0.00000  Uiso   1.00
H447   H     0.96611   0.29732   0.36879   0.00000  Uiso   1.00
H448   H     0.03389   0.79732   0.63121   0.00000  Uiso   1.00
H449   H     0.05259   0.26621   0.16993   0.00000  Uiso   1.00
H450   H     0.94741   0.76621   0.83007   0.00000  Uiso   1.00
H451   H     0.08931   0.30076   0.16431   0.00000  Uiso   1.00
H452   H     0.91069   0.80076   0.83569   0.00000  Uiso   1.00
H453   H     0.04374   0.35532   0.25202   0.00000  Uiso   1.00
H454   H     0.95626   0.85532   0.74798   0.00000  Uiso   1.00
H455   H     0.00693   0.32148   0.25744   0.00000  Uiso   1.00
H456   H     0.99307   0.82148   0.74256   0.00000  Uiso   1.00
H457   H     0.00697   0.21208   0.18227   0.00000  Uiso   1.00
H458   H     0.99303   0.71208   0.81773   0.00000  Uiso   1.00
H459   H     0.03301   0.17315   0.21052   0.00000  Uiso   1.00
H460   H     0.96699   0.67315   0.78948   0.00000  Uiso   1.00
H461   H     0.06175   0.22247   0.32207   0.00000  Uiso   1.00
H462   H     0.93825   0.72247   0.67793   0.00000  Uiso   1.00
H463   H     0.03586   0.26224   0.29372   0.00000  Uiso   1.00
H464   H     0.96414   0.76224   0.70628   0.00000  Uiso   1.00
H465   H     0.98211   0.24812   0.16980   0.00000  Uiso   1.00
H466   H     0.01789   0.74812   0.83020   0.00000  Uiso   1.00
H467   H     0.94915   0.28307   0.16961   0.00000  Uiso   1.00
H468   H     0.05085   0.78307   0.83039   0.00000  Uiso   1.00
H469   H     0.72787   0.10010   0.13383   0.00000  Uiso   1.00
H470   H     0.27213   0.60010   0.86617   0.00000  Uiso   1.00
H471   H     0.69777   0.06363   0.10492   0.00000  Uiso   1.00
H472   H     0.30223   0.56363   0.89508   0.00000  Uiso   1.00
H473   H     0.75418   0.00124   0.15498   0.00000  Uiso   1.00
H474   H     0.24582   0.50124   0.84502   0.00000  Uiso   1.00
H475   H     0.78460   0.03807   0.18482   0.00000  Uiso   1.00
H476   H     0.21540   0.53807   0.81518   0.00000  Uiso   1.00
H477   H     0.20506   0.42904   0.13691   0.00000  Uiso   1.00
H478   H     0.79494   0.92904   0.86309   0.00000  Uiso   1.00
H479   H     0.23499   0.46523   0.10726   0.00000  Uiso   1.00
H480   H     0.76501   0.96523   0.89274   0.00000  Uiso   1.00
H481   H     0.17872   0.52805   0.15553   0.00000  Uiso   1.00
H482   H     0.82128   0.02805   0.84447   0.00000  Uiso   1.00
H483   H     0.14842   0.49149   0.18613   0.00000  Uiso   1.00
H484   H     0.85158   0.99149   0.81387   0.00000  Uiso   1.00
H485   H     0.18833   0.11304   0.38689   0.00000  Uiso   1.00
H486   H     0.81167   0.61304   0.61311   0.00000  Uiso   1.00
H487   H     0.21798   0.07887   0.42505   0.00000  Uiso   1.00
H488   H     0.78202   0.57887   0.57495   0.00000  Uiso   1.00
H489   H     0.16454   0.01277   0.37904   0.00000  Uiso   1.00
H490   H     0.83546   0.51277   0.62096   0.00000  Uiso   1.00
H491   H     0.13517   0.04658   0.34051   0.00000  Uiso   1.00
H492   H     0.86483   0.54658   0.65949   0.00000  Uiso   1.00
H493   H     0.74273   0.41738   0.38571   0.00000  Uiso   1.00
H494   H     0.25727   0.91738   0.61429   0.00000  Uiso   1.00
H495   H     0.71331   0.45155   0.42395   0.00000  Uiso   1.00
H496   H     0.28669   0.95155   0.57605   0.00000  Uiso   1.00
H497   H     0.76658   0.51763   0.37812   0.00000  Uiso   1.00
H498   H     0.23342   0.01763   0.62188   0.00000  Uiso   1.00
H499   H     0.79572   0.48383   0.33948   0.00000  Uiso   1.00
H500   H     0.20428   0.98383   0.66052   0.00000  Uiso   1.00
H501   H     0.73782   0.51800   0.45547   0.00000  Uiso   1.00
H502   H     0.26218   0.01800   0.54453   0.00000  Uiso   1.00
H503   H     0.70797   0.49641   0.45606   0.00000  Uiso   1.00
H504   H     0.29203   0.99641   0.54394   0.00000  Uiso   1.00
H505   H     0.32850   0.57979   0.20662   0.00000  Uiso   1.00
H506   H     0.67150   0.07979   0.79338   0.00000  Uiso   1.00
H507   H     0.12716   0.32079   0.20615   0.00000  Uiso   1.00
H508   H     0.87284   0.82079   0.79385   0.00000  Uiso   1.00
H509   H     0.16399   0.35510   0.19454   0.00000  Uiso   1.00
H510   H     0.83601   0.85510   0.80546   0.00000  Uiso   1.00
H511   H     0.10327   0.42116   0.19238   0.00000  Uiso   1.00
H512   H     0.89673   0.92116   0.80762   0.00000  Uiso   1.00
H513   H     0.06566   0.38779   0.20224   0.00000  Uiso   1.00
H514   H     0.93434   0.88779   0.79776   0.00000  Uiso   1.00
H515   H     0.03535   0.13944   0.27032   0.00000  Uiso   1.00
H516   H     0.96465   0.63944   0.72968   0.00000  Uiso   1.00
H517   H     0.06391   0.10011   0.29457   0.00000  Uiso   1.00
H518   H     0.93609   0.60011   0.70543   0.00000  Uiso   1.00
H519   H     0.13090   0.15636   0.32693   0.00000  Uiso   1.00
H520   H     0.86910   0.65636   0.67307   0.00000  Uiso   1.00
H521   H     0.10255   0.19565   0.30206   0.00000  Uiso   1.00
H522   H     0.89745   0.69565   0.69794   0.00000  Uiso   1.00
H523   H     0.82784   0.33491   0.29931   0.00000  Uiso   1.00
H524   H     0.17216   0.83491   0.70069   0.00000  Uiso   1.00
H525   H     0.79960   0.37414   0.32442   0.00000  Uiso   1.00
H526   H     0.20040   0.87414   0.67558   0.00000  Uiso   1.00
H527   H     0.86698   0.43031   0.29476   0.00000  Uiso   1.00
H528   H     0.13302   0.93031   0.70524   0.00000  Uiso   1.00
H529   H     0.89541   0.39105   0.27029   0.00000  Uiso   1.00
H530   H     0.10459   0.89105   0.72971   0.00000  Uiso   1.00
H531   H     0.86715   0.14300   0.19804   0.00000  Uiso   1.00
H532   H     0.13285   0.64300   0.80196   0.00000  Uiso   1.00
H533   H     0.83005   0.10874   0.18833   0.00000  Uiso   1.00
H534   H     0.16995   0.60874   0.81167   0.00000  Uiso   1.00
H535   H     0.76907   0.17446   0.19252   0.00000  Uiso   1.00
H536   H     0.23093   0.67446   0.80748   0.00000  Uiso   1.00
H537   H     0.80604   0.20866   0.20305   0.00000  Uiso   1.00
H538   H     0.19396   0.70866   0.79695   0.00000  Uiso   1.00
H539   H     0.17992   0.40220   0.18011   0.00000  Uiso   1.00
H540   H     0.82008   0.90220   0.81989   0.00000  Uiso   1.00
H541   H     0.75295   0.12716   0.17760   0.00000  Uiso   1.00
H542   H     0.24705   0.62716   0.82240   0.00000  Uiso   1.00
H543   H     0.46911   0.73476   0.29316   0.00000  Uiso   1.00
H544   H     0.53089   0.23476   0.70684   0.00000  Uiso   1.00
H545   H     0.46237   0.79666   0.29338   0.00000  Uiso   1.00
H546   H     0.53763   0.29666   0.70662   0.00000  Uiso   1.00
H547   H     0.44213   0.72786   0.20127   0.00000  Uiso   1.00
H548   H     0.55787   0.22786   0.79873   0.00000  Uiso   1.00
H549   H     0.46652   0.73496   0.15723   0.00000  Uiso   1.00
H550   H     0.53348   0.23496   0.84277   0.00000  Uiso   1.00
H551   H     0.43457   0.75466   0.16067   0.00000  Uiso   1.00
H552   H     0.56543   0.25466   0.83933   0.00000  Uiso   1.00
H553   H     0.50400   0.70733   0.27406   0.00000  Uiso   1.00
H554   H     0.49600   0.20733   0.72594   0.00000  Uiso   1.00
H555   H     0.53986   0.67241   0.28025   0.00000  Uiso   1.00
H556   H     0.46014   0.17241   0.71975   0.00000  Uiso   1.00
H557   H     0.58889   0.72750   0.36260   0.00000  Uiso   1.00
H558   H     0.41111   0.22750   0.63740   0.00000  Uiso   1.00
H559   H     0.55345   0.76306   0.35608   0.00000  Uiso   1.00
H560   H     0.44655   0.26306   0.64392   0.00000  Uiso   1.00
H561   H     0.53859   0.76761   0.23933   0.00000  Uiso   1.00
H562   H     0.46141   0.26761   0.76067   0.00000  Uiso   1.00
H563   H     0.56452   0.80811   0.21397   0.00000  Uiso   1.00
H564   H     0.43548   0.30811   0.78603   0.00000  Uiso   1.00
H565   H     0.52740   0.85752   0.31849   0.00000  Uiso   1.00
H566   H     0.47260   0.35752   0.68151   0.00000  Uiso   1.00
H567   H     0.50093   0.81738   0.34333   0.00000  Uiso   1.00
H568   H     0.49907   0.31738   0.65667   0.00000  Uiso   1.00
H569   H     0.46552   0.79796   0.15863   0.00000  Uiso   1.00
H570   H     0.53448   0.29796   0.84137   0.00000  Uiso   1.00
H571   H     0.49736   0.77803   0.16188   0.00000  Uiso   1.00
H572   H     0.50264   0.27803   0.83812   0.00000  Uiso   1.00
H573   H     0.48979   0.80416   0.20349   0.00000  Uiso   1.00
H574   H     0.51021   0.30416   0.79651   0.00000  Uiso   1.00
H575   H     0.37775   0.76777   0.35398   0.00000  Uiso   1.00
H576   H     0.62225   0.26777   0.64602   0.00000  Uiso   1.00
H577   H     0.34209   0.80312   0.35993   0.00000  Uiso   1.00
H578   H     0.65791   0.30312   0.64007   0.00000  Uiso   1.00
H579   H     0.39145   0.85894   0.28005   0.00000  Uiso   1.00
H580   H     0.60855   0.35894   0.71995   0.00000  Uiso   1.00
H581   H     0.42745   0.82417   0.27427   0.00000  Uiso   1.00
H582   H     0.57255   0.32417   0.72573   0.00000  Uiso   1.00
H583   H     0.43065   0.71412   0.34359   0.00000  Uiso   1.00
H584   H     0.56935   0.21412   0.65641   0.00000  Uiso   1.00
H585   H     0.40448   0.67375   0.31859   0.00000  Uiso   1.00
H586   H     0.59552   0.17375   0.68141   0.00000  Uiso   1.00
H587   H     0.36747   0.72252   0.21270   0.00000  Uiso   1.00
H588   H     0.63253   0.22252   0.78730   0.00000  Uiso   1.00
H589   H     0.39317   0.76324   0.23811   0.00000  Uiso   1.00
H590   H     0.60683   0.26324   0.76189   0.00000  Uiso   1.00
H591   H     0.42283   0.75913   0.37527   0.00000  Uiso   1.00
H592   H     0.57717   0.25913   0.62473   0.00000  Uiso   1.00
H593   H     0.50860   0.77255   0.37569   0.00000  Uiso   1.00
H594   H     0.49140   0.27255   0.62431   0.00000  Uiso   1.00
H595   H     0.70112   0.59885   0.39522   0.00000  Uiso   1.00
H596   H     0.29888   0.09885   0.60478   0.00000  Uiso   1.00
H597   H     0.73179   0.56355   0.42636   0.00000  Uiso   1.00
H598   H     0.26821   0.06355   0.57364   0.00000  Uiso   1.00
H599   H     0.67523   0.49928   0.38351   0.00000  Uiso   1.00
H600   H     0.32477   0.99928   0.61649   0.00000  Uiso   1.00
H601   H     0.64416   0.53491   0.35162   0.00000  Uiso   1.00
H602   H     0.35584   0.03491   0.64838   0.00000  Uiso   1.00
H603   H     0.22976   0.93146   0.39628   0.00000  Uiso   1.00
H604   H     0.77024   0.43146   0.60372   0.00000  Uiso   1.00
H605   H     0.19944   0.96685   0.42769   0.00000  Uiso   1.00
H606   H     0.80056   0.46685   0.57231   0.00000  Uiso   1.00
H607   H     0.25592   0.03095   0.38464   0.00000  Uiso   1.00
H608   H     0.74408   0.53095   0.61536   0.00000  Uiso   1.00
H609   H     0.28655   0.99524   0.35231   0.00000  Uiso   1.00
H610   H     0.71345   0.49524   0.64769   0.00000  Uiso   1.00
H611   H     0.24423   0.61087   0.15525   0.00000  Uiso   1.00
H612   H     0.75577   0.11087   0.84475   0.00000  Uiso   1.00
H613   H     0.21471   0.57671   0.11683   0.00000  Uiso   1.00
H614   H     0.78529   0.07671   0.88317   0.00000  Uiso   1.00
H615   H     0.27061   0.51115   0.15684   0.00000  Uiso   1.00
H616   H     0.72939   0.01115   0.84316   0.00000  Uiso   1.00
H617   H     0.29992   0.54500   0.19558   0.00000  Uiso   1.00
H618   H     0.70008   0.04500   0.80442   0.00000  Uiso   1.00
H619   H     0.68835   0.91864   0.15691   0.00000  Uiso   1.00
H620   H     0.31165   0.41864   0.84309   0.00000  Uiso   1.00
H621   H     0.71795   0.95229   0.11787   0.00000  Uiso   1.00
H622   H     0.28205   0.45229   0.88213   0.00000  Uiso   1.00
H623   H     0.66214   0.01841   0.15494   0.00000  Uiso   1.00
H624   H     0.33786   0.51841   0.84506   0.00000  Uiso   1.00
H625   H     0.63274   0.98508   0.19431   0.00000  Uiso   1.00
H626   H     0.36726   0.48508   0.80569   0.00000  Uiso   1.00
H627   H     0.69237   0.01718   0.07959   0.00000  Uiso   1.00
H628   H     0.30763   0.51718   0.92041   0.00000  Uiso   1.00
H629   H     0.72247   0.99598   0.08149   0.00000  Uiso   1.00
H630   H     0.27753   0.49598   0.91851   0.00000  Uiso   1.00
H631   H     0.22353   0.03397   0.45712   0.00000  Uiso   1.00
H632   H     0.77647   0.53397   0.54288   0.00000  Uiso   1.00
H633   H     0.19363   0.01245   0.45653   0.00000  Uiso   1.00
H634   H     0.80637   0.51245   0.54347   0.00000  Uiso   1.00
H635   H     0.60410   0.95049   0.20615   0.00000  Uiso   1.00
H636   H     0.39590   0.45049   0.79385   0.00000  Uiso   1.00
loop_
_geom_bond_atom_site_label_1
_geom_bond_atom_site_label_2
_geom_bond_distance
_geom_bond_site_symmetry_2
_ccdc_geom_bond_type
C1     N125    1.302   .     D
C1     C203    1.482   .     S
C1     H373    1.081   .     S
C2     N126    1.302   .     D
C2     C204    1.482   .     S
C2     H374    1.081   .     S
C3     C151    1.509   .     S
C3     C343    1.509   .     S
C3     H375    1.112   .     S
C3     H377    1.112   .     S
C4     C152    1.509   1_545 S
C4     C344    1.509   .     S
C4     H376    1.112   .     S
C4     H378    1.112   .     S
C5     C7      1.394   .     D
C5     C367    1.481   .     S
C5     H379    1.082   .     S
C6     C8      1.394   .     D
C6     C368    1.481   .     S
C6     H380    1.082   .     S
C7     C9      1.403   .     S
C7     H381    1.084   .     S
C8     C10     1.403   .     S
C8     H382    1.084   .     S
C9     C11     1.410   .     D
C9     C45     1.483   .     S
C10    C12     1.410   .     D
C10    C46     1.483   .     S
C11    C13     1.403   .     S
C11    H383    1.082   .     S
C12    C14     1.403   .     S
C12    H384    1.082   .     S
C13    C367    1.403   .     D
C13    H385    1.082   .     S
C14    C368    1.403   .     D
C14    H386    1.082   .     S
C15    C17     1.400   .     D
C15    C369    1.407   .     S
C15    H387    1.082   .     S
C16    C18     1.400   .     D
C16    C370    1.407   .     S
C16    H388    1.082   .     S
C17    C19     1.403   .     S
C17    H389    1.084   .     S
C18    C20     1.403   .     S
C18    H390    1.084   .     S
C19    C21     1.406   .     D
C19    C187    1.481   .     S
C20    C22     1.406   .     D
C20    C188    1.481   .     S
C21    C23     1.399   .     S
C21    H391    1.082   .     S
C22    C24     1.399   .     S
C22    H392    1.082   .     S
C23    C369    1.407   .     D
C23    H393    1.083   .     S
C24    C370    1.407   .     D
C24    H394    1.083   .     S
C25    C27     1.400   .     S
C25    C365    1.407   .     D
C25    H395    1.082   .     S
C26    C28     1.400   .     D
C26    C366    1.407   .     S
C26    H396    1.082   .     S
C27    C29     1.406   .     D
C27    H397    1.083   .     S
C28    C30     1.406   .     S
C28    H398    1.083   .     S
C29    C31     1.404   .     S
C29    C371    1.482   .     S
C30    C32     1.404   .     D
C30    C372    1.482   .     S
C31    C33     1.400   .     D
C31    H399    1.083   .     S
C32    C34     1.400   .     S
C32    H400    1.083   .     S
C33    C365    1.406   .     S
C33    H401    1.083   .     S
C34    C366    1.406   .     D
C34    H402    1.083   .     S
C35    C37     1.402   .     D
C35    C363    1.407   .     S
C35    H403    1.083   .     S
C36    C38     1.402   .     S
C36    C364    1.407   .     D
C36    H404    1.083   .     S
C37    C39     1.407   .     S
C37    H405    1.083   .     S
C38    C40     1.407   .     D
C38    H406    1.083   .     S
C39    C41     1.403   .     D
C39    C47     1.481   .     S
C40    C42     1.403   .     S
C40    C48     1.481   .     S
C41    C43     1.398   .     S
C41    H407    1.083   .     S
C42    C44     1.398   .     D
C42    H408    1.083   .     S
C43    C363    1.406   .     D
C43    H409    1.083   .     S
C44    C364    1.406   .     S
C44    H410    1.083   .     S
C45    N293    1.301   .     D
C45    H411    1.082   .     S
C46    N294    1.301   .     D
C46    H412    1.082   .     S
C47    N257    1.301   .     D
C47    H413    1.082   .     S
C48    N258    1.301   .     D
C48    H414    1.082   .     S
C49    N91     1.301   .     D
C49    C213    1.482   .     S
C49    H415    1.081   .     S
C50    N92     1.301   .     D
C50    C214    1.482   .     S
C50    H416    1.081   .     S
C51    C53     1.541   .     S
C51    C71     1.588   .     S
C51    O129    1.397   .     S
C51    H417    1.110   .     S
C52    C54     1.541   .     S
C52    C72     1.588   .     S
C52    O130    1.397   .     S
C52    H418    1.110   .     S
C53    C107    1.588   1_655 S
C53    O133    1.397   .     S
C53    H419    1.110   .     S
C54    C108    1.588   1_455 S
C54    O134    1.397   .     S
C54    H420    1.110   .     S
C55    C57     1.532   .     S
C55    C89     1.532   .     S
C55    O129    1.407   .     S
C55    O133    1.407   .     S
C56    C58     1.532   .     S
C56    C90     1.532   .     S
C56    O130    1.407   .     S
C56    O134    1.407   .     S
C57    H421    1.110   .     S
C57    H423    1.111   .     S
C57    H425    1.112   .     S
C58    H422    1.110   .     S
C58    H424    1.111   .     S
C58    H426    1.112   .     S
C59    C61     1.415   .     D
C59    C69     1.411   .     S
C59    C71     1.545   .     S
C60    C62     1.415   .     D
C60    C70     1.411   .     S
C60    C72     1.545   .     S
C61    C63     1.401   .     S
C61    H427    1.079   .     S
C62    C64     1.401   .     S
C62    H428    1.079   .     S
C63    C65     1.405   .     D
C63    H429    1.083   .     S
C64    C66     1.405   .     D
C64    H430    1.083   .     S
C65    C67     1.404   .     S
C65    C179    1.490   .     S
C66    C68     1.404   .     S
C66    C180    1.490   .     S
C67    C69     1.397   .     D
C67    H431    1.083   .     S
C68    C70     1.397   .     D
C68    H432    1.083   .     S
C69    H433    1.083   .     S
C70    H434    1.083   .     S
C71    C77     1.551   .     S
C71    O135    1.411   .     S
C72    C78     1.551   .     S
C72    O136    1.411   .     S
C73    N75     1.442   .     S
C73    C137    1.410   .     D
C73    C145    1.402   .     S
C74    N76     1.442   .     S
C74    C138    1.410   .     D
C74    C146    1.402   .     S
N75    C231    1.301   .     D
N76    C232    1.301   .     D
C77    C79     1.413   .     S
C77    C87     1.413   .     D
C78    C80     1.413   .     D
C78    C88     1.413   .     S
C79    C81     1.399   .     D
C79    H435    1.082   .     S
C80    C82     1.399   .     S
C80    H436    1.082   .     S
C81    C83     1.404   .     S
C81    H437    1.083   .     S
C82    C84     1.404   .     D
C82    H438    1.083   .     S
C83    C85     1.403   .     D
C83    C181    1.491   .     S
C84    C86     1.403   .     S
C84    C182    1.491   .     S
C85    C87     1.398   .     S
C85    H439    1.083   .     S
C86    C88     1.398   .     D
C86    H440    1.083   .     S
C87    H441    1.079   .     S
C88    H442    1.079   .     S
C89    H443    1.111   .     S
C89    H445    1.110   .     S
C89    H447    1.111   .     S
C90    H444    1.111   .     S
C90    H446    1.110   .     S
C90    H448    1.111   .     S
N91    C93     1.442   .     S
N92    C94     1.442   .     S
C93    C167    1.401   .     S
C93    C175    1.411   .     D
C94    C168    1.401   .     D
C94    C176    1.411   .     S
C95    C97     1.411   .     S
C95    C105    1.415   .     D
C95    C107    1.545   .     S
C96    C98     1.411   .     S
C96    C106    1.415   .     D
C96    C108    1.545   .     S
C97    C99     1.397   .     D
C97    H449    1.083   .     S
C98    C100    1.397   .     D
C98    H450    1.083   .     S
C99    C101    1.403   .     S
C99    H451    1.083   .     S
C100   C102    1.403   .     S
C100   H452    1.083   .     S
C101   C103    1.405   .     D
C101   C183    1.489   .     S
C102   C104    1.405   .     D
C102   C184    1.489   .     S
C103   C105    1.401   .     S
C103   H453    1.083   .     S
C104   C106    1.401   .     S
C104   H454    1.083   .     S
C105   H455    1.079   .     S
C106   H456    1.079   .     S
C107   C53     1.588   1_455 S
C107   C113    1.551   .     S
C107   O131    1.412   1_455 S
C108   C54     1.588   1_655 S
C108   C114    1.551   .     S
C108   O132    1.412   1_655 S
C109   N111    1.442   .     S
C109   C147    1.410   .     S
C109   C155    1.402   .     D
C110   N112    1.442   .     S
C110   C148    1.410   .     S
C110   C156    1.402   .     D
N111   C229    1.302   .     D
N112   C230    1.302   .     D
C113   C115    1.414   .     S
C113   C123    1.413   .     D
C114   C116    1.414   .     D
C114   C124    1.413   .     S
C115   C117    1.398   .     D
C115   H457    1.079   .     S
C116   C118    1.398   .     S
C116   H458    1.079   .     S
C117   C119    1.403   .     S
C117   H459    1.083   .     S
C118   C120    1.403   .     D
C118   H460    1.083   .     S
C119   C121    1.404   .     D
C119   C185    1.490   .     S
C120   C122    1.404   .     S
C120   C186    1.490   .     S
C121   C123    1.399   .     S
C121   H461    1.083   .     S
C122   C124    1.399   .     D
C122   H462    1.083   .     S
C123   H463    1.082   .     S
C124   H464    1.082   .     S
N125   C127    1.442   .     S
N126   C128    1.442   .     S
C127   C157    1.401   .     S
C127   C165    1.411   .     D
C128   C158    1.401   .     D
C128   C166    1.411   .     S
O131   C107    1.412   1_655 S
O131   H465    0.988   .     S
O132   C108    1.412   1_455 S
O132   H466    0.988   .     S
O135   H467    0.988   .     S
O136   H468    0.988   .     S
C137   C139    1.399   .     S
C137   H469    1.080   .     S
C138   C140    1.399   .     S
C138   H470    1.080   .     S
C139   C141    1.404   .     D
C139   H471    1.083   .     S
C140   C142    1.404   .     D
C140   H472    1.083   .     S
C141   C143    1.403   .     S
C141   C359    1.509   .     S
C142   C144    1.403   .     S
C142   C360    1.509   .     S
C143   C145    1.401   .     D
C143   H473    1.083   .     S
C144   C146    1.401   .     D
C144   H474    1.083   .     S
C145   H475    1.083   .     S
C146   H476    1.083   .     S
C147   C149    1.398   .     D
C147   H477    1.080   .     S
C148   C150    1.398   .     D
C148   H478    1.080   .     S
C149   C151    1.403   .     S
C149   H479    1.083   .     S
C150   C152    1.403   .     S
C150   H480    1.083   .     S
C151   C153    1.404   .     D
C152   C4      1.509   1_565 S
C152   C154    1.404   1_565 D
C153   C155    1.401   .     S
C153   H481    1.083   .     S
C154   C152    1.404   1_545 D
C154   C156    1.401   1_545 S
C154   H482    1.083   .     S
C155   H483    1.083   .     S
C156   C154    1.401   1_565 S
C156   H484    1.083   .     S
C157   C159    1.399   .     D
C157   H485    1.083   .     S
C158   C160    1.399   .     S
C158   H486    1.083   .     S
C159   C161    1.404   .     S
C159   H487    1.083   .     S
C160   C162    1.404   .     D
C160   H488    1.083   .     S
C161   C163    1.404   .     D
C161   C361    1.509   .     S
C162   C164    1.404   .     S
C162   C362    1.509   .     S
C163   C165    1.402   .     S
C163   H489    1.083   .     S
C164   C166    1.402   .     D
C164   H490    1.083   .     S
C165   H491    1.079   .     S
C166   H492    1.079   .     S
C167   C169    1.398   .     D
C167   H493    1.083   .     S
C168   C170    1.398   .     S
C168   H494    1.083   .     S
C169   C171    1.404   .     S
C169   H495    1.083   .     S
C170   C172    1.404   .     D
C170   H496    1.083   .     S
C171   C173    1.404   .     D
C171   C177    1.509   .     S
C172   C174    1.404   .     S
C172   C178    1.509   1_565 S
C173   C175    1.402   .     S
C173   H497    1.083   .     S
C174   C176    1.402   .     D
C174   H498    1.083   1_565 S
C175   H499    1.080   .     S
C176   H500    1.080   .     S
C177   C323    1.510   .     S
C177   H501    1.112   .     S
C177   H503    1.112   .     S
C178   C172    1.509   1_545 S
C178   C324    1.510   .     S
C178   H502    1.112   .     S
C178   H504    1.112   1_545 S
C179   C219    1.408   .     D
C179   C227    1.407   .     S
C180   C220    1.408   .     D
C180   C228    1.407   .     S
C181   C209    1.407   .     S
C181   C217    1.406   .     D
C182   C210    1.407   .     S
C182   C218    1.406   .     D
C183   C189    1.481   .     S
C183   C197    1.403   .     D
C184   C190    1.481   .     S
C184   C198    1.403   .     D
C185   C199    1.406   .     S
C185   C207    1.407   .     D
C186   C200    1.406   .     S
C186   C208    1.407   .     D
C187   N307    1.301   .     D
C187   H505    1.081   .     S
C188   N308    1.301   .     D
C188   H506    1.081   .     S
C189   C191    1.394   .     D
C189   H507    1.083   .     S
C190   C192    1.394   .     D
C190   H508    1.083   .     S
C191   C193    1.404   .     S
C191   H509    1.083   .     S
C192   C194    1.404   .     S
C192   H510    1.083   .     S
C193   C195    1.409   .     D
C193   C229    1.481   .     S
C194   C196    1.409   .     D
C194   C230    1.481   .     S
C195   C197    1.401   .     S
C195   H511    1.083   .     S
C196   C198    1.401   .     S
C196   H512    1.083   .     S
C197   H513    1.083   .     S
C198   H514    1.083   .     S
C199   C201    1.400   .     D
C199   H515    1.083   .     S
C200   C202    1.400   .     D
C200   H516    1.083   .     S
C201   C203    1.404   .     S
C201   H517    1.083   .     S
C202   C204    1.404   .     S
C202   H518    1.083   .     S
C203   C205    1.406   .     D
C204   C206    1.406   .     D
C205   C207    1.400   .     S
C205   H519    1.083   .     S
C206   C208    1.400   .     S
C206   H520    1.083   .     S
C207   H521    1.083   .     S
C208   H522    1.083   .     S
C209   C211    1.401   .     D
C209   H523    1.083   .     S
C210   C212    1.401   .     D
C210   H524    1.083   .     S
C211   C213    1.406   .     S
C211   H525    1.083   .     S
C212   C214    1.406   .     S
C212   H526    1.083   .     S
C213   C215    1.404   .     D
C214   C216    1.404   .     D
C215   C217    1.399   .     S
C215   H527    1.083   .     S
C216   C218    1.399   .     S
C216   H528    1.083   .     S
C217   H529    1.083   .     S
C218   H530    1.083   .     S
C219   C221    1.402   .     S
C219   H531    1.082   .     S
C220   C222    1.402   .     S
C220   H532    1.082   .     S
C221   C223    1.407   .     D
C221   H533    1.083   .     S
C222   C224    1.407   .     D
C222   H534    1.083   .     S
C223   C225    1.403   .     S
C223   C231    1.481   .     S
C224   C226    1.403   .     S
C224   C232    1.481   .     S
C225   C227    1.398   .     D
C225   H535    1.083   .     S
C226   C228    1.398   .     D
C226   H536    1.083   .     S
C227   H537    1.083   .     S
C228   H538    1.083   .     S
C229   H539    1.082   .     S
C230   H540    1.082   .     S
C231   H541    1.082   .     S
C232   H542    1.082   .     S
C233   C235    1.538   .     S
C233   C253    1.574   .     S
C233   O311    1.396   .     S
C233   H543    1.108   .     S
C234   C236    1.538   .     S
C234   C254    1.574   .     S
C234   O312    1.396   .     S
C234   H544    1.108   .     S
C235   C289    1.574   .     S
C235   O315    1.396   .     S
C235   H545    1.109   .     S
C236   C290    1.574   .     S
C236   O316    1.396   .     S
C236   H546    1.109   .     S
C237   C239    1.532   .     S
C237   C271    1.532   .     S
C237   O311    1.410   .     S
C237   O315    1.409   .     S
C238   C240    1.532   .     S
C238   C272    1.532   .     S
C238   O312    1.410   .     S
C238   O316    1.409   .     S
C239   H547    1.111   .     S
C239   H549    1.111   .     S
C239   H551    1.111   .     S
C240   H548    1.111   .     S
C240   H550    1.111   .     S
C240   H552    1.111   .     S
C241   C243    1.416   .     D
C241   C251    1.412   .     S
C241   C253    1.553   .     S
C242   C244    1.416   .     D
C242   C252    1.412   .     S
C242   C254    1.553   .     S
C243   C245    1.402   .     S
C243   H553    1.079   .     S
C244   C246    1.402   .     S
C244   H554    1.079   .     S
C245   C247    1.404   .     D
C245   H555    1.083   .     S
C246   C248    1.404   .     D
C246   H556    1.083   .     S
C247   C249    1.403   .     S
C247   C363    1.490   .     S
C248   C250    1.403   .     S
C248   C364    1.490   .     S
C249   C251    1.396   .     D
C249   H557    1.083   .     S
C250   C252    1.396   .     D
C250   H558    1.083   .     S
C251   H559    1.083   .     S
C252   H560    1.083   .     S
C253   C259    1.546   .     S
C253   O317    1.411   .     S
C254   C260    1.546   .     S
C254   O318    1.411   .     S
C255   N257    1.442   .     S
C255   C319    1.410   .     D
C255   C327    1.402   .     S
C256   N258    1.442   .     S
C256   C320    1.410   .     D
C256   C328    1.402   .     S
C259   C261    1.410   .     D
C259   C269    1.411   .     S
C260   C262    1.410   .     S
C260   C270    1.411   .     D
C261   C263    1.398   .     S
C261   H561    1.083   .     S
C262   C264    1.398   .     D
C262   H562    1.083   .     S
C263   C265    1.404   .     D
C263   H563    1.083   .     S
C264   C266    1.404   .     S
C264   H564    1.083   .     S
C265   C267    1.405   .     S
C265   C365    1.490   .     S
C266   C268    1.405   .     D
C266   C366    1.490   .     S
C267   C269    1.399   .     D
C267   H565    1.083   .     S
C268   C270    1.399   .     S
C268   H566    1.083   .     S
C269   H567    1.082   .     S
C270   H568    1.082   .     S
C271   H569    1.111   .     S
C271   H571    1.112   .     S
C271   H573    1.110   .     S
C272   H570    1.111   .     S
C272   H572    1.112   .     S
C272   H574    1.110   .     S
N273   C275    1.441   .     S
N273   C371    1.301   .     D
N274   C276    1.441   .     S
N274   C372    1.301   .     D
C275   C349    1.401   .     D
C275   C357    1.411   .     S
C276   C350    1.401   .     S
C276   C358    1.411   .     D
C277   C279    1.412   .     D
C277   C287    1.415   .     S
C277   C289    1.553   .     S
C278   C280    1.412   .     S
C278   C288    1.415   .     D
C278   C290    1.553   .     S
C279   C281    1.396   .     S
C279   H575    1.082   .     S
C280   C282    1.396   .     D
C280   H576    1.082   .     S
C281   C283    1.402   .     D
C281   H577    1.083   .     S
C282   C284    1.402   .     S
C282   H578    1.083   .     S
C283   C285    1.405   .     S
C283   C367    1.489   .     S
C284   C286    1.405   .     D
C284   C368    1.489   .     S
C285   C287    1.402   .     D
C285   H579    1.083   .     S
C286   C288    1.402   .     S
C286   H580    1.083   .     S
C287   H581    1.079   .     S
C288   H582    1.079   .     S
C289   C295    1.546   .     S
C289   O313    1.412   .     S
C290   C296    1.546   .     S
C290   O314    1.412   .     S
C291   N293    1.442   .     S
C291   C329    1.410   .     D
C291   C337    1.402   .     S
C292   N294    1.442   .     S
C292   C330    1.410   .     S
C292   C338    1.402   .     D
C295   C297    1.411   .     S
C295   C305    1.410   .     D
C296   C298    1.411   .     D
C296   C306    1.410   .     S
C297   C299    1.399   .     D
C297   H583    1.082   .     S
C298   C300    1.399   .     S
C298   H584    1.082   .     S
C299   C301    1.405   .     S
C299   H585    1.083   .     S
C300   C302    1.405   .     D
C300   H586    1.083   .     S
C301   C303    1.405   .     D
C301   C369    1.489   .     S
C302   C304    1.405   .     S
C302   C370    1.489   .     S
C303   C305    1.398   .     S
C303   H587    1.083   .     S
C304   C306    1.398   .     D
C304   H588    1.083   .     S
C305   H589    1.082   .     S
C306   H590    1.082   .     S
N307   C309    1.441   .     S
N308   C310    1.441   .     S
C309   C339    1.401   .     S
C309   C347    1.411   .     D
C310   C340    1.401   .     D
C310   C348    1.411   .     S
O313   H591    0.992   .     S
O314   H592    0.992   .     S
O317   H593    0.992   .     S
O318   H594    0.992   .     S
C319   C321    1.399   .     S
C319   H595    1.081   .     S
C320   C322    1.399   .     S
C320   H596    1.081   .     S
C321   C323    1.403   .     D
C321   H597    1.083   .     S
C322   C324    1.403   .     D
C322   H598    1.083   .     S
C323   C325    1.404   .     S
C324   C326    1.404   .     S
C325   C327    1.401   .     D
C325   H599    1.083   .     S
C326   C328    1.401   .     D
C326   H600    1.083   1_545 S
C327   H601    1.083   .     S
C328   H602    1.083   .     S
C329   C331    1.399   .     S
C329   H603    1.080   .     S
C330   C332    1.399   .     D
C330   H604    1.080   .     S
C331   C333    1.404   1_565 D
C331   H605    1.083   .     S
C332   C334    1.404   .     S
C332   H606    1.083   .     S
C333   C331    1.404   1_545 D
C333   C335    1.403   .     S
C333   C361    1.510   .     S
C334   C336    1.403   .     D
C334   C362    1.510   .     S
C335   C337    1.401   1_545 D
C335   H607    1.083   .     S
C336   C338    1.401   .     S
C336   H608    1.083   .     S
C337   C335    1.401   1_565 D
C337   H609    1.083   .     S
C338   H610    1.083   .     S
C339   C341    1.398   .     D
C339   H611    1.083   .     S
C340   C342    1.398   .     S
C340   H612    1.083   .     S
C341   C343    1.403   .     S
C341   H613    1.083   .     S
C342   C344    1.403   .     D
C342   H614    1.083   .     S
C343   C345    1.404   .     D
C344   C346    1.404   .     S
C345   C347    1.401   .     S
C345   H615    1.083   .     S
C346   C348    1.401   .     D
C346   H616    1.083   .     S
C347   H617    1.080   .     S
C348   H618    1.080   .     S
C349   C351    1.398   .     S
C349   H619    1.083   .     S
C350   C352    1.398   .     D
C350   H620    1.083   .     S
C351   C353    1.403   .     D
C351   H621    1.083   .     S
C352   C354    1.403   .     S
C352   H622    1.083   .     S
C353   C355    1.404   .     S
C353   C359    1.509   1_565 S
C354   C356    1.404   .     D
C354   C360    1.509   .     S
C355   C357    1.402   .     D
C355   H623    1.083   1_565 S
C356   C358    1.402   .     S
C356   H624    1.083   .     S
C357   H625    1.080   .     S
C358   H626    1.080   .     S
C359   C353    1.509   1_545 S
C359   H627    1.112   .     S
C359   H629    1.112   1_545 S
C360   H628    1.112   .     S
C360   H630    1.112   .     S
C361   H631    1.112   .     S
C361   H633    1.112   .     S
C362   H632    1.112   .     S
C362   H634    1.112   .     S
C371   H635    1.081   .     S
C372   H636    1.081   .     S
H498   C174    1.083   1_545 S
H504   C178    1.112   1_565 S
H600   C326    1.083   1_565 S
H623   C355    1.083   1_545 S
H629   C359    1.112   1_565 S
