data_725
_audit_creation_date              2023-09-08
_audit_creation_method            'Materials Studio'
_symmetry_space_group_name_H-M    'P1'
_symmetry_Int_Tables_number       1
_symmetry_cell_setting            triclinic
loop_
_symmetry_equiv_pos_as_xyz
  x,y,z
_cell_length_a                    32.7300
_cell_length_b                    32.7300
_cell_length_c                    32.7300
_cell_angle_alpha                 90.0000
_cell_angle_beta                  90.0000
_cell_angle_gamma                 90.0000
loop_
_atom_site_label
_atom_site_type_symbol
_atom_site_fract_x
_atom_site_fract_y
_atom_site_fract_z
_atom_site_U_iso_or_equiv
_atom_site_adp_type
_atom_site_occupancy
C1     C     0.25910   0.70526   0.82535   0.00000  Uiso   1.00
N1     N     0.40493   0.66233   0.75350   0.00000  Uiso   1.00
C2     C     0.26238   0.58460   0.69709   0.00000  Uiso   1.00
C3     C     0.25985   0.67165   0.79426   0.00000  Uiso   1.00
N2     N     0.10580   0.74042   0.84419   0.00000  Uiso   1.00
C4     C     0.19288   0.90646   0.74771   0.00000  Uiso   1.00
N3     N     0.25688   0.74434   0.81093   0.00000  Uiso   1.00
N4     N     0.31697   0.75444   0.74415   0.00000  Uiso   1.00
C5     C     0.47974   0.50468   0.75192   0.00000  Uiso   1.00
C6     C     0.16420   0.74447   0.77754   0.00000  Uiso   1.00
C7     C     0.12171   0.74452   0.77215   0.00000  Uiso   1.00
C8     C     0.10602   0.74284   0.73230   0.00000  Uiso   1.00
C9     C     0.13231   0.74072   0.69872   0.00000  Uiso   1.00
C10    C     0.27685   0.74376   0.65593   0.00000  Uiso   1.00
C11    C     0.26894   0.73828   0.61419   0.00000  Uiso   1.00
C12    C     0.22835   0.73308   0.60152   0.00000  Uiso   1.00
C13    C     0.19650   0.73433   0.63011   0.00000  Uiso   1.00
C14    C     0.42817   0.62532   0.75440   0.00000  Uiso   1.00
C15    C     0.62065   0.57987   0.75583   0.00000  Uiso   1.00
C16    C     0.54243   0.61561   0.27545   0.00000  Uiso   1.00
C17    C     0.52450   0.57671   0.27600   0.00000  Uiso   1.00
C18    C     0.53531   0.54750   0.24640   0.00000  Uiso   1.00
C19    C     0.56392   0.55792   0.21623   0.00000  Uiso   1.00
C20    C     0.58220   0.59629   0.21614   0.00000  Uiso   1.00
C21    C     0.38190   0.55016   0.27502   0.00000  Uiso   1.00
C22    C     0.41554   0.52412   0.27703   0.00000  Uiso   1.00
C23    C     0.44725   0.52714   0.24829   0.00000  Uiso   1.00
C24    C     0.44513   0.55751   0.21799   0.00000  Uiso   1.00
C25    C     0.41172   0.58418   0.21651   0.00000  Uiso   1.00
H1     H     0.27500   0.55435   0.70166   0.00000  Uiso   1.00
H2     H     0.19882   0.93823   0.75497   0.00000  Uiso   1.00
H3     H     0.17725   0.74660   0.80776   0.00000  Uiso   1.00
H4     H     0.07333   0.74316   0.72717   0.00000  Uiso   1.00
H5     H     0.11937   0.73968   0.66840   0.00000  Uiso   1.00
H6     H     0.30783   0.74666   0.66681   0.00000  Uiso   1.00
H7     H     0.22131   0.72842   0.56953   0.00000  Uiso   1.00
H8     H     0.16550   0.73021   0.61959   0.00000  Uiso   1.00
H9     H     0.53475   0.63716   0.29930   0.00000  Uiso   1.00
H10    H     0.50325   0.56899   0.30014   0.00000  Uiso   1.00
H11    H     0.57293   0.53584   0.19328   0.00000  Uiso   1.00
H12    H     0.60522   0.60323   0.19341   0.00000  Uiso   1.00
H13    H     0.35783   0.54698   0.29747   0.00000  Uiso   1.00
H14    H     0.41648   0.50090   0.30059   0.00000  Uiso   1.00
H15    H     0.46867   0.55985   0.19488   0.00000  Uiso   1.00
H16    H     0.41024   0.60716   0.19276   0.00000  Uiso   1.00
C26    C     0.75910   0.20526   0.32535   0.00000  Uiso   1.00
N5     N     0.90493   0.16233   0.25350   0.00000  Uiso   1.00
C27    C     0.76238   0.08460   0.19709   0.00000  Uiso   1.00
C28    C     0.75985   0.17165   0.29426   0.00000  Uiso   1.00
N6     N     0.60580   0.24042   0.34419   0.00000  Uiso   1.00
C29    C     0.69288   0.40646   0.24771   0.00000  Uiso   1.00
N7     N     0.75688   0.24434   0.31093   0.00000  Uiso   1.00
N8     N     0.81697   0.25444   0.24415   0.00000  Uiso   1.00
C30    C     0.97974   0.00468   0.25192   0.00000  Uiso   1.00
C31    C     0.66420   0.24447   0.27754   0.00000  Uiso   1.00
C32    C     0.62171   0.24452   0.27215   0.00000  Uiso   1.00
C33    C     0.60602   0.24284   0.23230   0.00000  Uiso   1.00
C34    C     0.63231   0.24072   0.19872   0.00000  Uiso   1.00
C35    C     0.77685   0.24376   0.15593   0.00000  Uiso   1.00
C36    C     0.76894   0.23828   0.11419   0.00000  Uiso   1.00
C37    C     0.72835   0.23308   0.10152   0.00000  Uiso   1.00
C38    C     0.69650   0.23433   0.13011   0.00000  Uiso   1.00
C39    C     0.92817   0.12532   0.25440   0.00000  Uiso   1.00
C40    C     0.12065   0.07987   0.25583   0.00000  Uiso   1.00
C41    C     0.04243   0.11561   0.77545   0.00000  Uiso   1.00
C42    C     0.02450   0.07671   0.77600   0.00000  Uiso   1.00
C43    C     0.03531   0.04750   0.74640   0.00000  Uiso   1.00
C44    C     0.06392   0.05792   0.71623   0.00000  Uiso   1.00
C45    C     0.08220   0.09629   0.71614   0.00000  Uiso   1.00
C46    C     0.88190   0.05016   0.77502   0.00000  Uiso   1.00
C47    C     0.91554   0.02412   0.77703   0.00000  Uiso   1.00
C48    C     0.94725   0.02714   0.74829   0.00000  Uiso   1.00
C49    C     0.94513   0.05751   0.71799   0.00000  Uiso   1.00
C50    C     0.91172   0.08418   0.71651   0.00000  Uiso   1.00
H17    H     0.77500   0.05435   0.20166   0.00000  Uiso   1.00
H18    H     0.69882   0.43823   0.25497   0.00000  Uiso   1.00
H19    H     0.67725   0.24660   0.30776   0.00000  Uiso   1.00
H20    H     0.57333   0.24316   0.22717   0.00000  Uiso   1.00
H21    H     0.61937   0.23968   0.16840   0.00000  Uiso   1.00
H22    H     0.80783   0.24666   0.16681   0.00000  Uiso   1.00
H23    H     0.72131   0.22842   0.06953   0.00000  Uiso   1.00
H24    H     0.66550   0.23021   0.11959   0.00000  Uiso   1.00
H25    H     0.03475   0.13716   0.79930   0.00000  Uiso   1.00
H26    H     0.00325   0.06899   0.80014   0.00000  Uiso   1.00
H27    H     0.07293   0.03584   0.69328   0.00000  Uiso   1.00
H28    H     0.10522   0.10323   0.69341   0.00000  Uiso   1.00
H29    H     0.85783   0.04698   0.79747   0.00000  Uiso   1.00
H30    H     0.91648   0.00090   0.80059   0.00000  Uiso   1.00
H31    H     0.96867   0.05985   0.69488   0.00000  Uiso   1.00
H32    H     0.91024   0.10716   0.69276   0.00000  Uiso   1.00
C51    C     0.74090   0.29474   0.82535   0.00000  Uiso   1.00
N9     N     0.59507   0.33767   0.75350   0.00000  Uiso   1.00
C52    C     0.73762   0.41540   0.69709   0.00000  Uiso   1.00
C53    C     0.74015   0.32835   0.79426   0.00000  Uiso   1.00
N10    N     0.89420   0.25958   0.84419   0.00000  Uiso   1.00
C54    C     0.80712   0.09354   0.74771   0.00000  Uiso   1.00
N11    N     0.74312   0.25566   0.81093   0.00000  Uiso   1.00
N12    N     0.68303   0.24556   0.74415   0.00000  Uiso   1.00
C55    C     0.52026   0.49532   0.75192   0.00000  Uiso   1.00
C56    C     0.83580   0.25553   0.77754   0.00000  Uiso   1.00
C57    C     0.87829   0.25548   0.77215   0.00000  Uiso   1.00
C58    C     0.89398   0.25716   0.73230   0.00000  Uiso   1.00
C59    C     0.86769   0.25928   0.69872   0.00000  Uiso   1.00
C60    C     0.72315   0.25624   0.65593   0.00000  Uiso   1.00
C61    C     0.73106   0.26172   0.61419   0.00000  Uiso   1.00
C62    C     0.77165   0.26692   0.60152   0.00000  Uiso   1.00
C63    C     0.80350   0.26567   0.63011   0.00000  Uiso   1.00
C64    C     0.57183   0.37468   0.75440   0.00000  Uiso   1.00
C65    C     0.37935   0.42013   0.75583   0.00000  Uiso   1.00
C66    C     0.45757   0.38439   0.27545   0.00000  Uiso   1.00
C67    C     0.47550   0.42329   0.27600   0.00000  Uiso   1.00
C68    C     0.46469   0.45250   0.24640   0.00000  Uiso   1.00
C69    C     0.43608   0.44208   0.21623   0.00000  Uiso   1.00
C70    C     0.41780   0.40371   0.21614   0.00000  Uiso   1.00
C71    C     0.61810   0.44984   0.27502   0.00000  Uiso   1.00
C72    C     0.58446   0.47588   0.27703   0.00000  Uiso   1.00
C73    C     0.55275   0.47286   0.24829   0.00000  Uiso   1.00
C74    C     0.55487   0.44249   0.21799   0.00000  Uiso   1.00
C75    C     0.58828   0.41582   0.21651   0.00000  Uiso   1.00
H33    H     0.72500   0.44565   0.70166   0.00000  Uiso   1.00
H34    H     0.80118   0.06177   0.75497   0.00000  Uiso   1.00
H35    H     0.82275   0.25340   0.80776   0.00000  Uiso   1.00
H36    H     0.92667   0.25684   0.72717   0.00000  Uiso   1.00
H37    H     0.88063   0.26032   0.66840   0.00000  Uiso   1.00
H38    H     0.69217   0.25334   0.66681   0.00000  Uiso   1.00
H39    H     0.77869   0.27158   0.56953   0.00000  Uiso   1.00
H40    H     0.83450   0.26979   0.61959   0.00000  Uiso   1.00
H41    H     0.46525   0.36284   0.29930   0.00000  Uiso   1.00
H42    H     0.49675   0.43101   0.30014   0.00000  Uiso   1.00
H43    H     0.42707   0.46416   0.19328   0.00000  Uiso   1.00
H44    H     0.39478   0.39677   0.19341   0.00000  Uiso   1.00
H45    H     0.64217   0.45302   0.29747   0.00000  Uiso   1.00
H46    H     0.58352   0.49910   0.30059   0.00000  Uiso   1.00
H47    H     0.53133   0.44015   0.19488   0.00000  Uiso   1.00
H48    H     0.58976   0.39284   0.19276   0.00000  Uiso   1.00
C76    C     0.24090   0.79474   0.32535   0.00000  Uiso   1.00
N13    N     0.09507   0.83767   0.25350   0.00000  Uiso   1.00
C77    C     0.23762   0.91540   0.19709   0.00000  Uiso   1.00
C78    C     0.24015   0.82835   0.29426   0.00000  Uiso   1.00
N14    N     0.39420   0.75958   0.34419   0.00000  Uiso   1.00
C79    C     0.30712   0.59354   0.24771   0.00000  Uiso   1.00
N15    N     0.24312   0.75566   0.31093   0.00000  Uiso   1.00
N16    N     0.18303   0.74556   0.24415   0.00000  Uiso   1.00
C80    C     0.02026   0.99532   0.25192   0.00000  Uiso   1.00
C81    C     0.33580   0.75553   0.27754   0.00000  Uiso   1.00
C82    C     0.37829   0.75548   0.27215   0.00000  Uiso   1.00
C83    C     0.39398   0.75716   0.23230   0.00000  Uiso   1.00
C84    C     0.36769   0.75928   0.19872   0.00000  Uiso   1.00
C85    C     0.22315   0.75624   0.15593   0.00000  Uiso   1.00
C86    C     0.23106   0.76172   0.11419   0.00000  Uiso   1.00
C87    C     0.27165   0.76692   0.10152   0.00000  Uiso   1.00
C88    C     0.30350   0.76567   0.13011   0.00000  Uiso   1.00
C89    C     0.07183   0.87468   0.25440   0.00000  Uiso   1.00
C90    C     0.87935   0.92013   0.25583   0.00000  Uiso   1.00
C91    C     0.95757   0.88439   0.77545   0.00000  Uiso   1.00
C92    C     0.97550   0.92329   0.77600   0.00000  Uiso   1.00
C93    C     0.96469   0.95250   0.74640   0.00000  Uiso   1.00
C94    C     0.93608   0.94208   0.71623   0.00000  Uiso   1.00
C95    C     0.91780   0.90371   0.71614   0.00000  Uiso   1.00
C96    C     0.11810   0.94984   0.77502   0.00000  Uiso   1.00
C97    C     0.08446   0.97588   0.77703   0.00000  Uiso   1.00
C98    C     0.05275   0.97286   0.74829   0.00000  Uiso   1.00
C99    C     0.05487   0.94249   0.71799   0.00000  Uiso   1.00
C100   C     0.08828   0.91582   0.71651   0.00000  Uiso   1.00
H49    H     0.22500   0.94565   0.20166   0.00000  Uiso   1.00
H50    H     0.30118   0.56177   0.25497   0.00000  Uiso   1.00
H51    H     0.32275   0.75340   0.30776   0.00000  Uiso   1.00
H52    H     0.42667   0.75684   0.22717   0.00000  Uiso   1.00
H53    H     0.38063   0.76032   0.16840   0.00000  Uiso   1.00
H54    H     0.19217   0.75334   0.16681   0.00000  Uiso   1.00
H55    H     0.27869   0.77158   0.06953   0.00000  Uiso   1.00
H56    H     0.33450   0.76979   0.11959   0.00000  Uiso   1.00
H57    H     0.96525   0.86284   0.79930   0.00000  Uiso   1.00
H58    H     0.99675   0.93101   0.80014   0.00000  Uiso   1.00
H59    H     0.92707   0.96416   0.69328   0.00000  Uiso   1.00
H60    H     0.89478   0.89677   0.69341   0.00000  Uiso   1.00
H61    H     0.14217   0.95302   0.79747   0.00000  Uiso   1.00
H62    H     0.08352   0.99910   0.80059   0.00000  Uiso   1.00
H63    H     0.03133   0.94015   0.69488   0.00000  Uiso   1.00
H64    H     0.08976   0.89284   0.69276   0.00000  Uiso   1.00
C101   C     0.74090   0.70526   0.17465   0.00000  Uiso   1.00
N17    N     0.59507   0.66233   0.24650   0.00000  Uiso   1.00
C102   C     0.73762   0.58460   0.30291   0.00000  Uiso   1.00
C103   C     0.74015   0.67165   0.20574   0.00000  Uiso   1.00
N18    N     0.89420   0.74042   0.15581   0.00000  Uiso   1.00
C104   C     0.80712   0.90646   0.25229   0.00000  Uiso   1.00
N19    N     0.74312   0.74434   0.18907   0.00000  Uiso   1.00
N20    N     0.68303   0.75444   0.25585   0.00000  Uiso   1.00
C105   C     0.52026   0.50468   0.24808   0.00000  Uiso   1.00
C106   C     0.83580   0.74447   0.22246   0.00000  Uiso   1.00
C107   C     0.87829   0.74452   0.22785   0.00000  Uiso   1.00
C108   C     0.89398   0.74284   0.26770   0.00000  Uiso   1.00
C109   C     0.86769   0.74072   0.30128   0.00000  Uiso   1.00
C110   C     0.72315   0.74376   0.34407   0.00000  Uiso   1.00
C111   C     0.73106   0.73828   0.38581   0.00000  Uiso   1.00
C112   C     0.77165   0.73308   0.39848   0.00000  Uiso   1.00
C113   C     0.80350   0.73433   0.36989   0.00000  Uiso   1.00
C114   C     0.57183   0.62532   0.24560   0.00000  Uiso   1.00
C115   C     0.37935   0.57987   0.24417   0.00000  Uiso   1.00
C116   C     0.45757   0.61561   0.72455   0.00000  Uiso   1.00
C117   C     0.47550   0.57671   0.72400   0.00000  Uiso   1.00
C118   C     0.46469   0.54750   0.75360   0.00000  Uiso   1.00
C119   C     0.43608   0.55792   0.78377   0.00000  Uiso   1.00
C120   C     0.41780   0.59629   0.78386   0.00000  Uiso   1.00
C121   C     0.61810   0.55016   0.72498   0.00000  Uiso   1.00
C122   C     0.58446   0.52412   0.72297   0.00000  Uiso   1.00
C123   C     0.55275   0.52714   0.75171   0.00000  Uiso   1.00
C124   C     0.55487   0.55751   0.78201   0.00000  Uiso   1.00
C125   C     0.58828   0.58418   0.78349   0.00000  Uiso   1.00
H65    H     0.72500   0.55435   0.29834   0.00000  Uiso   1.00
H66    H     0.80118   0.93823   0.24503   0.00000  Uiso   1.00
H67    H     0.82275   0.74660   0.19224   0.00000  Uiso   1.00
H68    H     0.92667   0.74316   0.27283   0.00000  Uiso   1.00
H69    H     0.88063   0.73968   0.33160   0.00000  Uiso   1.00
H70    H     0.69217   0.74666   0.33319   0.00000  Uiso   1.00
H71    H     0.77869   0.72842   0.43047   0.00000  Uiso   1.00
H72    H     0.83450   0.73021   0.38041   0.00000  Uiso   1.00
H73    H     0.46525   0.63716   0.70070   0.00000  Uiso   1.00
H74    H     0.49675   0.56899   0.69986   0.00000  Uiso   1.00
H75    H     0.42707   0.53584   0.80672   0.00000  Uiso   1.00
H76    H     0.39478   0.60323   0.80659   0.00000  Uiso   1.00
H77    H     0.64217   0.54698   0.70253   0.00000  Uiso   1.00
H78    H     0.58352   0.50090   0.69941   0.00000  Uiso   1.00
H79    H     0.53133   0.55985   0.80512   0.00000  Uiso   1.00
H80    H     0.58976   0.60716   0.80724   0.00000  Uiso   1.00
C126   C     0.24090   0.20526   0.67465   0.00000  Uiso   1.00
N21    N     0.09507   0.16233   0.74650   0.00000  Uiso   1.00
C127   C     0.23762   0.08460   0.80291   0.00000  Uiso   1.00
C128   C     0.24015   0.17165   0.70574   0.00000  Uiso   1.00
N22    N     0.39420   0.24042   0.65581   0.00000  Uiso   1.00
C129   C     0.30712   0.40646   0.75229   0.00000  Uiso   1.00
N23    N     0.24312   0.24434   0.68907   0.00000  Uiso   1.00
N24    N     0.18303   0.25444   0.75585   0.00000  Uiso   1.00
C130   C     0.02026   0.00468   0.74808   0.00000  Uiso   1.00
C131   C     0.33580   0.24447   0.72246   0.00000  Uiso   1.00
C132   C     0.37829   0.24452   0.72785   0.00000  Uiso   1.00
C133   C     0.39398   0.24284   0.76770   0.00000  Uiso   1.00
C134   C     0.36769   0.24072   0.80128   0.00000  Uiso   1.00
C135   C     0.22315   0.24376   0.84407   0.00000  Uiso   1.00
C136   C     0.23106   0.23828   0.88581   0.00000  Uiso   1.00
C137   C     0.27165   0.23308   0.89848   0.00000  Uiso   1.00
C138   C     0.30350   0.23433   0.86989   0.00000  Uiso   1.00
C139   C     0.07183   0.12532   0.74560   0.00000  Uiso   1.00
C140   C     0.87935   0.07987   0.74417   0.00000  Uiso   1.00
C141   C     0.95757   0.11561   0.22455   0.00000  Uiso   1.00
C142   C     0.97550   0.07671   0.22400   0.00000  Uiso   1.00
C143   C     0.96469   0.04750   0.25360   0.00000  Uiso   1.00
C144   C     0.93608   0.05792   0.28377   0.00000  Uiso   1.00
C145   C     0.91780   0.09629   0.28386   0.00000  Uiso   1.00
C146   C     0.11810   0.05016   0.22498   0.00000  Uiso   1.00
C147   C     0.08446   0.02412   0.22297   0.00000  Uiso   1.00
C148   C     0.05275   0.02714   0.25171   0.00000  Uiso   1.00
C149   C     0.05487   0.05751   0.28201   0.00000  Uiso   1.00
C150   C     0.08828   0.08418   0.28349   0.00000  Uiso   1.00
H81    H     0.22500   0.05435   0.79834   0.00000  Uiso   1.00
H82    H     0.30118   0.43823   0.74503   0.00000  Uiso   1.00
H83    H     0.32275   0.24660   0.69224   0.00000  Uiso   1.00
H84    H     0.42667   0.24316   0.77283   0.00000  Uiso   1.00
H85    H     0.38063   0.23968   0.83160   0.00000  Uiso   1.00
H86    H     0.19217   0.24666   0.83319   0.00000  Uiso   1.00
H87    H     0.27869   0.22842   0.93047   0.00000  Uiso   1.00
H88    H     0.33450   0.23021   0.88041   0.00000  Uiso   1.00
H89    H     0.96525   0.13716   0.20070   0.00000  Uiso   1.00
H90    H     0.99675   0.06899   0.19986   0.00000  Uiso   1.00
H91    H     0.92707   0.03584   0.30672   0.00000  Uiso   1.00
H92    H     0.89478   0.10323   0.30659   0.00000  Uiso   1.00
H93    H     0.14217   0.04698   0.20253   0.00000  Uiso   1.00
H94    H     0.08352   0.00090   0.19941   0.00000  Uiso   1.00
H95    H     0.03133   0.05985   0.30512   0.00000  Uiso   1.00
H96    H     0.08976   0.10716   0.30724   0.00000  Uiso   1.00
C151   C     0.25910   0.29474   0.17465   0.00000  Uiso   1.00
N25    N     0.40493   0.33767   0.24650   0.00000  Uiso   1.00
C152   C     0.26238   0.41540   0.30291   0.00000  Uiso   1.00
C153   C     0.25985   0.32835   0.20574   0.00000  Uiso   1.00
N26    N     0.10580   0.25958   0.15581   0.00000  Uiso   1.00
C154   C     0.19288   0.09354   0.25229   0.00000  Uiso   1.00
N27    N     0.25688   0.25566   0.18907   0.00000  Uiso   1.00
N28    N     0.31697   0.24556   0.25585   0.00000  Uiso   1.00
C155   C     0.47974   0.49532   0.24808   0.00000  Uiso   1.00
C156   C     0.16420   0.25553   0.22246   0.00000  Uiso   1.00
C157   C     0.12171   0.25548   0.22785   0.00000  Uiso   1.00
C158   C     0.10602   0.25716   0.26770   0.00000  Uiso   1.00
C159   C     0.13231   0.25928   0.30128   0.00000  Uiso   1.00
C160   C     0.27685   0.25624   0.34407   0.00000  Uiso   1.00
C161   C     0.26894   0.26172   0.38581   0.00000  Uiso   1.00
C162   C     0.22835   0.26692   0.39848   0.00000  Uiso   1.00
C163   C     0.19650   0.26567   0.36989   0.00000  Uiso   1.00
C164   C     0.42817   0.37468   0.24560   0.00000  Uiso   1.00
C165   C     0.62065   0.42013   0.24417   0.00000  Uiso   1.00
C166   C     0.54243   0.38439   0.72455   0.00000  Uiso   1.00
C167   C     0.52450   0.42329   0.72400   0.00000  Uiso   1.00
C168   C     0.53531   0.45250   0.75360   0.00000  Uiso   1.00
C169   C     0.56392   0.44208   0.78377   0.00000  Uiso   1.00
C170   C     0.58220   0.40371   0.78386   0.00000  Uiso   1.00
C171   C     0.38190   0.44984   0.72498   0.00000  Uiso   1.00
C172   C     0.41554   0.47588   0.72297   0.00000  Uiso   1.00
C173   C     0.44725   0.47286   0.75171   0.00000  Uiso   1.00
C174   C     0.44513   0.44249   0.78201   0.00000  Uiso   1.00
C175   C     0.41172   0.41582   0.78349   0.00000  Uiso   1.00
H97    H     0.27500   0.44565   0.29834   0.00000  Uiso   1.00
H98    H     0.19882   0.06177   0.24503   0.00000  Uiso   1.00
H99    H     0.17725   0.25340   0.19224   0.00000  Uiso   1.00
H100   H     0.07333   0.25684   0.27283   0.00000  Uiso   1.00
H101   H     0.11937   0.26032   0.33160   0.00000  Uiso   1.00
H102   H     0.30783   0.25334   0.33319   0.00000  Uiso   1.00
H103   H     0.22131   0.27158   0.43047   0.00000  Uiso   1.00
H104   H     0.16550   0.26979   0.38041   0.00000  Uiso   1.00
H105   H     0.53475   0.36284   0.70070   0.00000  Uiso   1.00
H106   H     0.50325   0.43101   0.69986   0.00000  Uiso   1.00
H107   H     0.57293   0.46416   0.80672   0.00000  Uiso   1.00
H108   H     0.60522   0.39677   0.80659   0.00000  Uiso   1.00
H109   H     0.35783   0.45302   0.70253   0.00000  Uiso   1.00
H110   H     0.41648   0.49910   0.69941   0.00000  Uiso   1.00
H111   H     0.46867   0.44015   0.80512   0.00000  Uiso   1.00
H112   H     0.41024   0.39284   0.80724   0.00000  Uiso   1.00
C176   C     0.75910   0.79474   0.67465   0.00000  Uiso   1.00
N29    N     0.90493   0.83767   0.74650   0.00000  Uiso   1.00
C177   C     0.76238   0.91540   0.80291   0.00000  Uiso   1.00
C178   C     0.75985   0.82835   0.70574   0.00000  Uiso   1.00
N30    N     0.60580   0.75958   0.65581   0.00000  Uiso   1.00
C179   C     0.69288   0.59354   0.75229   0.00000  Uiso   1.00
N31    N     0.75688   0.75566   0.68907   0.00000  Uiso   1.00
N32    N     0.81697   0.74556   0.75585   0.00000  Uiso   1.00
C180   C     0.97974   0.99532   0.74808   0.00000  Uiso   1.00
C181   C     0.66420   0.75553   0.72246   0.00000  Uiso   1.00
C182   C     0.62171   0.75548   0.72785   0.00000  Uiso   1.00
C183   C     0.60602   0.75716   0.76770   0.00000  Uiso   1.00
C184   C     0.63231   0.75928   0.80128   0.00000  Uiso   1.00
C185   C     0.77685   0.75624   0.84407   0.00000  Uiso   1.00
C186   C     0.76894   0.76172   0.88581   0.00000  Uiso   1.00
C187   C     0.72835   0.76692   0.89848   0.00000  Uiso   1.00
C188   C     0.69650   0.76567   0.86989   0.00000  Uiso   1.00
C189   C     0.92817   0.87468   0.74560   0.00000  Uiso   1.00
C190   C     0.12065   0.92013   0.74417   0.00000  Uiso   1.00
C191   C     0.04243   0.88439   0.22455   0.00000  Uiso   1.00
C192   C     0.02450   0.92329   0.22400   0.00000  Uiso   1.00
C193   C     0.03531   0.95250   0.25360   0.00000  Uiso   1.00
C194   C     0.06392   0.94208   0.28377   0.00000  Uiso   1.00
C195   C     0.08220   0.90371   0.28386   0.00000  Uiso   1.00
C196   C     0.88190   0.94984   0.22498   0.00000  Uiso   1.00
C197   C     0.91554   0.97588   0.22297   0.00000  Uiso   1.00
C198   C     0.94725   0.97286   0.25171   0.00000  Uiso   1.00
C199   C     0.94513   0.94249   0.28201   0.00000  Uiso   1.00
C200   C     0.91172   0.91582   0.28349   0.00000  Uiso   1.00
H113   H     0.77500   0.94565   0.79834   0.00000  Uiso   1.00
H114   H     0.69882   0.56177   0.74503   0.00000  Uiso   1.00
H115   H     0.67725   0.75340   0.69224   0.00000  Uiso   1.00
H116   H     0.57333   0.75684   0.77283   0.00000  Uiso   1.00
H117   H     0.61937   0.76032   0.83160   0.00000  Uiso   1.00
H118   H     0.80783   0.75334   0.83319   0.00000  Uiso   1.00
H119   H     0.72131   0.77158   0.93047   0.00000  Uiso   1.00
H120   H     0.66550   0.76979   0.88041   0.00000  Uiso   1.00
H121   H     0.03475   0.86284   0.20070   0.00000  Uiso   1.00
H122   H     0.00325   0.93101   0.19986   0.00000  Uiso   1.00
H123   H     0.07293   0.96416   0.30672   0.00000  Uiso   1.00
H124   H     0.10522   0.89677   0.30659   0.00000  Uiso   1.00
H125   H     0.85783   0.95302   0.20253   0.00000  Uiso   1.00
H126   H     0.91648   0.99910   0.19941   0.00000  Uiso   1.00
H127   H     0.96867   0.94015   0.30512   0.00000  Uiso   1.00
H128   H     0.91024   0.89284   0.30724   0.00000  Uiso   1.00
C201   C     0.82535   0.25910   0.70526   0.00000  Uiso   1.00
N33    N     0.75350   0.40493   0.66233   0.00000  Uiso   1.00
C202   C     0.69709   0.26238   0.58460   0.00000  Uiso   1.00
C203   C     0.79426   0.25985   0.67165   0.00000  Uiso   1.00
N34    N     0.84419   0.10580   0.74042   0.00000  Uiso   1.00
C204   C     0.74771   0.19288   0.90646   0.00000  Uiso   1.00
N35    N     0.81093   0.25688   0.74434   0.00000  Uiso   1.00
N36    N     0.74415   0.31697   0.75444   0.00000  Uiso   1.00
C205   C     0.75192   0.47974   0.50468   0.00000  Uiso   1.00
C206   C     0.77754   0.16420   0.74447   0.00000  Uiso   1.00
C207   C     0.77215   0.12171   0.74452   0.00000  Uiso   1.00
C208   C     0.73230   0.10602   0.74284   0.00000  Uiso   1.00
C209   C     0.69872   0.13231   0.74072   0.00000  Uiso   1.00
C210   C     0.65593   0.27685   0.74376   0.00000  Uiso   1.00
C211   C     0.61419   0.26894   0.73828   0.00000  Uiso   1.00
C212   C     0.60152   0.22835   0.73308   0.00000  Uiso   1.00
C213   C     0.63011   0.19650   0.73433   0.00000  Uiso   1.00
C214   C     0.75440   0.42817   0.62532   0.00000  Uiso   1.00
C215   C     0.75583   0.62065   0.57987   0.00000  Uiso   1.00
C216   C     0.27545   0.54243   0.61561   0.00000  Uiso   1.00
C217   C     0.27600   0.52450   0.57671   0.00000  Uiso   1.00
C218   C     0.24640   0.53531   0.54750   0.00000  Uiso   1.00
C219   C     0.21623   0.56392   0.55792   0.00000  Uiso   1.00
C220   C     0.21614   0.58220   0.59629   0.00000  Uiso   1.00
C221   C     0.27502   0.38190   0.55016   0.00000  Uiso   1.00
C222   C     0.27703   0.41554   0.52412   0.00000  Uiso   1.00
C223   C     0.24829   0.44725   0.52714   0.00000  Uiso   1.00
C224   C     0.21799   0.44513   0.55751   0.00000  Uiso   1.00
C225   C     0.21651   0.41172   0.58418   0.00000  Uiso   1.00
H129   H     0.70166   0.27500   0.55435   0.00000  Uiso   1.00
H130   H     0.75497   0.19882   0.93823   0.00000  Uiso   1.00
H131   H     0.80776   0.17725   0.74660   0.00000  Uiso   1.00
H132   H     0.72717   0.07333   0.74316   0.00000  Uiso   1.00
H133   H     0.66840   0.11937   0.73968   0.00000  Uiso   1.00
H134   H     0.66681   0.30783   0.74666   0.00000  Uiso   1.00
H135   H     0.56953   0.22131   0.72842   0.00000  Uiso   1.00
H136   H     0.61959   0.16550   0.73021   0.00000  Uiso   1.00
H137   H     0.29930   0.53475   0.63716   0.00000  Uiso   1.00
H138   H     0.30014   0.50325   0.56899   0.00000  Uiso   1.00
H139   H     0.19328   0.57293   0.53584   0.00000  Uiso   1.00
H140   H     0.19341   0.60522   0.60323   0.00000  Uiso   1.00
H141   H     0.29747   0.35783   0.54698   0.00000  Uiso   1.00
H142   H     0.30059   0.41648   0.50090   0.00000  Uiso   1.00
H143   H     0.19488   0.46867   0.55985   0.00000  Uiso   1.00
H144   H     0.19276   0.41024   0.60716   0.00000  Uiso   1.00
C226   C     0.32535   0.75910   0.20526   0.00000  Uiso   1.00
N37    N     0.25350   0.90493   0.16233   0.00000  Uiso   1.00
C227   C     0.19709   0.76238   0.08460   0.00000  Uiso   1.00
C228   C     0.29426   0.75985   0.17165   0.00000  Uiso   1.00
N38    N     0.34419   0.60580   0.24042   0.00000  Uiso   1.00
C229   C     0.24771   0.69288   0.40646   0.00000  Uiso   1.00
N39    N     0.31093   0.75688   0.24434   0.00000  Uiso   1.00
N40    N     0.24415   0.81697   0.25444   0.00000  Uiso   1.00
C230   C     0.25192   0.97974   0.00468   0.00000  Uiso   1.00
C231   C     0.27754   0.66420   0.24447   0.00000  Uiso   1.00
C232   C     0.27215   0.62171   0.24452   0.00000  Uiso   1.00
C233   C     0.23230   0.60602   0.24284   0.00000  Uiso   1.00
C234   C     0.19872   0.63231   0.24072   0.00000  Uiso   1.00
C235   C     0.15593   0.77685   0.24376   0.00000  Uiso   1.00
C236   C     0.11419   0.76894   0.23828   0.00000  Uiso   1.00
C237   C     0.10152   0.72835   0.23308   0.00000  Uiso   1.00
C238   C     0.13011   0.69650   0.23433   0.00000  Uiso   1.00
C239   C     0.25440   0.92817   0.12532   0.00000  Uiso   1.00
C240   C     0.25583   0.12065   0.07987   0.00000  Uiso   1.00
C241   C     0.77545   0.04243   0.11561   0.00000  Uiso   1.00
C242   C     0.77600   0.02450   0.07671   0.00000  Uiso   1.00
C243   C     0.74640   0.03531   0.04750   0.00000  Uiso   1.00
C244   C     0.71623   0.06392   0.05792   0.00000  Uiso   1.00
C245   C     0.71614   0.08220   0.09629   0.00000  Uiso   1.00
C246   C     0.77502   0.88190   0.05016   0.00000  Uiso   1.00
C247   C     0.77703   0.91554   0.02412   0.00000  Uiso   1.00
C248   C     0.74829   0.94725   0.02714   0.00000  Uiso   1.00
C249   C     0.71799   0.94513   0.05751   0.00000  Uiso   1.00
C250   C     0.71651   0.91172   0.08418   0.00000  Uiso   1.00
H145   H     0.20166   0.77500   0.05435   0.00000  Uiso   1.00
H146   H     0.25497   0.69882   0.43823   0.00000  Uiso   1.00
H147   H     0.30776   0.67725   0.24660   0.00000  Uiso   1.00
H148   H     0.22717   0.57333   0.24316   0.00000  Uiso   1.00
H149   H     0.16840   0.61937   0.23968   0.00000  Uiso   1.00
H150   H     0.16681   0.80783   0.24666   0.00000  Uiso   1.00
H151   H     0.06953   0.72131   0.22842   0.00000  Uiso   1.00
H152   H     0.11959   0.66550   0.23021   0.00000  Uiso   1.00
H153   H     0.79930   0.03475   0.13716   0.00000  Uiso   1.00
H154   H     0.80014   0.00325   0.06899   0.00000  Uiso   1.00
H155   H     0.69328   0.07293   0.03584   0.00000  Uiso   1.00
H156   H     0.69341   0.10522   0.10323   0.00000  Uiso   1.00
H157   H     0.79747   0.85783   0.04698   0.00000  Uiso   1.00
H158   H     0.80059   0.91648   0.00090   0.00000  Uiso   1.00
H159   H     0.69488   0.96867   0.05985   0.00000  Uiso   1.00
H160   H     0.69276   0.91024   0.10716   0.00000  Uiso   1.00
C251   C     0.82535   0.74090   0.29474   0.00000  Uiso   1.00
N41    N     0.75350   0.59507   0.33767   0.00000  Uiso   1.00
C252   C     0.69709   0.73762   0.41540   0.00000  Uiso   1.00
C253   C     0.79426   0.74015   0.32835   0.00000  Uiso   1.00
N42    N     0.84419   0.89420   0.25958   0.00000  Uiso   1.00
C254   C     0.74771   0.80712   0.09354   0.00000  Uiso   1.00
N43    N     0.81093   0.74312   0.25566   0.00000  Uiso   1.00
N44    N     0.74415   0.68303   0.24556   0.00000  Uiso   1.00
C255   C     0.75192   0.52026   0.49532   0.00000  Uiso   1.00
C256   C     0.77754   0.83580   0.25553   0.00000  Uiso   1.00
C257   C     0.77215   0.87829   0.25548   0.00000  Uiso   1.00
C258   C     0.73230   0.89398   0.25716   0.00000  Uiso   1.00
C259   C     0.69872   0.86769   0.25928   0.00000  Uiso   1.00
C260   C     0.65593   0.72315   0.25624   0.00000  Uiso   1.00
C261   C     0.61419   0.73106   0.26172   0.00000  Uiso   1.00
C262   C     0.60152   0.77165   0.26692   0.00000  Uiso   1.00
C263   C     0.63011   0.80350   0.26567   0.00000  Uiso   1.00
C264   C     0.75440   0.57183   0.37468   0.00000  Uiso   1.00
C265   C     0.75583   0.37935   0.42013   0.00000  Uiso   1.00
C266   C     0.27545   0.45757   0.38439   0.00000  Uiso   1.00
C267   C     0.27600   0.47550   0.42329   0.00000  Uiso   1.00
C268   C     0.24640   0.46469   0.45250   0.00000  Uiso   1.00
C269   C     0.21623   0.43608   0.44208   0.00000  Uiso   1.00
C270   C     0.21614   0.41780   0.40371   0.00000  Uiso   1.00
C271   C     0.27502   0.61810   0.44984   0.00000  Uiso   1.00
C272   C     0.27703   0.58446   0.47588   0.00000  Uiso   1.00
C273   C     0.24829   0.55275   0.47286   0.00000  Uiso   1.00
C274   C     0.21799   0.55487   0.44249   0.00000  Uiso   1.00
C275   C     0.21651   0.58828   0.41582   0.00000  Uiso   1.00
H161   H     0.70166   0.72500   0.44565   0.00000  Uiso   1.00
H162   H     0.75497   0.80118   0.06177   0.00000  Uiso   1.00
H163   H     0.80776   0.82275   0.25340   0.00000  Uiso   1.00
H164   H     0.72717   0.92667   0.25684   0.00000  Uiso   1.00
H165   H     0.66840   0.88063   0.26032   0.00000  Uiso   1.00
H166   H     0.66681   0.69217   0.25334   0.00000  Uiso   1.00
H167   H     0.56953   0.77869   0.27158   0.00000  Uiso   1.00
H168   H     0.61959   0.83450   0.26979   0.00000  Uiso   1.00
H169   H     0.29930   0.46525   0.36284   0.00000  Uiso   1.00
H170   H     0.30014   0.49675   0.43101   0.00000  Uiso   1.00
H171   H     0.19328   0.42707   0.46416   0.00000  Uiso   1.00
H172   H     0.19341   0.39478   0.39677   0.00000  Uiso   1.00
H173   H     0.29747   0.64217   0.45302   0.00000  Uiso   1.00
H174   H     0.30059   0.58352   0.49910   0.00000  Uiso   1.00
H175   H     0.19488   0.53133   0.44015   0.00000  Uiso   1.00
H176   H     0.19276   0.58976   0.39284   0.00000  Uiso   1.00
C276   C     0.32535   0.24090   0.79474   0.00000  Uiso   1.00
N45    N     0.25350   0.09507   0.83767   0.00000  Uiso   1.00
C277   C     0.19709   0.23762   0.91540   0.00000  Uiso   1.00
C278   C     0.29426   0.24015   0.82835   0.00000  Uiso   1.00
N46    N     0.34419   0.39420   0.75958   0.00000  Uiso   1.00
C279   C     0.24771   0.30712   0.59354   0.00000  Uiso   1.00
N47    N     0.31093   0.24312   0.75566   0.00000  Uiso   1.00
N48    N     0.24415   0.18303   0.74556   0.00000  Uiso   1.00
C280   C     0.25192   0.02026   0.99532   0.00000  Uiso   1.00
C281   C     0.27754   0.33580   0.75553   0.00000  Uiso   1.00
C282   C     0.27215   0.37829   0.75548   0.00000  Uiso   1.00
C283   C     0.23230   0.39398   0.75716   0.00000  Uiso   1.00
C284   C     0.19872   0.36769   0.75928   0.00000  Uiso   1.00
C285   C     0.15593   0.22315   0.75624   0.00000  Uiso   1.00
C286   C     0.11419   0.23106   0.76172   0.00000  Uiso   1.00
C287   C     0.10152   0.27165   0.76692   0.00000  Uiso   1.00
C288   C     0.13011   0.30350   0.76567   0.00000  Uiso   1.00
C289   C     0.25440   0.07183   0.87468   0.00000  Uiso   1.00
C290   C     0.25583   0.87935   0.92013   0.00000  Uiso   1.00
C291   C     0.77545   0.95757   0.88439   0.00000  Uiso   1.00
C292   C     0.77600   0.97550   0.92329   0.00000  Uiso   1.00
C293   C     0.74640   0.96469   0.95250   0.00000  Uiso   1.00
C294   C     0.71623   0.93608   0.94208   0.00000  Uiso   1.00
C295   C     0.71614   0.91780   0.90371   0.00000  Uiso   1.00
C296   C     0.77502   0.11810   0.94984   0.00000  Uiso   1.00
C297   C     0.77703   0.08446   0.97588   0.00000  Uiso   1.00
C298   C     0.74829   0.05275   0.97286   0.00000  Uiso   1.00
C299   C     0.71799   0.05487   0.94249   0.00000  Uiso   1.00
C300   C     0.71651   0.08828   0.91582   0.00000  Uiso   1.00
H177   H     0.20166   0.22500   0.94565   0.00000  Uiso   1.00
H178   H     0.25497   0.30118   0.56177   0.00000  Uiso   1.00
H179   H     0.30776   0.32275   0.75340   0.00000  Uiso   1.00
H180   H     0.22717   0.42667   0.75684   0.00000  Uiso   1.00
H181   H     0.16840   0.38063   0.76032   0.00000  Uiso   1.00
H182   H     0.16681   0.19217   0.75334   0.00000  Uiso   1.00
H183   H     0.06953   0.27869   0.77158   0.00000  Uiso   1.00
H184   H     0.11959   0.33450   0.76979   0.00000  Uiso   1.00
H185   H     0.79930   0.96525   0.86284   0.00000  Uiso   1.00
H186   H     0.80014   0.99675   0.93101   0.00000  Uiso   1.00
H187   H     0.69328   0.92707   0.96416   0.00000  Uiso   1.00
H188   H     0.69341   0.89478   0.89677   0.00000  Uiso   1.00
H189   H     0.79747   0.14217   0.95302   0.00000  Uiso   1.00
H190   H     0.80059   0.08352   0.99910   0.00000  Uiso   1.00
H191   H     0.69488   0.03133   0.94015   0.00000  Uiso   1.00
H192   H     0.69276   0.08976   0.89284   0.00000  Uiso   1.00
C301   C     0.17465   0.74090   0.70526   0.00000  Uiso   1.00
N49    N     0.24650   0.59507   0.66233   0.00000  Uiso   1.00
C302   C     0.30291   0.73762   0.58460   0.00000  Uiso   1.00
C303   C     0.20574   0.74015   0.67165   0.00000  Uiso   1.00
N50    N     0.15581   0.89420   0.74042   0.00000  Uiso   1.00
C304   C     0.25229   0.80712   0.90646   0.00000  Uiso   1.00
N51    N     0.18907   0.74312   0.74434   0.00000  Uiso   1.00
N52    N     0.25585   0.68303   0.75444   0.00000  Uiso   1.00
C305   C     0.24808   0.52026   0.50468   0.00000  Uiso   1.00
C306   C     0.22246   0.83580   0.74447   0.00000  Uiso   1.00
C307   C     0.22785   0.87829   0.74452   0.00000  Uiso   1.00
C308   C     0.26770   0.89398   0.74284   0.00000  Uiso   1.00
C309   C     0.30128   0.86769   0.74072   0.00000  Uiso   1.00
C310   C     0.34407   0.72315   0.74376   0.00000  Uiso   1.00
C311   C     0.38581   0.73106   0.73828   0.00000  Uiso   1.00
C312   C     0.39848   0.77165   0.73308   0.00000  Uiso   1.00
C313   C     0.36989   0.80350   0.73433   0.00000  Uiso   1.00
C314   C     0.24560   0.57183   0.62532   0.00000  Uiso   1.00
C315   C     0.24417   0.37935   0.57987   0.00000  Uiso   1.00
C316   C     0.72455   0.45757   0.61561   0.00000  Uiso   1.00
C317   C     0.72400   0.47550   0.57671   0.00000  Uiso   1.00
C318   C     0.75360   0.46469   0.54750   0.00000  Uiso   1.00
C319   C     0.78377   0.43608   0.55792   0.00000  Uiso   1.00
C320   C     0.78386   0.41780   0.59629   0.00000  Uiso   1.00
C321   C     0.72498   0.61810   0.55016   0.00000  Uiso   1.00
C322   C     0.72297   0.58446   0.52412   0.00000  Uiso   1.00
C323   C     0.75171   0.55275   0.52714   0.00000  Uiso   1.00
C324   C     0.78201   0.55487   0.55751   0.00000  Uiso   1.00
C325   C     0.78349   0.58828   0.58418   0.00000  Uiso   1.00
H193   H     0.29834   0.72500   0.55435   0.00000  Uiso   1.00
H194   H     0.24503   0.80118   0.93823   0.00000  Uiso   1.00
H195   H     0.19224   0.82275   0.74660   0.00000  Uiso   1.00
H196   H     0.27283   0.92667   0.74316   0.00000  Uiso   1.00
H197   H     0.33160   0.88063   0.73968   0.00000  Uiso   1.00
H198   H     0.33319   0.69217   0.74666   0.00000  Uiso   1.00
H199   H     0.43047   0.77869   0.72842   0.00000  Uiso   1.00
H200   H     0.38041   0.83450   0.73021   0.00000  Uiso   1.00
H201   H     0.70070   0.46525   0.63716   0.00000  Uiso   1.00
H202   H     0.69986   0.49675   0.56899   0.00000  Uiso   1.00
H203   H     0.80672   0.42707   0.53584   0.00000  Uiso   1.00
H204   H     0.80659   0.39478   0.60323   0.00000  Uiso   1.00
H205   H     0.70253   0.64217   0.54698   0.00000  Uiso   1.00
H206   H     0.69941   0.58352   0.50090   0.00000  Uiso   1.00
H207   H     0.80512   0.53133   0.55985   0.00000  Uiso   1.00
H208   H     0.80724   0.58976   0.60716   0.00000  Uiso   1.00
C326   C     0.67465   0.24090   0.20526   0.00000  Uiso   1.00
N53    N     0.74650   0.09507   0.16233   0.00000  Uiso   1.00
C327   C     0.80291   0.23762   0.08460   0.00000  Uiso   1.00
C328   C     0.70574   0.24015   0.17165   0.00000  Uiso   1.00
N54    N     0.65581   0.39420   0.24042   0.00000  Uiso   1.00
C329   C     0.75229   0.30712   0.40646   0.00000  Uiso   1.00
N55    N     0.68907   0.24312   0.24434   0.00000  Uiso   1.00
N56    N     0.75585   0.18303   0.25444   0.00000  Uiso   1.00
C330   C     0.74808   0.02026   0.00468   0.00000  Uiso   1.00
C331   C     0.72246   0.33580   0.24447   0.00000  Uiso   1.00
C332   C     0.72785   0.37829   0.24452   0.00000  Uiso   1.00
C333   C     0.76770   0.39398   0.24284   0.00000  Uiso   1.00
C334   C     0.80128   0.36769   0.24072   0.00000  Uiso   1.00
C335   C     0.84407   0.22315   0.24376   0.00000  Uiso   1.00
C336   C     0.88581   0.23106   0.23828   0.00000  Uiso   1.00
C337   C     0.89848   0.27165   0.23308   0.00000  Uiso   1.00
C338   C     0.86989   0.30350   0.23433   0.00000  Uiso   1.00
C339   C     0.74560   0.07183   0.12532   0.00000  Uiso   1.00
C340   C     0.74417   0.87935   0.07987   0.00000  Uiso   1.00
C341   C     0.22455   0.95757   0.11561   0.00000  Uiso   1.00
C342   C     0.22400   0.97550   0.07671   0.00000  Uiso   1.00
C343   C     0.25360   0.96469   0.04750   0.00000  Uiso   1.00
C344   C     0.28377   0.93608   0.05792   0.00000  Uiso   1.00
C345   C     0.28386   0.91780   0.09629   0.00000  Uiso   1.00
C346   C     0.22498   0.11810   0.05016   0.00000  Uiso   1.00
C347   C     0.22297   0.08446   0.02412   0.00000  Uiso   1.00
C348   C     0.25171   0.05275   0.02714   0.00000  Uiso   1.00
C349   C     0.28201   0.05487   0.05751   0.00000  Uiso   1.00
C350   C     0.28349   0.08828   0.08418   0.00000  Uiso   1.00
H209   H     0.79834   0.22500   0.05435   0.00000  Uiso   1.00
H210   H     0.74503   0.30118   0.43823   0.00000  Uiso   1.00
H211   H     0.69224   0.32275   0.24660   0.00000  Uiso   1.00
H212   H     0.77283   0.42667   0.24316   0.00000  Uiso   1.00
H213   H     0.83160   0.38063   0.23968   0.00000  Uiso   1.00
H214   H     0.83319   0.19217   0.24666   0.00000  Uiso   1.00
H215   H     0.93047   0.27869   0.22842   0.00000  Uiso   1.00
H216   H     0.88041   0.33450   0.23021   0.00000  Uiso   1.00
H217   H     0.20070   0.96525   0.13716   0.00000  Uiso   1.00
H218   H     0.19986   0.99675   0.06899   0.00000  Uiso   1.00
H219   H     0.30672   0.92707   0.03584   0.00000  Uiso   1.00
H220   H     0.30659   0.89478   0.10323   0.00000  Uiso   1.00
H221   H     0.20253   0.14217   0.04698   0.00000  Uiso   1.00
H222   H     0.19941   0.08352   0.00090   0.00000  Uiso   1.00
H223   H     0.30512   0.03133   0.05985   0.00000  Uiso   1.00
H224   H     0.30724   0.08976   0.10716   0.00000  Uiso   1.00
C351   C     0.17465   0.25910   0.29474   0.00000  Uiso   1.00
N57    N     0.24650   0.40493   0.33767   0.00000  Uiso   1.00
C352   C     0.30291   0.26238   0.41540   0.00000  Uiso   1.00
C353   C     0.20574   0.25985   0.32835   0.00000  Uiso   1.00
N58    N     0.15581   0.10580   0.25958   0.00000  Uiso   1.00
C354   C     0.25229   0.19288   0.09354   0.00000  Uiso   1.00
N59    N     0.18907   0.25688   0.25566   0.00000  Uiso   1.00
N60    N     0.25585   0.31697   0.24556   0.00000  Uiso   1.00
C355   C     0.24808   0.47974   0.49532   0.00000  Uiso   1.00
C356   C     0.22246   0.16420   0.25553   0.00000  Uiso   1.00
C357   C     0.22785   0.12171   0.25548   0.00000  Uiso   1.00
C358   C     0.26770   0.10602   0.25716   0.00000  Uiso   1.00
C359   C     0.30128   0.13231   0.25928   0.00000  Uiso   1.00
C360   C     0.34407   0.27685   0.25624   0.00000  Uiso   1.00
C361   C     0.38581   0.26894   0.26172   0.00000  Uiso   1.00
C362   C     0.39848   0.22835   0.26692   0.00000  Uiso   1.00
C363   C     0.36989   0.19650   0.26567   0.00000  Uiso   1.00
C364   C     0.24560   0.42817   0.37468   0.00000  Uiso   1.00
C365   C     0.24417   0.62065   0.42013   0.00000  Uiso   1.00
C366   C     0.72455   0.54243   0.38439   0.00000  Uiso   1.00
C367   C     0.72400   0.52450   0.42329   0.00000  Uiso   1.00
C368   C     0.75360   0.53531   0.45250   0.00000  Uiso   1.00
C369   C     0.78377   0.56392   0.44208   0.00000  Uiso   1.00
C370   C     0.78386   0.58220   0.40371   0.00000  Uiso   1.00
C371   C     0.72498   0.38190   0.44984   0.00000  Uiso   1.00
C372   C     0.72297   0.41554   0.47588   0.00000  Uiso   1.00
C373   C     0.75171   0.44725   0.47286   0.00000  Uiso   1.00
C374   C     0.78201   0.44513   0.44249   0.00000  Uiso   1.00
C375   C     0.78349   0.41172   0.41582   0.00000  Uiso   1.00
H225   H     0.29834   0.27500   0.44565   0.00000  Uiso   1.00
H226   H     0.24503   0.19882   0.06177   0.00000  Uiso   1.00
H227   H     0.19224   0.17725   0.25340   0.00000  Uiso   1.00
H228   H     0.27283   0.07333   0.25684   0.00000  Uiso   1.00
H229   H     0.33160   0.11937   0.26032   0.00000  Uiso   1.00
H230   H     0.33319   0.30783   0.25334   0.00000  Uiso   1.00
H231   H     0.43047   0.22131   0.27158   0.00000  Uiso   1.00
H232   H     0.38041   0.16550   0.26979   0.00000  Uiso   1.00
H233   H     0.70070   0.53475   0.36284   0.00000  Uiso   1.00
H234   H     0.69986   0.50325   0.43101   0.00000  Uiso   1.00
H235   H     0.80672   0.57293   0.46416   0.00000  Uiso   1.00
H236   H     0.80659   0.60522   0.39677   0.00000  Uiso   1.00
H237   H     0.70253   0.35783   0.45302   0.00000  Uiso   1.00
H238   H     0.69941   0.41648   0.49910   0.00000  Uiso   1.00
H239   H     0.80512   0.46867   0.44015   0.00000  Uiso   1.00
H240   H     0.80724   0.41024   0.39284   0.00000  Uiso   1.00
C376   C     0.67465   0.75910   0.79474   0.00000  Uiso   1.00
N61    N     0.74650   0.90493   0.83767   0.00000  Uiso   1.00
C377   C     0.80291   0.76238   0.91540   0.00000  Uiso   1.00
C378   C     0.70574   0.75985   0.82835   0.00000  Uiso   1.00
N62    N     0.65581   0.60580   0.75958   0.00000  Uiso   1.00
C379   C     0.75229   0.69288   0.59354   0.00000  Uiso   1.00
N63    N     0.68907   0.75688   0.75566   0.00000  Uiso   1.00
N64    N     0.75585   0.81697   0.74556   0.00000  Uiso   1.00
C380   C     0.74808   0.97974   0.99532   0.00000  Uiso   1.00
C381   C     0.72246   0.66420   0.75553   0.00000  Uiso   1.00
C382   C     0.72785   0.62171   0.75548   0.00000  Uiso   1.00
C383   C     0.76770   0.60602   0.75716   0.00000  Uiso   1.00
C384   C     0.80128   0.63231   0.75928   0.00000  Uiso   1.00
C385   C     0.84407   0.77685   0.75624   0.00000  Uiso   1.00
C386   C     0.88581   0.76894   0.76172   0.00000  Uiso   1.00
C387   C     0.89848   0.72835   0.76692   0.00000  Uiso   1.00
C388   C     0.86989   0.69650   0.76567   0.00000  Uiso   1.00
C389   C     0.74560   0.92817   0.87468   0.00000  Uiso   1.00
C390   C     0.74417   0.12065   0.92013   0.00000  Uiso   1.00
C391   C     0.22455   0.04243   0.88439   0.00000  Uiso   1.00
C392   C     0.22400   0.02450   0.92329   0.00000  Uiso   1.00
C393   C     0.25360   0.03531   0.95250   0.00000  Uiso   1.00
C394   C     0.28377   0.06392   0.94208   0.00000  Uiso   1.00
C395   C     0.28386   0.08220   0.90371   0.00000  Uiso   1.00
C396   C     0.22498   0.88190   0.94984   0.00000  Uiso   1.00
C397   C     0.22297   0.91554   0.97588   0.00000  Uiso   1.00
C398   C     0.25171   0.94725   0.97286   0.00000  Uiso   1.00
C399   C     0.28201   0.94513   0.94249   0.00000  Uiso   1.00
C400   C     0.28349   0.91172   0.91582   0.00000  Uiso   1.00
H241   H     0.79834   0.77500   0.94565   0.00000  Uiso   1.00
H242   H     0.74503   0.69882   0.56177   0.00000  Uiso   1.00
H243   H     0.69224   0.67725   0.75340   0.00000  Uiso   1.00
H244   H     0.77283   0.57333   0.75684   0.00000  Uiso   1.00
H245   H     0.83160   0.61937   0.76032   0.00000  Uiso   1.00
H246   H     0.83319   0.80783   0.75334   0.00000  Uiso   1.00
H247   H     0.93047   0.72131   0.77158   0.00000  Uiso   1.00
H248   H     0.88041   0.66550   0.76979   0.00000  Uiso   1.00
H249   H     0.20070   0.03475   0.86284   0.00000  Uiso   1.00
H250   H     0.19986   0.00325   0.93101   0.00000  Uiso   1.00
H251   H     0.30672   0.07293   0.96416   0.00000  Uiso   1.00
H252   H     0.30659   0.10522   0.89677   0.00000  Uiso   1.00
H253   H     0.20253   0.85783   0.95302   0.00000  Uiso   1.00
H254   H     0.19941   0.91648   0.99910   0.00000  Uiso   1.00
H255   H     0.30512   0.96867   0.94015   0.00000  Uiso   1.00
H256   H     0.30724   0.91024   0.89284   0.00000  Uiso   1.00
C401   C     0.70526   0.82535   0.25910   0.00000  Uiso   1.00
N65    N     0.66233   0.75350   0.40493   0.00000  Uiso   1.00
C402   C     0.58460   0.69709   0.26238   0.00000  Uiso   1.00
C403   C     0.67165   0.79426   0.25985   0.00000  Uiso   1.00
N66    N     0.74042   0.84419   0.10580   0.00000  Uiso   1.00
C404   C     0.90646   0.74771   0.19288   0.00000  Uiso   1.00
N67    N     0.74434   0.81093   0.25688   0.00000  Uiso   1.00
N68    N     0.75444   0.74415   0.31697   0.00000  Uiso   1.00
C405   C     0.50468   0.75192   0.47974   0.00000  Uiso   1.00
C406   C     0.74447   0.77754   0.16420   0.00000  Uiso   1.00
C407   C     0.74452   0.77215   0.12171   0.00000  Uiso   1.00
C408   C     0.74284   0.73230   0.10602   0.00000  Uiso   1.00
C409   C     0.74072   0.69872   0.13231   0.00000  Uiso   1.00
C410   C     0.74376   0.65593   0.27685   0.00000  Uiso   1.00
C411   C     0.73828   0.61419   0.26894   0.00000  Uiso   1.00
C412   C     0.73308   0.60152   0.22835   0.00000  Uiso   1.00
C413   C     0.73433   0.63011   0.19650   0.00000  Uiso   1.00
C414   C     0.62532   0.75440   0.42817   0.00000  Uiso   1.00
C415   C     0.57987   0.75583   0.62065   0.00000  Uiso   1.00
C416   C     0.61561   0.27545   0.54243   0.00000  Uiso   1.00
C417   C     0.57671   0.27600   0.52450   0.00000  Uiso   1.00
C418   C     0.54750   0.24640   0.53531   0.00000  Uiso   1.00
C419   C     0.55792   0.21623   0.56392   0.00000  Uiso   1.00
C420   C     0.59629   0.21614   0.58220   0.00000  Uiso   1.00
C421   C     0.55016   0.27502   0.38190   0.00000  Uiso   1.00
C422   C     0.52412   0.27703   0.41554   0.00000  Uiso   1.00
C423   C     0.52714   0.24829   0.44725   0.00000  Uiso   1.00
C424   C     0.55751   0.21799   0.44513   0.00000  Uiso   1.00
C425   C     0.58418   0.21651   0.41172   0.00000  Uiso   1.00
H257   H     0.55435   0.70166   0.27500   0.00000  Uiso   1.00
H258   H     0.93823   0.75497   0.19882   0.00000  Uiso   1.00
H259   H     0.74660   0.80776   0.17725   0.00000  Uiso   1.00
H260   H     0.74316   0.72717   0.07333   0.00000  Uiso   1.00
H261   H     0.73968   0.66840   0.11937   0.00000  Uiso   1.00
H262   H     0.74666   0.66681   0.30783   0.00000  Uiso   1.00
H263   H     0.72842   0.56953   0.22131   0.00000  Uiso   1.00
H264   H     0.73021   0.61959   0.16550   0.00000  Uiso   1.00
H265   H     0.63716   0.29930   0.53475   0.00000  Uiso   1.00
H266   H     0.56899   0.30014   0.50325   0.00000  Uiso   1.00
H267   H     0.53584   0.19328   0.57293   0.00000  Uiso   1.00
H268   H     0.60323   0.19341   0.60522   0.00000  Uiso   1.00
H269   H     0.54698   0.29747   0.35783   0.00000  Uiso   1.00
H270   H     0.50090   0.30059   0.41648   0.00000  Uiso   1.00
H271   H     0.55985   0.19488   0.46867   0.00000  Uiso   1.00
H272   H     0.60716   0.19276   0.41024   0.00000  Uiso   1.00
C426   C     0.20526   0.32535   0.75910   0.00000  Uiso   1.00
N69    N     0.16233   0.25350   0.90493   0.00000  Uiso   1.00
C427   C     0.08460   0.19709   0.76238   0.00000  Uiso   1.00
C428   C     0.17165   0.29426   0.75985   0.00000  Uiso   1.00
N70    N     0.24042   0.34419   0.60580   0.00000  Uiso   1.00
C429   C     0.40646   0.24771   0.69288   0.00000  Uiso   1.00
N71    N     0.24434   0.31093   0.75688   0.00000  Uiso   1.00
N72    N     0.25444   0.24415   0.81697   0.00000  Uiso   1.00
C430   C     0.00468   0.25192   0.97974   0.00000  Uiso   1.00
C431   C     0.24447   0.27754   0.66420   0.00000  Uiso   1.00
C432   C     0.24452   0.27215   0.62171   0.00000  Uiso   1.00
C433   C     0.24284   0.23230   0.60602   0.00000  Uiso   1.00
C434   C     0.24072   0.19872   0.63231   0.00000  Uiso   1.00
C435   C     0.24376   0.15593   0.77685   0.00000  Uiso   1.00
C436   C     0.23828   0.11419   0.76894   0.00000  Uiso   1.00
C437   C     0.23308   0.10152   0.72835   0.00000  Uiso   1.00
C438   C     0.23433   0.13011   0.69650   0.00000  Uiso   1.00
C439   C     0.12532   0.25440   0.92817   0.00000  Uiso   1.00
C440   C     0.07987   0.25583   0.12065   0.00000  Uiso   1.00
C441   C     0.11561   0.77545   0.04243   0.00000  Uiso   1.00
C442   C     0.07671   0.77600   0.02450   0.00000  Uiso   1.00
C443   C     0.04750   0.74640   0.03531   0.00000  Uiso   1.00
C444   C     0.05792   0.71623   0.06392   0.00000  Uiso   1.00
C445   C     0.09629   0.71614   0.08220   0.00000  Uiso   1.00
C446   C     0.05016   0.77502   0.88190   0.00000  Uiso   1.00
C447   C     0.02412   0.77703   0.91554   0.00000  Uiso   1.00
C448   C     0.02714   0.74829   0.94725   0.00000  Uiso   1.00
C449   C     0.05751   0.71799   0.94513   0.00000  Uiso   1.00
C450   C     0.08418   0.71651   0.91172   0.00000  Uiso   1.00
H273   H     0.05435   0.20166   0.77500   0.00000  Uiso   1.00
H274   H     0.43823   0.25497   0.69882   0.00000  Uiso   1.00
H275   H     0.24660   0.30776   0.67725   0.00000  Uiso   1.00
H276   H     0.24316   0.22717   0.57333   0.00000  Uiso   1.00
H277   H     0.23968   0.16840   0.61937   0.00000  Uiso   1.00
H278   H     0.24666   0.16681   0.80783   0.00000  Uiso   1.00
H279   H     0.22842   0.06953   0.72131   0.00000  Uiso   1.00
H280   H     0.23021   0.11959   0.66550   0.00000  Uiso   1.00
H281   H     0.13716   0.79930   0.03475   0.00000  Uiso   1.00
H282   H     0.06899   0.80014   0.00325   0.00000  Uiso   1.00
H283   H     0.03584   0.69328   0.07293   0.00000  Uiso   1.00
H284   H     0.10323   0.69341   0.10522   0.00000  Uiso   1.00
H285   H     0.04698   0.79747   0.85783   0.00000  Uiso   1.00
H286   H     0.00090   0.80059   0.91648   0.00000  Uiso   1.00
H287   H     0.05985   0.69488   0.96867   0.00000  Uiso   1.00
H288   H     0.10716   0.69276   0.91024   0.00000  Uiso   1.00
C451   C     0.29474   0.82535   0.74090   0.00000  Uiso   1.00
N73    N     0.33767   0.75350   0.59507   0.00000  Uiso   1.00
C452   C     0.41540   0.69709   0.73762   0.00000  Uiso   1.00
C453   C     0.32835   0.79426   0.74015   0.00000  Uiso   1.00
N74    N     0.25958   0.84419   0.89420   0.00000  Uiso   1.00
C454   C     0.09354   0.74771   0.80712   0.00000  Uiso   1.00
N75    N     0.25566   0.81093   0.74312   0.00000  Uiso   1.00
N76    N     0.24556   0.74415   0.68303   0.00000  Uiso   1.00
C455   C     0.49532   0.75192   0.52026   0.00000  Uiso   1.00
C456   C     0.25553   0.77754   0.83580   0.00000  Uiso   1.00
C457   C     0.25548   0.77215   0.87829   0.00000  Uiso   1.00
C458   C     0.25716   0.73230   0.89398   0.00000  Uiso   1.00
C459   C     0.25928   0.69872   0.86769   0.00000  Uiso   1.00
C460   C     0.25624   0.65593   0.72315   0.00000  Uiso   1.00
C461   C     0.26172   0.61419   0.73106   0.00000  Uiso   1.00
C462   C     0.26692   0.60152   0.77165   0.00000  Uiso   1.00
C463   C     0.26567   0.63011   0.80350   0.00000  Uiso   1.00
C464   C     0.37468   0.75440   0.57183   0.00000  Uiso   1.00
C465   C     0.42013   0.75583   0.37935   0.00000  Uiso   1.00
C466   C     0.38439   0.27545   0.45757   0.00000  Uiso   1.00
C467   C     0.42329   0.27600   0.47550   0.00000  Uiso   1.00
C468   C     0.45250   0.24640   0.46469   0.00000  Uiso   1.00
C469   C     0.44208   0.21623   0.43608   0.00000  Uiso   1.00
C470   C     0.40371   0.21614   0.41780   0.00000  Uiso   1.00
C471   C     0.44984   0.27502   0.61810   0.00000  Uiso   1.00
C472   C     0.47588   0.27703   0.58446   0.00000  Uiso   1.00
C473   C     0.47286   0.24829   0.55275   0.00000  Uiso   1.00
C474   C     0.44249   0.21799   0.55487   0.00000  Uiso   1.00
C475   C     0.41582   0.21651   0.58828   0.00000  Uiso   1.00
H289   H     0.44565   0.70166   0.72500   0.00000  Uiso   1.00
H290   H     0.06177   0.75497   0.80118   0.00000  Uiso   1.00
H291   H     0.25340   0.80776   0.82275   0.00000  Uiso   1.00
H292   H     0.25684   0.72717   0.92667   0.00000  Uiso   1.00
H293   H     0.26032   0.66840   0.88063   0.00000  Uiso   1.00
H294   H     0.25334   0.66681   0.69217   0.00000  Uiso   1.00
H295   H     0.27158   0.56953   0.77869   0.00000  Uiso   1.00
H296   H     0.26979   0.61959   0.83450   0.00000  Uiso   1.00
H297   H     0.36284   0.29930   0.46525   0.00000  Uiso   1.00
H298   H     0.43101   0.30014   0.49675   0.00000  Uiso   1.00
H299   H     0.46416   0.19328   0.42707   0.00000  Uiso   1.00
H300   H     0.39677   0.19341   0.39478   0.00000  Uiso   1.00
H301   H     0.45302   0.29747   0.64217   0.00000  Uiso   1.00
H302   H     0.49910   0.30059   0.58352   0.00000  Uiso   1.00
H303   H     0.44015   0.19488   0.53133   0.00000  Uiso   1.00
H304   H     0.39284   0.19276   0.58976   0.00000  Uiso   1.00
C476   C     0.79474   0.32535   0.24090   0.00000  Uiso   1.00
N77    N     0.83767   0.25350   0.09507   0.00000  Uiso   1.00
C477   C     0.91540   0.19709   0.23762   0.00000  Uiso   1.00
C478   C     0.82835   0.29426   0.24015   0.00000  Uiso   1.00
N78    N     0.75958   0.34419   0.39420   0.00000  Uiso   1.00
C479   C     0.59354   0.24771   0.30712   0.00000  Uiso   1.00
N79    N     0.75566   0.31093   0.24312   0.00000  Uiso   1.00
N80    N     0.74556   0.24415   0.18303   0.00000  Uiso   1.00
C480   C     0.99532   0.25192   0.02026   0.00000  Uiso   1.00
C481   C     0.75553   0.27754   0.33580   0.00000  Uiso   1.00
C482   C     0.75548   0.27215   0.37829   0.00000  Uiso   1.00
C483   C     0.75716   0.23230   0.39398   0.00000  Uiso   1.00
C484   C     0.75928   0.19872   0.36769   0.00000  Uiso   1.00
C485   C     0.75624   0.15593   0.22315   0.00000  Uiso   1.00
C486   C     0.76172   0.11419   0.23106   0.00000  Uiso   1.00
C487   C     0.76692   0.10152   0.27165   0.00000  Uiso   1.00
C488   C     0.76567   0.13011   0.30350   0.00000  Uiso   1.00
C489   C     0.87468   0.25440   0.07183   0.00000  Uiso   1.00
C490   C     0.92013   0.25583   0.87935   0.00000  Uiso   1.00
C491   C     0.88439   0.77545   0.95757   0.00000  Uiso   1.00
C492   C     0.92329   0.77600   0.97550   0.00000  Uiso   1.00
C493   C     0.95250   0.74640   0.96469   0.00000  Uiso   1.00
C494   C     0.94208   0.71623   0.93608   0.00000  Uiso   1.00
C495   C     0.90371   0.71614   0.91780   0.00000  Uiso   1.00
C496   C     0.94984   0.77502   0.11810   0.00000  Uiso   1.00
C497   C     0.97588   0.77703   0.08446   0.00000  Uiso   1.00
C498   C     0.97286   0.74829   0.05275   0.00000  Uiso   1.00
C499   C     0.94249   0.71799   0.05487   0.00000  Uiso   1.00
C500   C     0.91582   0.71651   0.08828   0.00000  Uiso   1.00
H305   H     0.94565   0.20166   0.22500   0.00000  Uiso   1.00
H306   H     0.56177   0.25497   0.30118   0.00000  Uiso   1.00
H307   H     0.75340   0.30776   0.32275   0.00000  Uiso   1.00
H308   H     0.75684   0.22717   0.42667   0.00000  Uiso   1.00
H309   H     0.76032   0.16840   0.38063   0.00000  Uiso   1.00
H310   H     0.75334   0.16681   0.19217   0.00000  Uiso   1.00
H311   H     0.77158   0.06953   0.27869   0.00000  Uiso   1.00
H312   H     0.76979   0.11959   0.33450   0.00000  Uiso   1.00
H313   H     0.86284   0.79930   0.96525   0.00000  Uiso   1.00
H314   H     0.93101   0.80014   0.99675   0.00000  Uiso   1.00
H315   H     0.96416   0.69328   0.92707   0.00000  Uiso   1.00
H316   H     0.89677   0.69341   0.89478   0.00000  Uiso   1.00
H317   H     0.95302   0.79747   0.14217   0.00000  Uiso   1.00
H318   H     0.99910   0.80059   0.08352   0.00000  Uiso   1.00
H319   H     0.94015   0.69488   0.03133   0.00000  Uiso   1.00
H320   H     0.89284   0.69276   0.08976   0.00000  Uiso   1.00
C501   C     0.70526   0.17465   0.74090   0.00000  Uiso   1.00
N81    N     0.66233   0.24650   0.59507   0.00000  Uiso   1.00
C502   C     0.58460   0.30291   0.73762   0.00000  Uiso   1.00
C503   C     0.67165   0.20574   0.74015   0.00000  Uiso   1.00
N82    N     0.74042   0.15581   0.89420   0.00000  Uiso   1.00
C504   C     0.90646   0.25229   0.80712   0.00000  Uiso   1.00
N83    N     0.74434   0.18907   0.74312   0.00000  Uiso   1.00
N84    N     0.75444   0.25585   0.68303   0.00000  Uiso   1.00
C505   C     0.50468   0.24808   0.52026   0.00000  Uiso   1.00
C506   C     0.74447   0.22246   0.83580   0.00000  Uiso   1.00
C507   C     0.74452   0.22785   0.87829   0.00000  Uiso   1.00
C508   C     0.74284   0.26770   0.89398   0.00000  Uiso   1.00
C509   C     0.74072   0.30128   0.86769   0.00000  Uiso   1.00
C510   C     0.74376   0.34407   0.72315   0.00000  Uiso   1.00
C511   C     0.73828   0.38581   0.73106   0.00000  Uiso   1.00
C512   C     0.73308   0.39848   0.77165   0.00000  Uiso   1.00
C513   C     0.73433   0.36989   0.80350   0.00000  Uiso   1.00
C514   C     0.62532   0.24560   0.57183   0.00000  Uiso   1.00
C515   C     0.57987   0.24417   0.37935   0.00000  Uiso   1.00
C516   C     0.61561   0.72455   0.45757   0.00000  Uiso   1.00
C517   C     0.57671   0.72400   0.47550   0.00000  Uiso   1.00
C518   C     0.54750   0.75360   0.46469   0.00000  Uiso   1.00
C519   C     0.55792   0.78377   0.43608   0.00000  Uiso   1.00
C520   C     0.59629   0.78386   0.41780   0.00000  Uiso   1.00
C521   C     0.55016   0.72498   0.61810   0.00000  Uiso   1.00
C522   C     0.52412   0.72297   0.58446   0.00000  Uiso   1.00
C523   C     0.52714   0.75171   0.55275   0.00000  Uiso   1.00
C524   C     0.55751   0.78201   0.55487   0.00000  Uiso   1.00
C525   C     0.58418   0.78349   0.58828   0.00000  Uiso   1.00
H321   H     0.55435   0.29834   0.72500   0.00000  Uiso   1.00
H322   H     0.93823   0.24503   0.80118   0.00000  Uiso   1.00
H323   H     0.74660   0.19224   0.82275   0.00000  Uiso   1.00
H324   H     0.74316   0.27283   0.92667   0.00000  Uiso   1.00
H325   H     0.73968   0.33160   0.88063   0.00000  Uiso   1.00
H326   H     0.74666   0.33319   0.69217   0.00000  Uiso   1.00
H327   H     0.72842   0.43047   0.77869   0.00000  Uiso   1.00
H328   H     0.73021   0.38041   0.83450   0.00000  Uiso   1.00
H329   H     0.63716   0.70070   0.46525   0.00000  Uiso   1.00
H330   H     0.56899   0.69986   0.49675   0.00000  Uiso   1.00
H331   H     0.53584   0.80672   0.42707   0.00000  Uiso   1.00
H332   H     0.60323   0.80659   0.39478   0.00000  Uiso   1.00
H333   H     0.54698   0.70253   0.64217   0.00000  Uiso   1.00
H334   H     0.50090   0.69941   0.58352   0.00000  Uiso   1.00
H335   H     0.55985   0.80512   0.53133   0.00000  Uiso   1.00
H336   H     0.60716   0.80724   0.58976   0.00000  Uiso   1.00
C526   C     0.20526   0.67465   0.24090   0.00000  Uiso   1.00
N85    N     0.16233   0.74650   0.09507   0.00000  Uiso   1.00
C527   C     0.08460   0.80291   0.23762   0.00000  Uiso   1.00
C528   C     0.17165   0.70574   0.24015   0.00000  Uiso   1.00
N86    N     0.24042   0.65581   0.39420   0.00000  Uiso   1.00
C529   C     0.40646   0.75229   0.30712   0.00000  Uiso   1.00
N87    N     0.24434   0.68907   0.24312   0.00000  Uiso   1.00
N88    N     0.25444   0.75585   0.18303   0.00000  Uiso   1.00
C530   C     0.00468   0.74808   0.02026   0.00000  Uiso   1.00
C531   C     0.24447   0.72246   0.33580   0.00000  Uiso   1.00
C532   C     0.24452   0.72785   0.37829   0.00000  Uiso   1.00
C533   C     0.24284   0.76770   0.39398   0.00000  Uiso   1.00
C534   C     0.24072   0.80128   0.36769   0.00000  Uiso   1.00
C535   C     0.24376   0.84407   0.22315   0.00000  Uiso   1.00
C536   C     0.23828   0.88581   0.23106   0.00000  Uiso   1.00
C537   C     0.23308   0.89848   0.27165   0.00000  Uiso   1.00
C538   C     0.23433   0.86989   0.30350   0.00000  Uiso   1.00
C539   C     0.12532   0.74560   0.07183   0.00000  Uiso   1.00
C540   C     0.07987   0.74417   0.87935   0.00000  Uiso   1.00
C541   C     0.11561   0.22455   0.95757   0.00000  Uiso   1.00
C542   C     0.07671   0.22400   0.97550   0.00000  Uiso   1.00
C543   C     0.04750   0.25360   0.96469   0.00000  Uiso   1.00
C544   C     0.05792   0.28377   0.93608   0.00000  Uiso   1.00
C545   C     0.09629   0.28386   0.91780   0.00000  Uiso   1.00
C546   C     0.05016   0.22498   0.11810   0.00000  Uiso   1.00
C547   C     0.02412   0.22297   0.08446   0.00000  Uiso   1.00
C548   C     0.02714   0.25171   0.05275   0.00000  Uiso   1.00
C549   C     0.05751   0.28201   0.05487   0.00000  Uiso   1.00
C550   C     0.08418   0.28349   0.08828   0.00000  Uiso   1.00
H337   H     0.05435   0.79834   0.22500   0.00000  Uiso   1.00
H338   H     0.43823   0.74503   0.30118   0.00000  Uiso   1.00
H339   H     0.24660   0.69224   0.32275   0.00000  Uiso   1.00
H340   H     0.24316   0.77283   0.42667   0.00000  Uiso   1.00
H341   H     0.23968   0.83160   0.38063   0.00000  Uiso   1.00
H342   H     0.24666   0.83319   0.19217   0.00000  Uiso   1.00
H343   H     0.22842   0.93047   0.27869   0.00000  Uiso   1.00
H344   H     0.23021   0.88041   0.33450   0.00000  Uiso   1.00
H345   H     0.13716   0.20070   0.96525   0.00000  Uiso   1.00
H346   H     0.06899   0.19986   0.99675   0.00000  Uiso   1.00
H347   H     0.03584   0.30672   0.92707   0.00000  Uiso   1.00
H348   H     0.10323   0.30659   0.89478   0.00000  Uiso   1.00
H349   H     0.04698   0.20253   0.14217   0.00000  Uiso   1.00
H350   H     0.00090   0.19941   0.08352   0.00000  Uiso   1.00
H351   H     0.05985   0.30512   0.03133   0.00000  Uiso   1.00
H352   H     0.10716   0.30724   0.08976   0.00000  Uiso   1.00
C551   C     0.29474   0.17465   0.25910   0.00000  Uiso   1.00
N89    N     0.33767   0.24650   0.40493   0.00000  Uiso   1.00
C552   C     0.41540   0.30291   0.26238   0.00000  Uiso   1.00
C553   C     0.32835   0.20574   0.25985   0.00000  Uiso   1.00
N90    N     0.25958   0.15581   0.10580   0.00000  Uiso   1.00
C554   C     0.09354   0.25229   0.19288   0.00000  Uiso   1.00
N91    N     0.25566   0.18907   0.25688   0.00000  Uiso   1.00
N92    N     0.24556   0.25585   0.31697   0.00000  Uiso   1.00
C555   C     0.49532   0.24808   0.47974   0.00000  Uiso   1.00
C556   C     0.25553   0.22246   0.16420   0.00000  Uiso   1.00
C557   C     0.25548   0.22785   0.12171   0.00000  Uiso   1.00
C558   C     0.25716   0.26770   0.10602   0.00000  Uiso   1.00
C559   C     0.25928   0.30128   0.13231   0.00000  Uiso   1.00
C560   C     0.25624   0.34407   0.27685   0.00000  Uiso   1.00
C561   C     0.26172   0.38581   0.26894   0.00000  Uiso   1.00
C562   C     0.26692   0.39848   0.22835   0.00000  Uiso   1.00
C563   C     0.26567   0.36989   0.19650   0.00000  Uiso   1.00
C564   C     0.37468   0.24560   0.42817   0.00000  Uiso   1.00
C565   C     0.42013   0.24417   0.62065   0.00000  Uiso   1.00
C566   C     0.38439   0.72455   0.54243   0.00000  Uiso   1.00
C567   C     0.42329   0.72400   0.52450   0.00000  Uiso   1.00
C568   C     0.45250   0.75360   0.53531   0.00000  Uiso   1.00
C569   C     0.44208   0.78377   0.56392   0.00000  Uiso   1.00
C570   C     0.40371   0.78386   0.58220   0.00000  Uiso   1.00
C571   C     0.44984   0.72498   0.38190   0.00000  Uiso   1.00
C572   C     0.47588   0.72297   0.41554   0.00000  Uiso   1.00
C573   C     0.47286   0.75171   0.44725   0.00000  Uiso   1.00
C574   C     0.44249   0.78201   0.44513   0.00000  Uiso   1.00
C575   C     0.41582   0.78349   0.41172   0.00000  Uiso   1.00
H353   H     0.44565   0.29834   0.27500   0.00000  Uiso   1.00
H354   H     0.06177   0.24503   0.19882   0.00000  Uiso   1.00
H355   H     0.25340   0.19224   0.17725   0.00000  Uiso   1.00
H356   H     0.25684   0.27283   0.07333   0.00000  Uiso   1.00
H357   H     0.26032   0.33160   0.11937   0.00000  Uiso   1.00
H358   H     0.25334   0.33319   0.30783   0.00000  Uiso   1.00
H359   H     0.27158   0.43047   0.22131   0.00000  Uiso   1.00
H360   H     0.26979   0.38041   0.16550   0.00000  Uiso   1.00
H361   H     0.36284   0.70070   0.53475   0.00000  Uiso   1.00
H362   H     0.43101   0.69986   0.50325   0.00000  Uiso   1.00
H363   H     0.46416   0.80672   0.57293   0.00000  Uiso   1.00
H364   H     0.39677   0.80659   0.60522   0.00000  Uiso   1.00
H365   H     0.45302   0.70253   0.35783   0.00000  Uiso   1.00
H366   H     0.49910   0.69941   0.41648   0.00000  Uiso   1.00
H367   H     0.44015   0.80512   0.46867   0.00000  Uiso   1.00
H368   H     0.39284   0.80724   0.41024   0.00000  Uiso   1.00
C576   C     0.79474   0.67465   0.75910   0.00000  Uiso   1.00
N93    N     0.83767   0.74650   0.90493   0.00000  Uiso   1.00
C577   C     0.91540   0.80291   0.76238   0.00000  Uiso   1.00
C578   C     0.82835   0.70574   0.75985   0.00000  Uiso   1.00
N94    N     0.75958   0.65581   0.60580   0.00000  Uiso   1.00
C579   C     0.59354   0.75229   0.69288   0.00000  Uiso   1.00
N95    N     0.75566   0.68907   0.75688   0.00000  Uiso   1.00
N96    N     0.74556   0.75585   0.81697   0.00000  Uiso   1.00
C580   C     0.99532   0.74808   0.97974   0.00000  Uiso   1.00
C581   C     0.75553   0.72246   0.66420   0.00000  Uiso   1.00
C582   C     0.75548   0.72785   0.62171   0.00000  Uiso   1.00
C583   C     0.75716   0.76770   0.60602   0.00000  Uiso   1.00
C584   C     0.75928   0.80128   0.63231   0.00000  Uiso   1.00
C585   C     0.75624   0.84407   0.77685   0.00000  Uiso   1.00
C586   C     0.76172   0.88581   0.76894   0.00000  Uiso   1.00
C587   C     0.76692   0.89848   0.72835   0.00000  Uiso   1.00
C588   C     0.76567   0.86989   0.69650   0.00000  Uiso   1.00
C589   C     0.87468   0.74560   0.92817   0.00000  Uiso   1.00
C590   C     0.92013   0.74417   0.12065   0.00000  Uiso   1.00
C591   C     0.88439   0.22455   0.04243   0.00000  Uiso   1.00
C592   C     0.92329   0.22400   0.02450   0.00000  Uiso   1.00
C593   C     0.95250   0.25360   0.03531   0.00000  Uiso   1.00
C594   C     0.94208   0.28377   0.06392   0.00000  Uiso   1.00
C595   C     0.90371   0.28386   0.08220   0.00000  Uiso   1.00
C596   C     0.94984   0.22498   0.88190   0.00000  Uiso   1.00
C597   C     0.97588   0.22297   0.91554   0.00000  Uiso   1.00
C598   C     0.97286   0.25171   0.94725   0.00000  Uiso   1.00
C599   C     0.94249   0.28201   0.94513   0.00000  Uiso   1.00
C600   C     0.91582   0.28349   0.91172   0.00000  Uiso   1.00
H369   H     0.94565   0.79834   0.77500   0.00000  Uiso   1.00
H370   H     0.56177   0.74503   0.69882   0.00000  Uiso   1.00
H371   H     0.75340   0.69224   0.67725   0.00000  Uiso   1.00
H372   H     0.75684   0.77283   0.57333   0.00000  Uiso   1.00
H373   H     0.76032   0.83160   0.61937   0.00000  Uiso   1.00
H374   H     0.75334   0.83319   0.80783   0.00000  Uiso   1.00
H375   H     0.77158   0.93047   0.72131   0.00000  Uiso   1.00
H376   H     0.76979   0.88041   0.66550   0.00000  Uiso   1.00
H377   H     0.86284   0.20070   0.03475   0.00000  Uiso   1.00
H378   H     0.93101   0.19986   0.00325   0.00000  Uiso   1.00
H379   H     0.96416   0.30672   0.07293   0.00000  Uiso   1.00
H380   H     0.89677   0.30659   0.10522   0.00000  Uiso   1.00
H381   H     0.95302   0.20253   0.85783   0.00000  Uiso   1.00
H382   H     0.99910   0.19941   0.91648   0.00000  Uiso   1.00
H383   H     0.94015   0.30512   0.96867   0.00000  Uiso   1.00
H384   H     0.89284   0.30724   0.91024   0.00000  Uiso   1.00
Ru1    Ru    0.25323   0.74677   0.74677   0.00000  Uiso   1.00
Ru2    Ru    0.75323   0.24677   0.24677   0.00000  Uiso   1.00
Ru3    Ru    0.74677   0.25323   0.74677   0.00000  Uiso   1.00
Ru4    Ru    0.24677   0.75323   0.24677   0.00000  Uiso   1.00
Ru5    Ru    0.74677   0.74677   0.25323   0.00000  Uiso   1.00
Ru6    Ru    0.24677   0.24677   0.75323   0.00000  Uiso   1.00
Ru7    Ru    0.25323   0.25323   0.25323   0.00000  Uiso   1.00
Ru8    Ru    0.75323   0.75323   0.75323   0.00000  Uiso   1.00
loop_
_geom_bond_atom_site_label_1
_geom_bond_atom_site_label_2
_geom_bond_distance
_geom_bond_site_symmetry_2
_ccdc_geom_bond_type
C1     C459    1.402   .     D
C1     N3      1.365   .     S
C1     C3      1.499   .     S
N1     C452    1.297   .     D
N1     C14     1.431   .     S
C2     N49     1.297   .     D
C2     C461    1.475   .     S
C2     H1      1.083   .     S
C3     N52     1.362   .     S
C3     C463    1.406   .     D
N2     C540    1.435   .     S
N2     C454    1.300   .     D
C4     H2      1.084   .     S
C4     C307    1.473   .     S
C4     N50     1.300   .     D
N3     Ru1     2.105   .     S
N3     C456    1.358   .     D
N4     Ru1     2.103   .     S
N4     C453    1.362   .     D
N4     C310    1.355   .     S
C5     C118    1.487   .     S
C5     C55     1.361   .     D
C5     C173    1.488   .     S
C6     H3      1.080   .     S
C6     N51     1.358   .     D
C6     C7      1.402   .     S
C7     C454    1.473   .     S
C7     C8      1.403   .     D
C8     C9      1.398   .     S
C8     H4      1.083   .     S
C9     H5      1.080   .     S
C9     C301    1.402   .     D
C10    H6      1.079   .     S
C10    N76     1.355   .     S
C10    C11     1.402   .     D
C11    C302    1.475   .     S
C11    C12     1.402   .     S
C12    C13     1.401   .     D
C12    H7      1.083   .     S
C13    H8      1.080   .     S
C13    C303    1.406   .     S
C14    C120    1.396   .     S
C14    C116    1.408   .     D
C15    C125    1.401   .     D
C15    N62     1.435   .     S
C15    C121    1.404   .     S
C16    C17     1.402   .     D
C16    H9      1.082   .     S
C16    C114    1.408   .     S
C17    C18     1.406   .     S
C17    H10     1.083   .     S
C18    C105    1.487   .     D
C18    C19     1.403   .     S
C19    H11     1.083   .     S
C19    C20     1.391   .     D
C20    H12     1.083   .     S
C20    C114    1.396   .     S
C21    H13     1.082   .     S
C21    C22     1.394   .     D
C21    C115    1.404   .     S
C22    C23     1.404   .     S
C22    H14     1.083   .     S
C23    C155    1.488   .     D
C23    C24     1.406   .     S
C24    H15     1.082   .     S
C24    C25     1.400   .     D
C25    H16     1.083   .     S
C25    C115    1.401   .     S
C26    C28     1.499   .     S
C26    N7      1.365   .     S
C26    C484    1.402   .     D
N5     C39     1.431   .     S
N5     C477    1.297   .     D
C27    C486    1.475   .     S
C27    H17     1.083   .     S
C27    N53     1.297   .     D
C28    N56     1.362   .     S
C28    C488    1.406   .     D
N6     C515    1.435   .     D
N6     C479    1.300   .     S
C29    H18     1.084   .     S
C29    N54     1.300   .     D
C29    C332    1.473   .     S
N7     Ru2     2.105   .     S
N7     C481    1.358   .     D
N8     C478    1.362   .     D
N8     C335    1.355   .     S
N8     Ru2     2.103   .     S
C30    C143    1.487   .     S
C30    C80     1.361   1_645 S
C30    C198    1.488   1_545 D
C31    C32     1.402   .     S
C31    H19     1.080   .     S
C31    N55     1.358   .     D
C32    C479    1.473   .     D
C32    C33     1.403   .     S
C33    C34     1.398   .     D
C33    H20     1.083   .     S
C34    H21     1.080   .     S
C34    C326    1.402   .     S
C35    C36     1.402   .     S
C35    H22     1.079   .     S
C35    N80     1.355   .     D
C36    C327    1.475   .     D
C36    C37     1.402   .     S
C37    C38     1.401   .     D
C37    H23     1.083   .     S
C38    H24     1.080   .     S
C38    C328    1.406   .     S
C39    C145    1.396   .     S
C39    C141    1.408   .     D
C40    C150    1.401   .     D
C40    N58     1.435   .     S
C40    C146    1.404   .     S
C41    H25     1.082   .     S
C41    C139    1.408   .     S
C41    C42     1.402   .     D
C42    C43     1.406   .     S
C42    H26     1.083   .     S
C43    C130    1.487   .     S
C43    C44     1.403   .     D
C44    H27     1.083   .     S
C44    C45     1.391   .     S
C45    H28     1.083   .     S
C45    C139    1.396   .     D
C46    H29     1.082   .     S
C46    C140    1.404   .     S
C46    C47     1.394   .     D
C47    C48     1.404   .     S
C47    H30     1.083   .     S
C48    C49     1.406   .     D
C48    C180    1.488   1_545 S
C49    H31     1.082   .     S
C49    C50     1.400   .     S
C50    H32     1.083   .     S
C50    C140    1.401   .     D
C51    C509    1.402   .     S
C51    C53     1.499   .     S
C51    N11     1.365   .     D
N9     C64     1.431   .     S
N9     C502    1.297   .     D
C52    H33     1.083   .     S
C52    N33     1.297   .     D
C52    C511    1.475   .     S
C53    C513    1.406   .     D
C53    N36     1.362   .     S
N10    C490    1.435   .     S
N10    C504    1.300   .     D
C54    C207    1.473   .     S
C54    N34     1.300   .     D
C54    H34     1.084   .     S
N11    Ru3     2.105   .     S
N11    C506    1.358   .     S
N12    C210    1.355   .     S
N12    Ru3     2.103   .     S
N12    C503    1.362   .     D
C55    C123    1.488   .     S
C55    C168    1.487   .     S
C56    C57     1.402   .     D
C56    H35     1.080   .     S
C56    N35     1.358   .     S
C57    C504    1.473   .     S
C57    C58     1.403   .     S
C58    C59     1.398   .     D
C58    H36     1.083   .     S
C59    H37     1.080   .     S
C59    C201    1.402   .     S
C60    H38     1.079   .     S
C60    N84     1.355   .     D
C60    C61     1.402   .     S
C61    C202    1.475   .     S
C61    C62     1.402   .     D
C62    C63     1.401   .     S
C62    H39     1.083   .     S
C63    H40     1.080   .     S
C63    C203    1.406   .     D
C64    C170    1.396   .     S
C64    C166    1.408   .     D
C65    C175    1.401   .     S
C65    N46     1.435   .     S
C65    C171    1.404   .     D
C66    H41     1.082   .     S
C66    C164    1.408   .     D
C66    C67     1.402   .     S
C67    C68     1.406   .     D
C67    H42     1.083   .     S
C68    C155    1.487   .     S
C68    C69     1.403   .     S
C69    H43     1.083   .     S
C69    C70     1.391   .     D
C70    H44     1.083   .     S
C70    C164    1.396   .     S
C71    C72     1.394   .     S
C71    H45     1.082   .     S
C71    C165    1.404   .     D
C72    C73     1.404   .     D
C72    H46     1.083   .     S
C73    C105    1.488   .     S
C73    C74     1.406   .     S
C74    H47     1.082   .     S
C74    C75     1.400   .     D
C75    C165    1.401   .     S
C75    H48     1.083   .     S
C76    N15     1.365   .     D
C76    C78     1.499   .     S
C76    C534    1.402   .     S
N13    C89     1.431   .     D
N13    C527    1.297   .     S
C77    H49     1.083   .     S
C77    C536    1.475   .     S
C77    N37     1.297   .     D
C78    N40     1.362   .     D
C78    C538    1.406   .     S
N14    C465    1.435   .     S
N14    C529    1.300   .     D
C79    H50     1.084   .     S
C79    C232    1.473   .     D
C79    N38     1.300   .     S
N15    Ru4     2.105   .     S
N15    C531    1.358   .     S
N16    C235    1.355   .     D
N16    C528    1.362   .     S
N16    Ru4     2.103   .     S
C80    C193    1.487   .     D
C80    C30     1.361   1_465 S
C80    C148    1.488   1_565 S
C81    C82     1.402   .     D
C81    H51     1.080   .     S
C81    N39     1.358   .     S
C82    C529    1.473   .     S
C82    C83     1.403   .     S
C83    C84     1.398   .     D
C83    H52     1.083   .     S
C84    H53     1.080   .     S
C84    C226    1.402   .     S
C85    C86     1.402   .     S
C85    H54     1.079   .     S
C85    N88     1.355   .     D
C86    C227    1.475   .     S
C86    C87     1.402   .     D
C87    C88     1.401   .     S
C87    H55     1.083   .     S
C88    H56     1.080   .     S
C88    C228    1.406   .     D
C89    C195    1.396   .     S
C89    C191    1.408   .     S
C90    C200    1.401   .     S
C90    N42     1.435   .     D
C90    C196    1.404   .     S
C91    H57     1.082   .     S
C91    C189    1.408   .     D
C91    C92     1.402   .     S
C92    C93     1.406   .     D
C92    H58     1.083   .     S
C93    C180    1.487   .     S
C93    C94     1.403   .     S
C94    C95     1.391   .     D
C94    H59     1.083   .     S
C95    H60     1.083   .     S
C95    C189    1.396   .     S
C96    C97     1.394   .     S
C96    H61     1.082   .     S
C96    C190    1.404   .     D
C97    C98     1.404   .     D
C97    H62     1.083   .     S
C98    C99     1.406   .     S
C98    C130    1.488   1_565 S
C99    H63     1.082   .     S
C99    C100    1.400   .     D
C100   H64     1.083   .     S
C100   C190    1.401   .     S
C101   C103    1.499   .     S
C101   N19     1.365   .     S
C101   C409    1.402   .     D
N17    C402    1.297   .     S
N17    C114    1.431   .     D
C102   C411    1.475   .     S
C102   H65     1.083   .     S
C102   N41     1.297   .     D
C103   C413    1.406   .     D
C103   N44     1.362   .     S
N18    C590    1.435   .     D
N18    C404    1.300   .     S
C104   H66     1.084   .     S
C104   C257    1.473   .     D
C104   N42     1.300   .     S
N19    C406    1.358   .     D
N19    Ru5     2.105   .     S
N20    C403    1.362   .     S
N20    Ru5     2.103   .     S
N20    C260    1.355   .     D
C105   C155    1.361   .     S
C106   C107    1.402   .     S
C106   H67     1.080   .     S
C106   N43     1.358   .     D
C107   C404    1.473   .     D
C107   C108    1.403   .     S
C108   C109    1.398   .     D
C108   H68     1.083   .     S
C109   C251    1.402   .     S
C109   H69     1.080   .     S
C110   C111    1.402   .     S
C110   H70     1.079   .     S
C110   N68     1.355   .     D
C111   C112    1.402   .     S
C111   C252    1.475   .     D
C112   C113    1.401   .     D
C112   H71     1.083   .     S
C113   C253    1.406   .     S
C113   H72     1.080   .     S
C115   N38     1.435   .     D
C116   C117    1.402   .     S
C116   H73     1.082   .     S
C117   H74     1.083   .     S
C117   C118    1.406   .     D
C118   C119    1.403   .     S
C119   H75     1.083   .     S
C119   C120    1.391   .     D
C120   H76     1.083   .     S
C121   C122    1.394   .     D
C121   H77     1.082   .     S
C122   H78     1.083   .     S
C122   C123    1.404   .     S
C123   C124    1.406   .     D
C124   H79     1.082   .     S
C124   C125    1.400   .     S
C125   H80     1.083   .     S
C126   C128    1.499   .     S
C126   N23     1.365   .     S
C126   C434    1.402   .     D
N21    C139    1.431   .     S
N21    C427    1.297   .     D
C127   C436    1.475   .     S
C127   H81     1.083   .     S
C127   N45     1.297   .     D
C128   C438    1.406   .     S
C128   N48     1.362   .     D
N22    C429    1.300   .     S
N22    C565    1.435   .     D
C129   C282    1.473   .     S
C129   N46     1.300   .     D
C129   H82     1.084   .     S
N23    C431    1.358   .     D
N23    Ru6     2.105   .     S
N24    C428    1.362   .     S
N24    Ru6     2.103   .     S
N24    C285    1.355   .     D
C130   C98     1.488   1_545 S
C130   C180    1.361   1_445 D
C131   C132    1.402   .     S
C131   H83     1.080   .     S
C131   N47     1.358   .     D
C132   C429    1.473   .     D
C132   C133    1.403   .     S
C133   C134    1.398   .     D
C133   H84     1.083   .     S
C134   C276    1.402   .     S
C134   H85     1.080   .     S
C135   C136    1.402   .     S
C135   N72     1.355   .     D
C135   H86     1.079   .     S
C136   C277    1.475   .     D
C136   C137    1.402   .     S
C137   H87     1.083   .     S
C137   C138    1.401   .     D
C138   C278    1.406   .     S
C138   H88     1.080   .     S
C140   N34     1.435   .     S
C141   H89     1.082   .     S
C141   C142    1.402   .     S
C142   H90     1.083   .     S
C142   C143    1.406   .     D
C143   C144    1.403   .     S
C144   H91     1.083   .     S
C144   C145    1.391   .     D
C145   H92     1.083   .     S
C146   C147    1.394   .     D
C146   H93     1.082   .     S
C147   H94     1.083   .     S
C147   C148    1.404   .     S
C148   C149    1.406   .     D
C148   C80     1.488   1_545 S
C149   H95     1.082   .     S
C149   C150    1.400   .     S
C150   H96     1.083   .     S
C151   N27     1.365   .     D
C151   C153    1.499   .     S
C151   C559    1.402   .     S
N25    C164    1.431   .     S
N25    C552    1.297   .     D
C152   H97     1.083   .     S
C152   C561    1.475   .     S
C152   N57     1.297   .     D
C153   C563    1.406   .     D
C153   N60     1.362   .     S
N26    C440    1.435   .     S
N26    C554    1.300   .     D
C154   C357    1.473   .     S
C154   N58     1.300   .     D
C154   H98     1.084   .     S
N27    C556    1.358   .     S
N27    Ru7     2.105   .     S
N28    Ru7     2.103   .     S
N28    C360    1.355   .     S
N28    C553    1.362   .     D
C156   H99     1.080   .     S
C156   C157    1.402   .     D
C156   N59     1.358   .     S
C157   C554    1.473   .     S
C157   C158    1.403   .     S
C158   C159    1.398   .     D
C158   H100    1.083   .     S
C159   C351    1.402   .     S
C159   H101    1.080   .     S
C160   C161    1.402   .     S
C160   H102    1.079   .     S
C160   N92     1.355   .     D
C161   C162    1.402   .     D
C161   C352    1.475   .     S
C162   C163    1.401   .     S
C162   H103    1.083   .     S
C163   H104    1.080   .     S
C163   C353    1.406   .     D
C165   N54     1.435   .     S
C166   H105    1.082   .     S
C166   C167    1.402   .     S
C167   H106    1.083   .     S
C167   C168    1.406   .     D
C168   C169    1.403   .     S
C169   H107    1.083   .     S
C169   C170    1.391   .     D
C170   H108    1.083   .     S
C171   H109    1.082   .     S
C171   C172    1.394   .     S
C172   H110    1.083   .     S
C172   C173    1.404   .     D
C173   C174    1.406   .     S
C174   C175    1.400   .     D
C174   H111    1.082   .     S
C175   H112    1.083   .     S
C176   N31     1.365   .     D
C176   C178    1.499   .     S
C176   C584    1.402   .     S
N29    C189    1.431   .     S
N29    C577    1.297   .     D
C177   H113    1.083   .     S
C177   C586    1.475   .     S
C177   N61     1.297   .     D
C178   C588    1.406   .     D
C178   N64     1.362   .     S
N30    C579    1.300   .     S
N30    C415    1.435   .     D
C179   N62     1.300   .     D
C179   C382    1.473   .     S
C179   H114    1.084   .     S
N31    C581    1.358   .     S
N31    Ru8     2.105   .     S
N32    C385    1.355   .     S
N32    Ru8     2.103   .     S
N32    C578    1.362   .     D
C180   C48     1.488   1_565 S
C180   C130    1.361   1_665 D
C181   H115    1.080   .     S
C181   C182    1.402   .     S
C181   N63     1.358   .     D
C182   C579    1.473   .     D
C182   C183    1.403   .     S
C183   C184    1.398   .     D
C183   H116    1.083   .     S
C184   C376    1.402   .     S
C184   H117    1.080   .     S
C185   C186    1.402   .     S
C185   H118    1.079   .     S
C185   N96     1.355   .     D
C186   C377    1.475   .     D
C186   C187    1.402   .     S
C187   H119    1.083   .     S
C187   C188    1.401   .     D
C188   H120    1.080   .     S
C188   C378    1.406   .     S
C190   N50     1.435   .     S
C191   H121    1.082   .     S
C191   C192    1.402   .     D
C192   H122    1.083   .     S
C192   C193    1.406   .     S
C193   C194    1.403   .     S
C194   H123    1.083   .     S
C194   C195    1.391   .     D
C195   H124    1.083   .     S
C196   H125    1.082   .     S
C196   C197    1.394   .     D
C197   H126    1.083   .     S
C197   C198    1.404   .     S
C198   C199    1.406   .     S
C198   C30     1.488   1_565 D
C199   C200    1.400   .     D
C199   H127    1.082   .     S
C200   H128    1.083   .     S
C201   C203    1.499   .     S
C201   N35     1.365   .     D
N33    C214    1.431   .     S
C202   N81     1.297   .     D
C202   H129    1.083   .     S
C203   N84     1.362   .     S
C204   H130    1.084   .     S
C204   C507    1.473   .     S
C204   N82     1.300   .     D
N35    Ru3     2.105   .     S
N36    Ru3     2.103   .     S
N36    C510    1.355   .     D
C205   C318    1.487   .     S
C205   C255    1.361   .     D
C205   C373    1.488   .     S
C206   H131    1.080   .     S
C206   N83     1.358   .     S
C206   C207    1.402   .     D
C207   C208    1.403   .     S
C208   C209    1.398   .     D
C208   H132    1.083   .     S
C209   H133    1.080   .     S
C209   C501    1.402   .     S
C210   H134    1.079   .     S
C210   C211    1.402   .     D
C211   C502    1.475   .     S
C211   C212    1.402   .     S
C212   H135    1.083   .     S
C212   C213    1.401   .     D
C213   C503    1.406   .     S
C213   H136    1.080   .     S
C214   C320    1.396   .     S
C214   C316    1.408   .     D
C215   C325    1.401   .     D
C215   N94     1.435   .     S
C215   C321    1.404   .     S
C216   C217    1.402   .     D
C216   H137    1.082   .     S
C216   C314    1.408   .     S
C217   C218    1.406   .     S
C217   H138    1.083   .     S
C218   C305    1.487   .     S
C218   C219    1.403   .     D
C219   H139    1.083   .     S
C219   C220    1.391   .     S
C220   H140    1.083   .     S
C220   C314    1.396   .     D
C221   H141    1.082   .     S
C221   C222    1.394   .     D
C221   C315    1.404   .     S
C222   C223    1.404   .     S
C222   H142    1.083   .     S
C223   C355    1.488   .     S
C223   C224    1.406   .     D
C224   H143    1.082   .     S
C224   C225    1.400   .     S
C225   H144    1.083   .     S
C225   C315    1.401   .     D
C226   C228    1.499   .     S
C226   N39     1.365   .     D
N37    C239    1.431   .     S
C227   N85     1.297   .     D
C227   H145    1.083   .     S
C228   N88     1.362   .     S
C229   N86     1.300   .     D
C229   C532    1.473   .     S
C229   H146    1.084   .     S
N39    Ru4     2.105   .     S
N40    Ru4     2.103   .     S
N40    C535    1.355   .     S
C230   C343    1.487   .     S
C230   C280    1.361   1_564 D
C230   C398    1.488   1_554 S
C231   N87     1.358   .     D
C231   C232    1.402   .     S
C231   H147    1.080   .     S
C232   C233    1.403   .     S
C233   C234    1.398   .     D
C233   H148    1.083   .     S
C234   H149    1.080   .     S
C234   C526    1.402   .     S
C235   C236    1.402   .     S
C235   H150    1.079   .     S
C236   C527    1.475   .     D
C236   C237    1.402   .     S
C237   C238    1.401   .     D
C237   H151    1.083   .     S
C238   H152    1.080   .     S
C238   C528    1.406   .     S
C239   C345    1.396   .     D
C239   C341    1.408   .     S
C240   C346    1.404   .     D
C240   C350    1.401   .     S
C240   N90     1.435   .     S
C241   H153    1.082   .     S
C241   C339    1.408   .     S
C241   C242    1.402   .     D
C242   C243    1.406   .     S
C242   H154    1.083   .     S
C243   C330    1.487   .     S
C243   C244    1.403   .     D
C244   H155    1.083   .     S
C244   C245    1.391   .     S
C245   H156    1.083   .     S
C245   C339    1.396   .     D
C246   H157    1.082   .     S
C246   C340    1.404   .     S
C246   C247    1.394   .     D
C247   C248    1.404   .     S
C247   H158    1.083   .     S
C248   C249    1.406   .     D
C248   C380    1.488   1_554 S
C249   H159    1.082   .     S
C249   C250    1.400   .     S
C250   H160    1.083   .     S
C250   C340    1.401   .     D
C251   N43     1.365   .     S
C251   C253    1.499   .     D
N41    C264    1.431   .     S
C252   H161    1.083   .     S
C252   N65     1.297   .     S
C253   N68     1.362   .     S
C254   C407    1.473   .     S
C254   N66     1.300   .     D
C254   H162    1.084   .     S
N43    Ru5     2.105   .     S
N44    C410    1.355   .     D
N44    Ru5     2.103   .     S
C255   C323    1.488   .     S
C255   C368    1.487   .     S
C256   C257    1.402   .     S
C256   H163    1.080   .     S
C256   N67     1.358   .     D
C257   C258    1.403   .     S
C258   C259    1.398   .     D
C258   H164    1.083   .     S
C259   H165    1.080   .     S
C259   C401    1.402   .     S
C260   H166    1.079   .     S
C260   C261    1.402   .     S
C261   C402    1.475   .     D
C261   C262    1.402   .     S
C262   C263    1.401   .     D
C262   H167    1.083   .     S
C263   C403    1.406   .     S
C263   H168    1.080   .     S
C264   C370    1.396   .     S
C264   C366    1.408   .     D
C265   C371    1.404   .     D
C265   C375    1.401   .     S
C265   N78     1.435   .     S
C266   H169    1.082   .     S
C266   C364    1.408   .     D
C266   C267    1.402   .     S
C267   C268    1.406   .     D
C267   H170    1.083   .     S
C268   C269    1.403   .     S
C268   C355    1.487   .     S
C269   H171    1.083   .     S
C269   C270    1.391   .     D
C270   C364    1.396   .     S
C270   H172    1.083   .     S
C271   C272    1.394   .     S
C271   H173    1.082   .     S
C271   C365    1.404   .     D
C272   C273    1.404   .     D
C272   H174    1.083   .     S
C273   C274    1.406   .     S
C273   C305    1.488   .     S
C274   H175    1.082   .     S
C274   C275    1.400   .     D
C275   C365    1.401   .     S
C275   H176    1.083   .     S
C276   N47     1.365   .     S
C276   C278    1.499   .     D
N45    C289    1.431   .     S
C277   H177    1.083   .     S
C277   N69     1.297   .     S
C278   N72     1.362   .     S
C279   C432    1.473   .     S
C279   N70     1.300   .     D
C279   H178    1.084   .     S
N47    Ru6     2.105   .     S
N48    Ru6     2.103   .     S
N48    C435    1.355   .     S
C280   C393    1.487   .     S
C280   C230    1.361   1_546 D
C280   C348    1.488   1_556 S
C281   C282    1.402   .     D
C281   H179    1.080   .     S
C281   N71     1.358   .     S
C282   C283    1.403   .     S
C283   C284    1.398   .     D
C283   H180    1.083   .     S
C284   H181    1.080   .     S
C284   C426    1.402   .     S
C285   C286    1.402   .     S
C285   H182    1.079   .     S
C286   C427    1.475   .     S
C286   C287    1.402   .     D
C287   C288    1.401   .     S
C287   H183    1.083   .     S
C288   C428    1.406   .     D
C288   H184    1.080   .     S
C289   C391    1.408   .     S
C289   C395    1.396   .     D
C290   C396    1.404   .     D
C290   C400    1.401   .     S
C290   N74     1.435   .     S
C291   H185    1.082   .     S
C291   C389    1.408   .     D
C291   C292    1.402   .     S
C292   C293    1.406   .     D
C292   H186    1.083   .     S
C293   C294    1.403   .     S
C293   C380    1.487   .     S
C294   C295    1.391   .     D
C294   H187    1.083   .     S
C295   H188    1.083   .     S
C295   C389    1.396   .     S
C296   C297    1.394   .     S
C296   H189    1.082   .     S
C296   C390    1.404   .     D
C297   C298    1.404   .     D
C297   H190    1.083   .     S
C298   C299    1.406   .     S
C298   C330    1.488   1_556 S
C299   H191    1.082   .     S
C299   C300    1.400   .     D
C300   C390    1.401   .     S
C300   H192    1.083   .     S
C301   C303    1.499   .     S
C301   N51     1.365   .     S
N49    C314    1.431   .     S
C302   N73     1.297   .     D
C302   H193    1.083   .     S
C303   N76     1.362   .     D
C304   H194    1.084   .     S
C304   N74     1.300   .     D
C304   C457    1.473   .     S
N51    Ru1     2.105   .     S
N52    Ru1     2.103   .     S
N52    C460    1.355   .     D
C305   C355    1.361   .     D
C306   C307    1.402   .     D
C306   H195    1.080   .     S
C306   N75     1.358   .     S
C307   C308    1.403   .     S
C308   C309    1.398   .     D
C308   H196    1.083   .     S
C309   C451    1.402   .     S
C309   H197    1.080   .     S
C310   C311    1.402   .     D
C310   H198    1.079   .     S
C311   C452    1.475   .     S
C311   C312    1.402   .     S
C312   H199    1.083   .     S
C312   C313    1.401   .     D
C313   C453    1.406   .     S
C313   H200    1.080   .     S
C315   N70     1.435   .     S
C316   C317    1.402   .     S
C316   H201    1.082   .     S
C317   H202    1.083   .     S
C317   C318    1.406   .     D
C318   C319    1.403   .     S
C319   H203    1.083   .     S
C319   C320    1.391   .     D
C320   H204    1.083   .     S
C321   C322    1.394   .     D
C321   H205    1.082   .     S
C322   H206    1.083   .     S
C322   C323    1.404   .     S
C323   C324    1.406   .     D
C324   H207    1.082   .     S
C324   C325    1.400   .     S
C325   H208    1.083   .     S
C326   C328    1.499   .     D
C326   N55     1.365   .     S
N53    C339    1.431   .     S
C327   N77     1.297   .     S
C327   H209    1.083   .     S
C328   N80     1.362   .     S
C329   C482    1.473   .     S
C329   N78     1.300   .     D
C329   H210    1.084   .     S
N55    Ru2     2.105   .     S
N56    Ru2     2.103   .     S
N56    C485    1.355   .     D
C330   C298    1.488   1_554 S
C330   C380    1.361   1_544 D
C331   C332    1.402   .     D
C331   N79     1.358   .     S
C331   H211    1.080   .     S
C332   C333    1.403   .     S
C333   C334    1.398   .     D
C333   H212    1.083   .     S
C334   H213    1.080   .     S
C334   C476    1.402   .     S
C335   C336    1.402   .     D
C335   H214    1.079   .     S
C336   C477    1.475   .     S
C336   C337    1.402   .     S
C337   H215    1.083   .     S
C337   C338    1.401   .     D
C338   C478    1.406   .     S
C338   H216    1.080   .     S
C340   N66     1.435   .     S
C341   H217    1.082   .     S
C341   C342    1.402   .     D
C342   C343    1.406   .     S
C342   H218    1.083   .     S
C343   C344    1.403   .     D
C344   H219    1.083   .     S
C344   C345    1.391   .     S
C345   H220    1.083   .     S
C346   C347    1.394   .     S
C346   H221    1.082   .     S
C347   H222    1.083   .     S
C347   C348    1.404   .     D
C348   C349    1.406   .     S
C348   C280    1.488   1_554 S
C349   H223    1.082   .     S
C349   C350    1.400   .     D
C350   H224    1.083   .     S
C351   N59     1.365   .     D
C351   C353    1.499   .     S
N57    C364    1.431   .     S
C352   H225    1.083   .     S
C352   N89     1.297   .     D
C353   N92     1.362   .     S
C354   C557    1.473   .     S
C354   N90     1.300   .     D
C354   H226    1.084   .     S
N59    Ru7     2.105   .     S
N60    Ru7     2.103   .     S
N60    C560    1.355   .     D
C356   H227    1.080   .     S
C356   N91     1.358   .     D
C356   C357    1.402   .     S
C357   C358    1.403   .     D
C358   C359    1.398   .     S
C358   H228    1.083   .     S
C359   H229    1.080   .     S
C359   C551    1.402   .     D
C360   C361    1.402   .     D
C360   H230    1.079   .     S
C361   C552    1.475   .     S
C361   C362    1.402   .     S
C362   C363    1.401   .     D
C362   H231    1.083   .     S
C363   H232    1.080   .     S
C363   C553    1.406   .     S
C365   N86     1.435   .     S
C366   H233    1.082   .     S
C366   C367    1.402   .     S
C367   H234    1.083   .     S
C367   C368    1.406   .     D
C368   C369    1.403   .     S
C369   H235    1.083   .     S
C369   C370    1.391   .     D
C370   H236    1.083   .     S
C371   H237    1.082   .     S
C371   C372    1.394   .     S
C372   C373    1.404   .     D
C372   H238    1.083   .     S
C373   C374    1.406   .     S
C374   C375    1.400   .     D
C374   H239    1.082   .     S
C375   H240    1.083   .     S
C376   N63     1.365   .     S
C376   C378    1.499   .     D
N61    C389    1.431   .     S
C377   H241    1.083   .     S
C377   N93     1.297   .     S
C378   N96     1.362   .     S
C379   N94     1.300   .     D
C379   C582    1.473   .     S
C379   H242    1.084   .     S
N63    Ru8     2.105   .     S
N64    C585    1.355   .     D
N64    Ru8     2.103   .     S
C380   C248    1.488   1_556 S
C380   C330    1.361   1_566 D
C381   H243    1.080   .     S
C381   N95     1.358   .     D
C381   C382    1.402   .     S
C382   C383    1.403   .     D
C383   C384    1.398   .     S
C383   H244    1.083   .     S
C384   H245    1.080   .     S
C384   C576    1.402   .     D
C385   C386    1.402   .     D
C385   H246    1.079   .     S
C386   C577    1.475   .     S
C386   C387    1.402   .     S
C387   H247    1.083   .     S
C387   C388    1.401   .     D
C388   H248    1.080   .     S
C388   C578    1.406   .     S
C390   N82     1.435   .     S
C391   H249    1.082   .     S
C391   C392    1.402   .     D
C392   H250    1.083   .     S
C392   C393    1.406   .     S
C393   C394    1.403   .     D
C394   H251    1.083   .     S
C394   C395    1.391   .     S
C395   H252    1.083   .     S
C396   H253    1.082   .     S
C396   C397    1.394   .     S
C397   C398    1.404   .     D
C397   H254    1.083   .     S
C398   C399    1.406   .     S
C398   C230    1.488   1_556 S
C399   C400    1.400   .     D
C399   H255    1.082   .     S
C400   H256    1.083   .     S
C401   C403    1.499   .     D
C401   N67     1.365   .     S
N65    C414    1.431   .     D
C402   H257    1.083   .     S
C404   H258    1.084   .     S
N67    Ru5     2.105   .     S
N68    Ru5     2.103   .     S
C405   C518    1.487   .     D
C405   C573    1.488   .     S
C405   C455    1.361   .     S
C406   H259    1.080   .     S
C406   C407    1.402   .     S
C407   C408    1.403   .     D
C408   C409    1.398   .     S
C408   H260    1.083   .     S
C409   H261    1.080   .     S
C410   H262    1.079   .     S
C410   C411    1.402   .     S
C411   C412    1.402   .     D
C412   C413    1.401   .     S
C412   H263    1.083   .     S
C413   H264    1.080   .     S
C414   C520    1.396   .     S
C414   C516    1.408   .     S
C415   C525    1.401   .     S
C415   C521    1.404   .     S
C416   C417    1.402   .     S
C416   H265    1.082   .     S
C416   C514    1.408   .     D
C417   C418    1.406   .     D
C417   H266    1.083   .     S
C418   C505    1.487   .     S
C418   C419    1.403   .     S
C419   H267    1.083   .     S
C419   C420    1.391   .     D
C420   H268    1.083   .     S
C420   C514    1.396   .     S
C421   H269    1.082   .     S
C421   C515    1.404   .     S
C421   C422    1.394   .     D
C422   C423    1.404   .     S
C422   H270    1.083   .     S
C423   C555    1.488   .     D
C423   C424    1.406   .     S
C424   H271    1.082   .     S
C424   C425    1.400   .     D
C425   H272    1.083   .     S
C425   C515    1.401   .     S
C426   C428    1.499   .     S
C426   N71     1.365   .     D
N69    C439    1.431   .     D
C427   H273    1.083   .     S
C429   H274    1.084   .     S
N71    Ru6     2.105   .     S
N72    Ru6     2.103   .     S
C430   C543    1.487   .     D
C430   C480    1.361   1_456 S
C430   C598    1.488   1_455 S
C431   H275    1.080   .     S
C431   C432    1.402   .     S
C432   C433    1.403   .     D
C433   C434    1.398   .     S
C433   H276    1.083   .     S
C434   H277    1.080   .     S
C435   C436    1.402   .     D
C435   H278    1.079   .     S
C436   C437    1.402   .     S
C437   C438    1.401   .     D
C437   H279    1.083   .     S
C438   H280    1.080   .     S
C439   C545    1.396   .     S
C439   C541    1.408   .     S
C440   C550    1.401   .     S
C440   C546    1.404   .     D
C441   H281    1.082   .     S
C441   C539    1.408   .     D
C441   C442    1.402   .     S
C442   C443    1.406   .     D
C442   H282    1.083   .     S
C443   C530    1.487   .     S
C443   C444    1.403   .     S
C444   H283    1.083   .     S
C444   C445    1.391   .     D
C445   H284    1.083   .     S
C445   C539    1.396   .     S
C446   H285    1.082   .     S
C446   C540    1.404   .     D
C446   C447    1.394   .     S
C447   C448    1.404   .     D
C447   H286    1.083   .     S
C448   C449    1.406   .     S
C448   C580    1.488   1_455 S
C449   H287    1.082   .     S
C449   C450    1.400   .     D
C450   H288    1.083   .     S
C450   C540    1.401   .     S
C451   N75     1.365   .     D
C451   C453    1.499   .     S
N73    C464    1.431   .     S
C452   H289    1.083   .     S
C454   H290    1.084   .     S
N75    Ru1     2.105   .     S
N76    Ru1     2.103   .     S
C455   C523    1.488   .     D
C455   C568    1.487   .     S
C456   C457    1.402   .     S
C456   H291    1.080   .     S
C457   C458    1.403   .     D
C458   C459    1.398   .     S
C458   H292    1.083   .     S
C459   H293    1.080   .     S
C460   H294    1.079   .     S
C460   C461    1.402   .     S
C461   C462    1.402   .     D
C462   C463    1.401   .     S
C462   H295    1.083   .     S
C463   H296    1.080   .     S
C464   C570    1.396   .     S
C464   C566    1.408   .     D
C465   C571    1.404   .     S
C465   C575    1.401   .     D
C466   H297    1.082   .     S
C466   C564    1.408   .     D
C466   C467    1.402   .     S
C467   C468    1.406   .     D
C467   H298    1.083   .     S
C468   C555    1.487   .     S
C468   C469    1.403   .     S
C469   H299    1.083   .     S
C469   C470    1.391   .     D
C470   C564    1.396   .     S
C470   H300    1.083   .     S
C471   C472    1.394   .     D
C471   H301    1.082   .     S
C471   C565    1.404   .     S
C472   H302    1.083   .     S
C472   C473    1.404   .     S
C473   C505    1.488   .     D
C473   C474    1.406   .     S
C474   H303    1.082   .     S
C474   C475    1.400   .     D
C475   C565    1.401   .     S
C475   H304    1.083   .     S
C476   N79     1.365   .     D
C476   C478    1.499   .     S
N77    C489    1.431   .     D
C477   H305    1.083   .     S
C479   H306    1.084   .     S
N79    Ru2     2.105   .     S
N80    Ru2     2.103   .     S
C480   C593    1.487   .     D
C480   C430    1.361   1_654 S
C480   C548    1.488   1_655 S
C481   C482    1.402   .     S
C481   H307    1.080   .     S
C482   C483    1.403   .     D
C483   C484    1.398   .     S
C483   H308    1.083   .     S
C484   H309    1.080   .     S
C485   C486    1.402   .     S
C485   H310    1.079   .     S
C486   C487    1.402   .     D
C487   C488    1.401   .     S
C487   H311    1.083   .     S
C488   H312    1.080   .     S
C489   C591    1.408   .     S
C489   C595    1.396   .     S
C490   C596    1.404   .     S
C490   C600    1.401   .     D
C491   H313    1.082   .     S
C491   C589    1.408   .     S
C491   C492    1.402   .     D
C492   C493    1.406   .     S
C492   H314    1.083   .     S
C493   C494    1.403   .     S
C493   C580    1.487   .     D
C494   C495    1.391   .     D
C494   H315    1.083   .     S
C495   C589    1.396   .     S
C495   H316    1.083   .     S
C496   C497    1.394   .     D
C496   H317    1.082   .     S
C496   C590    1.404   .     S
C497   H318    1.083   .     S
C497   C498    1.404   .     S
C498   C499    1.406   .     S
C498   C530    1.488   1_655 D
C499   H319    1.082   .     S
C499   C500    1.400   .     D
C500   H320    1.083   .     S
C500   C590    1.401   .     S
C501   C503    1.499   .     S
C501   N83     1.365   .     D
N81    C514    1.431   .     S
C502   H321    1.083   .     S
C504   H322    1.084   .     S
N83    Ru3     2.105   .     S
N84    Ru3     2.103   .     S
C505   C555    1.361   .     S
C506   C507    1.402   .     D
C506   H323    1.080   .     S
C507   C508    1.403   .     S
C508   C509    1.398   .     D
C508   H324    1.083   .     S
C509   H325    1.080   .     S
C510   C511    1.402   .     S
C510   H326    1.079   .     S
C511   C512    1.402   .     D
C512   C513    1.401   .     S
C512   H327    1.083   .     S
C513   H328    1.080   .     S
C516   C517    1.402   .     D
C516   H329    1.082   .     S
C517   C518    1.406   .     S
C517   H330    1.083   .     S
C518   C519    1.403   .     S
C519   H331    1.083   .     S
C519   C520    1.391   .     D
C520   H332    1.083   .     S
C521   C522    1.394   .     D
C521   H333    1.082   .     S
C522   H334    1.083   .     S
C522   C523    1.404   .     S
C523   C524    1.406   .     S
C524   H335    1.082   .     S
C524   C525    1.400   .     D
C525   H336    1.083   .     S
C526   C528    1.499   .     D
C526   N87     1.365   .     S
N85    C539    1.431   .     S
C527   H337    1.083   .     S
C529   H338    1.084   .     S
N87    Ru4     2.105   .     S
N88    Ru4     2.103   .     S
C530   C498    1.488   1_455 D
C530   C580    1.361   1_454 S
C531   C532    1.402   .     D
C531   H339    1.080   .     S
C532   C533    1.403   .     S
C533   C534    1.398   .     D
C533   H340    1.083   .     S
C534   H341    1.080   .     S
C535   C536    1.402   .     D
C535   H342    1.079   .     S
C536   C537    1.402   .     S
C537   H343    1.083   .     S
C537   C538    1.401   .     D
C538   H344    1.080   .     S
C541   H345    1.082   .     S
C541   C542    1.402   .     D
C542   C543    1.406   .     S
C542   H346    1.083   .     S
C543   C544    1.403   .     S
C544   H347    1.083   .     S
C544   C545    1.391   .     D
C545   H348    1.083   .     S
C546   C547    1.394   .     S
C546   H349    1.082   .     S
C547   H350    1.083   .     S
C547   C548    1.404   .     D
C548   C549    1.406   .     S
C548   C480    1.488   1_455 S
C549   H351    1.082   .     S
C549   C550    1.400   .     D
C550   H352    1.083   .     S
C551   N91     1.365   .     S
C551   C553    1.499   .     S
N89    C564    1.431   .     S
C552   H353    1.083   .     S
C554   H354    1.084   .     S
N91    Ru7     2.105   .     S
N92    Ru7     2.103   .     S
C556   H355    1.080   .     S
C556   C557    1.402   .     D
C557   C558    1.403   .     S
C558   C559    1.398   .     D
C558   H356    1.083   .     S
C559   H357    1.080   .     S
C560   C561    1.402   .     S
C560   H358    1.079   .     S
C561   C562    1.402   .     D
C562   C563    1.401   .     S
C562   H359    1.083   .     S
C563   H360    1.080   .     S
C566   H361    1.082   .     S
C566   C567    1.402   .     S
C567   H362    1.083   .     S
C567   C568    1.406   .     D
C568   C569    1.403   .     S
C569   H363    1.083   .     S
C569   C570    1.391   .     D
C570   H364    1.083   .     S
C571   H365    1.082   .     S
C571   C572    1.394   .     D
C572   H366    1.083   .     S
C572   C573    1.404   .     S
C573   C574    1.406   .     D
C574   C575    1.400   .     S
C574   H367    1.082   .     S
C575   H368    1.083   .     S
C576   N95     1.365   .     S
C576   C578    1.499   .     S
N93    C589    1.431   .     D
C577   H369    1.083   .     S
C579   H370    1.084   .     S
N95    Ru8     2.105   .     S
N96    Ru8     2.103   .     S
C580   C448    1.488   1_655 S
C580   C530    1.361   1_656 S
C581   H371    1.080   .     S
C581   C582    1.402   .     D
C582   C583    1.403   .     S
C583   C584    1.398   .     D
C583   H372    1.083   .     S
C584   H373    1.080   .     S
C585   C586    1.402   .     S
C585   H374    1.079   .     S
C586   C587    1.402   .     D
C587   H375    1.083   .     S
C587   C588    1.401   .     S
C588   H376    1.080   .     S
C591   H377    1.082   .     S
C591   C592    1.402   .     D
C592   H378    1.083   .     S
C592   C593    1.406   .     S
C593   C594    1.403   .     S
C594   H379    1.083   .     S
C594   C595    1.391   .     D
C595   H380    1.083   .     S
C596   H381    1.082   .     S
C596   C597    1.394   .     D
C597   H382    1.083   .     S
C597   C598    1.404   .     S
C598   C599    1.406   .     D
C598   C430    1.488   1_655 S
C599   C600    1.400   .     S
C599   H383    1.082   .     S
C600   H384    1.083   .     S
