data_728
_audit_creation_date              2023-09-08
_audit_creation_method            'Materials Studio'
_symmetry_space_group_name_H-M    'P1'
_symmetry_Int_Tables_number       1
_symmetry_cell_setting            triclinic
loop_
_symmetry_equiv_pos_as_xyz
  x,y,z
_cell_length_a                    35.1800
_cell_length_b                    35.1800
_cell_length_c                    35.1800
_cell_angle_alpha                 90.0000
_cell_angle_beta                  90.0000
_cell_angle_gamma                 90.0000
loop_
_atom_site_label
_atom_site_type_symbol
_atom_site_fract_x
_atom_site_fract_y
_atom_site_fract_z
_atom_site_U_iso_or_equiv
_atom_site_adp_type
_atom_site_occupancy
C1     C     0.27276   0.71147   0.81771   0.00000  Uiso   1.00
N2     N     0.40666   0.67840   0.74576   0.00000  Uiso   1.00
C3     C     0.27247   0.58794   0.70999   0.00000  Uiso   1.00
C4     C     0.27377   0.67771   0.79173   0.00000  Uiso   1.00
N5     N     0.12947   0.73708   0.84562   0.00000  Uiso   1.00
C6     C     0.18833   0.88502   0.73917   0.00000  Uiso   1.00
N7     N     0.26631   0.74608   0.80139   0.00000  Uiso   1.00
N8     N     0.31568   0.75434   0.73382   0.00000  Uiso   1.00
C9     C     0.43191   0.64657   0.74850   0.00000  Uiso   1.00
C10    C     0.46016   0.63887   0.72119   0.00000  Uiso   1.00
C11    C     0.47998   0.60429   0.72219   0.00000  Uiso   1.00
C12    C     0.47184   0.57729   0.75047   0.00000  Uiso   1.00
C13    C     0.44491   0.58603   0.77857   0.00000  Uiso   1.00
C14    C     0.42501   0.62020   0.77735   0.00000  Uiso   1.00
C15    C     0.48749   0.53823   0.74874   0.00000  Uiso   1.00
C16    C     0.46141   0.50801   0.74810   0.00000  Uiso   1.00
C17    C     0.47318   0.46987   0.74790   0.00000  Uiso   1.00
C18    C     0.55681   0.55984   0.74844   0.00000  Uiso   1.00
C19    C     0.58747   0.55709   0.72297   0.00000  Uiso   1.00
C20    C     0.61917   0.58051   0.72699   0.00000  Uiso   1.00
C21    C     0.62068   0.60746   0.75638   0.00000  Uiso   1.00
C22    C     0.58911   0.61216   0.78019   0.00000  Uiso   1.00
C23    C     0.55757   0.58810   0.77669   0.00000  Uiso   1.00
C24    C     0.17820   0.73653   0.77875   0.00000  Uiso   1.00
C25    C     0.13849   0.73368   0.77745   0.00000  Uiso   1.00
C26    C     0.12091   0.72723   0.74224   0.00000  Uiso   1.00
C27    C     0.14264   0.72369   0.70918   0.00000  Uiso   1.00
C28    C     0.27215   0.73456   0.65632   0.00000  Uiso   1.00
C29    C     0.26154   0.72658   0.61871   0.00000  Uiso   1.00
C30    C     0.22348   0.71747   0.61114   0.00000  Uiso   1.00
C31    C     0.19659   0.71753   0.64050   0.00000  Uiso   1.00
H32    H     0.28610   0.56102   0.71605   0.00000  Uiso   1.00
H33    H     0.19196   0.91524   0.74409   0.00000  Uiso   1.00
H34    H     0.46554   0.65837   0.69805   0.00000  Uiso   1.00
H35    H     0.50024   0.59786   0.69992   0.00000  Uiso   1.00
H36    H     0.43821   0.56564   0.80065   0.00000  Uiso   1.00
H37    H     0.40312   0.62566   0.79831   0.00000  Uiso   1.00
H38    H     0.43124   0.51438   0.74836   0.00000  Uiso   1.00
H39    H     0.58740   0.53581   0.70071   0.00000  Uiso   1.00
H40    H     0.64281   0.57719   0.70757   0.00000  Uiso   1.00
H41    H     0.58980   0.63311   0.80272   0.00000  Uiso   1.00
H42    H     0.53462   0.59048   0.79705   0.00000  Uiso   1.00
H43    H     0.19251   0.74233   0.80527   0.00000  Uiso   1.00
H44    H     0.09025   0.72517   0.74030   0.00000  Uiso   1.00
H45    H     0.12828   0.71914   0.68244   0.00000  Uiso   1.00
H46    H     0.30139   0.74069   0.66329   0.00000  Uiso   1.00
H47    H     0.21451   0.71080   0.58245   0.00000  Uiso   1.00
H48    H     0.16744   0.71059   0.63387   0.00000  Uiso   1.00
C49    C     0.77276   0.21147   0.31771   0.00000  Uiso   1.00
N50    N     0.90666   0.17840   0.24576   0.00000  Uiso   1.00
C51    C     0.77247   0.08794   0.20999   0.00000  Uiso   1.00
C52    C     0.77377   0.17771   0.29173   0.00000  Uiso   1.00
N53    N     0.62947   0.23708   0.34562   0.00000  Uiso   1.00
C54    C     0.68833   0.38502   0.23917   0.00000  Uiso   1.00
N55    N     0.76631   0.24608   0.30139   0.00000  Uiso   1.00
N56    N     0.81568   0.25434   0.23382   0.00000  Uiso   1.00
C57    C     0.93191   0.14657   0.24850   0.00000  Uiso   1.00
C58    C     0.96016   0.13887   0.22119   0.00000  Uiso   1.00
C59    C     0.97998   0.10429   0.22219   0.00000  Uiso   1.00
C60    C     0.97184   0.07729   0.25047   0.00000  Uiso   1.00
C61    C     0.94491   0.08603   0.27857   0.00000  Uiso   1.00
C62    C     0.92501   0.12020   0.27735   0.00000  Uiso   1.00
C63    C     0.98749   0.03823   0.24874   0.00000  Uiso   1.00
C64    C     0.96141   0.00801   0.24810   0.00000  Uiso   1.00
C65    C     0.97318   0.96987   0.24790   0.00000  Uiso   1.00
C66    C     0.05681   0.05984   0.24844   0.00000  Uiso   1.00
C67    C     0.08747   0.05709   0.22297   0.00000  Uiso   1.00
C68    C     0.11917   0.08051   0.22699   0.00000  Uiso   1.00
C69    C     0.12068   0.10746   0.25638   0.00000  Uiso   1.00
C70    C     0.08911   0.11216   0.28019   0.00000  Uiso   1.00
C71    C     0.05757   0.08810   0.27669   0.00000  Uiso   1.00
C72    C     0.67820   0.23653   0.27875   0.00000  Uiso   1.00
C73    C     0.63849   0.23368   0.27745   0.00000  Uiso   1.00
C74    C     0.62091   0.22723   0.24224   0.00000  Uiso   1.00
C75    C     0.64264   0.22369   0.20918   0.00000  Uiso   1.00
C76    C     0.77215   0.23456   0.15632   0.00000  Uiso   1.00
C77    C     0.76154   0.22658   0.11871   0.00000  Uiso   1.00
C78    C     0.72348   0.21747   0.11114   0.00000  Uiso   1.00
C79    C     0.69659   0.21753   0.14050   0.00000  Uiso   1.00
H80    H     0.78610   0.06102   0.21605   0.00000  Uiso   1.00
H81    H     0.69196   0.41524   0.24409   0.00000  Uiso   1.00
H82    H     0.96554   0.15837   0.19805   0.00000  Uiso   1.00
H83    H     0.00024   0.09786   0.19992   0.00000  Uiso   1.00
H84    H     0.93821   0.06564   0.30065   0.00000  Uiso   1.00
H85    H     0.90312   0.12566   0.29831   0.00000  Uiso   1.00
H86    H     0.93124   0.01438   0.24836   0.00000  Uiso   1.00
H87    H     0.08740   0.03581   0.20071   0.00000  Uiso   1.00
H88    H     0.14281   0.07719   0.20757   0.00000  Uiso   1.00
H89    H     0.08980   0.13311   0.30272   0.00000  Uiso   1.00
H90    H     0.03462   0.09048   0.29705   0.00000  Uiso   1.00
H91    H     0.69251   0.24233   0.30527   0.00000  Uiso   1.00
H92    H     0.59025   0.22517   0.24030   0.00000  Uiso   1.00
H93    H     0.62828   0.21914   0.18244   0.00000  Uiso   1.00
H94    H     0.80139   0.24069   0.16329   0.00000  Uiso   1.00
H95    H     0.71451   0.21080   0.08245   0.00000  Uiso   1.00
H96    H     0.66744   0.21059   0.13387   0.00000  Uiso   1.00
C97    C     0.72724   0.28853   0.81771   0.00000  Uiso   1.00
N98    N     0.59334   0.32160   0.74576   0.00000  Uiso   1.00
C99    C     0.72753   0.41206   0.70999   0.00000  Uiso   1.00
C100   C     0.72623   0.32229   0.79173   0.00000  Uiso   1.00
N101   N     0.87053   0.26292   0.84562   0.00000  Uiso   1.00
C102   C     0.81167   0.11498   0.73917   0.00000  Uiso   1.00
N103   N     0.73369   0.25392   0.80139   0.00000  Uiso   1.00
N104   N     0.68432   0.24566   0.73382   0.00000  Uiso   1.00
C105   C     0.56809   0.35343   0.74850   0.00000  Uiso   1.00
C106   C     0.53984   0.36113   0.72119   0.00000  Uiso   1.00
C107   C     0.52002   0.39571   0.72219   0.00000  Uiso   1.00
C108   C     0.52816   0.42271   0.75047   0.00000  Uiso   1.00
C109   C     0.55509   0.41397   0.77857   0.00000  Uiso   1.00
C110   C     0.57499   0.37980   0.77735   0.00000  Uiso   1.00
C111   C     0.51251   0.46177   0.74874   0.00000  Uiso   1.00
C112   C     0.53859   0.49199   0.74810   0.00000  Uiso   1.00
C113   C     0.52682   0.53013   0.74790   0.00000  Uiso   1.00
C114   C     0.44319   0.44016   0.74844   0.00000  Uiso   1.00
C115   C     0.41253   0.44291   0.72297   0.00000  Uiso   1.00
C116   C     0.38083   0.41949   0.72699   0.00000  Uiso   1.00
C117   C     0.37932   0.39254   0.75638   0.00000  Uiso   1.00
C118   C     0.41089   0.38784   0.78019   0.00000  Uiso   1.00
C119   C     0.44243   0.41190   0.77669   0.00000  Uiso   1.00
C120   C     0.82180   0.26347   0.77875   0.00000  Uiso   1.00
C121   C     0.86151   0.26632   0.77745   0.00000  Uiso   1.00
C122   C     0.87909   0.27277   0.74224   0.00000  Uiso   1.00
C123   C     0.85736   0.27631   0.70918   0.00000  Uiso   1.00
C124   C     0.72785   0.26544   0.65632   0.00000  Uiso   1.00
C125   C     0.73846   0.27342   0.61871   0.00000  Uiso   1.00
C126   C     0.77652   0.28253   0.61114   0.00000  Uiso   1.00
C127   C     0.80341   0.28247   0.64050   0.00000  Uiso   1.00
H128   H     0.71390   0.43898   0.71605   0.00000  Uiso   1.00
H129   H     0.80804   0.08476   0.74409   0.00000  Uiso   1.00
H130   H     0.53446   0.34163   0.69805   0.00000  Uiso   1.00
H131   H     0.49976   0.40214   0.69992   0.00000  Uiso   1.00
H132   H     0.56179   0.43436   0.80065   0.00000  Uiso   1.00
H133   H     0.59688   0.37434   0.79831   0.00000  Uiso   1.00
H134   H     0.56876   0.48562   0.74836   0.00000  Uiso   1.00
H135   H     0.41260   0.46419   0.70071   0.00000  Uiso   1.00
H136   H     0.35719   0.42281   0.70757   0.00000  Uiso   1.00
H137   H     0.41020   0.36689   0.80272   0.00000  Uiso   1.00
H138   H     0.46538   0.40952   0.79705   0.00000  Uiso   1.00
H139   H     0.80749   0.25767   0.80527   0.00000  Uiso   1.00
H140   H     0.90975   0.27483   0.74030   0.00000  Uiso   1.00
H141   H     0.87172   0.28086   0.68244   0.00000  Uiso   1.00
H142   H     0.69861   0.25931   0.66329   0.00000  Uiso   1.00
H143   H     0.78549   0.28920   0.58245   0.00000  Uiso   1.00
H144   H     0.83256   0.28941   0.63387   0.00000  Uiso   1.00
C145   C     0.22724   0.78853   0.31771   0.00000  Uiso   1.00
N146   N     0.09334   0.82160   0.24576   0.00000  Uiso   1.00
C147   C     0.22753   0.91206   0.20999   0.00000  Uiso   1.00
C148   C     0.22623   0.82229   0.29173   0.00000  Uiso   1.00
N149   N     0.37053   0.76292   0.34562   0.00000  Uiso   1.00
C150   C     0.31167   0.61498   0.23917   0.00000  Uiso   1.00
N151   N     0.23369   0.75392   0.30139   0.00000  Uiso   1.00
N152   N     0.18432   0.74566   0.23382   0.00000  Uiso   1.00
C153   C     0.06809   0.85343   0.24850   0.00000  Uiso   1.00
C154   C     0.03984   0.86113   0.22119   0.00000  Uiso   1.00
C155   C     0.02002   0.89571   0.22219   0.00000  Uiso   1.00
C156   C     0.02816   0.92271   0.25047   0.00000  Uiso   1.00
C157   C     0.05509   0.91397   0.27857   0.00000  Uiso   1.00
C158   C     0.07499   0.87980   0.27735   0.00000  Uiso   1.00
C159   C     0.01251   0.96177   0.24874   0.00000  Uiso   1.00
C160   C     0.03859   0.99199   0.24810   0.00000  Uiso   1.00
C161   C     0.02682   0.03013   0.24790   0.00000  Uiso   1.00
C162   C     0.94319   0.94016   0.24844   0.00000  Uiso   1.00
C163   C     0.91253   0.94291   0.22297   0.00000  Uiso   1.00
C164   C     0.88083   0.91949   0.22699   0.00000  Uiso   1.00
C165   C     0.87932   0.89254   0.25638   0.00000  Uiso   1.00
C166   C     0.91089   0.88784   0.28019   0.00000  Uiso   1.00
C167   C     0.94243   0.91190   0.27669   0.00000  Uiso   1.00
C168   C     0.32180   0.76347   0.27875   0.00000  Uiso   1.00
C169   C     0.36151   0.76632   0.27745   0.00000  Uiso   1.00
C170   C     0.37909   0.77277   0.24224   0.00000  Uiso   1.00
C171   C     0.35736   0.77631   0.20918   0.00000  Uiso   1.00
C172   C     0.22785   0.76544   0.15632   0.00000  Uiso   1.00
C173   C     0.23846   0.77342   0.11871   0.00000  Uiso   1.00
C174   C     0.27652   0.78253   0.11114   0.00000  Uiso   1.00
C175   C     0.30341   0.78247   0.14050   0.00000  Uiso   1.00
H176   H     0.21390   0.93898   0.21605   0.00000  Uiso   1.00
H177   H     0.30804   0.58476   0.24409   0.00000  Uiso   1.00
H178   H     0.03446   0.84163   0.19805   0.00000  Uiso   1.00
H179   H     0.99976   0.90214   0.19992   0.00000  Uiso   1.00
H180   H     0.06179   0.93436   0.30065   0.00000  Uiso   1.00
H181   H     0.09688   0.87434   0.29831   0.00000  Uiso   1.00
H182   H     0.06876   0.98562   0.24836   0.00000  Uiso   1.00
H183   H     0.91260   0.96419   0.20071   0.00000  Uiso   1.00
H184   H     0.85719   0.92281   0.20757   0.00000  Uiso   1.00
H185   H     0.91020   0.86689   0.30272   0.00000  Uiso   1.00
H186   H     0.96538   0.90952   0.29705   0.00000  Uiso   1.00
H187   H     0.30749   0.75767   0.30527   0.00000  Uiso   1.00
H188   H     0.40975   0.77483   0.24030   0.00000  Uiso   1.00
H189   H     0.37172   0.78086   0.18244   0.00000  Uiso   1.00
H190   H     0.19861   0.75931   0.16329   0.00000  Uiso   1.00
H191   H     0.28549   0.78920   0.08245   0.00000  Uiso   1.00
H192   H     0.33256   0.78941   0.13387   0.00000  Uiso   1.00
C193   C     0.72724   0.71147   0.18229   0.00000  Uiso   1.00
N194   N     0.59334   0.67840   0.25424   0.00000  Uiso   1.00
C195   C     0.72753   0.58794   0.29001   0.00000  Uiso   1.00
C196   C     0.72623   0.67771   0.20827   0.00000  Uiso   1.00
N197   N     0.87053   0.73708   0.15438   0.00000  Uiso   1.00
C198   C     0.81167   0.88502   0.26083   0.00000  Uiso   1.00
N199   N     0.73369   0.74608   0.19861   0.00000  Uiso   1.00
N200   N     0.68432   0.75434   0.26618   0.00000  Uiso   1.00
C201   C     0.56809   0.64657   0.25150   0.00000  Uiso   1.00
C202   C     0.53984   0.63887   0.27881   0.00000  Uiso   1.00
C203   C     0.52002   0.60429   0.27781   0.00000  Uiso   1.00
C204   C     0.52816   0.57729   0.24953   0.00000  Uiso   1.00
C205   C     0.55509   0.58603   0.22143   0.00000  Uiso   1.00
C206   C     0.57499   0.62020   0.22265   0.00000  Uiso   1.00
C207   C     0.51251   0.53823   0.25126   0.00000  Uiso   1.00
C208   C     0.53859   0.50801   0.25190   0.00000  Uiso   1.00
C209   C     0.52682   0.46987   0.25210   0.00000  Uiso   1.00
C210   C     0.44319   0.55984   0.25156   0.00000  Uiso   1.00
C211   C     0.41253   0.55709   0.27703   0.00000  Uiso   1.00
C212   C     0.38083   0.58051   0.27301   0.00000  Uiso   1.00
C213   C     0.37932   0.60746   0.24362   0.00000  Uiso   1.00
C214   C     0.41089   0.61216   0.21981   0.00000  Uiso   1.00
C215   C     0.44243   0.58810   0.22331   0.00000  Uiso   1.00
C216   C     0.82180   0.73653   0.22125   0.00000  Uiso   1.00
C217   C     0.86151   0.73368   0.22255   0.00000  Uiso   1.00
C218   C     0.87909   0.72723   0.25776   0.00000  Uiso   1.00
C219   C     0.85736   0.72369   0.29082   0.00000  Uiso   1.00
C220   C     0.72785   0.73456   0.34368   0.00000  Uiso   1.00
C221   C     0.73846   0.72658   0.38129   0.00000  Uiso   1.00
C222   C     0.77652   0.71747   0.38886   0.00000  Uiso   1.00
C223   C     0.80341   0.71753   0.35950   0.00000  Uiso   1.00
H224   H     0.71390   0.56102   0.28395   0.00000  Uiso   1.00
H225   H     0.80804   0.91524   0.25591   0.00000  Uiso   1.00
H226   H     0.53446   0.65837   0.30195   0.00000  Uiso   1.00
H227   H     0.49976   0.59786   0.30008   0.00000  Uiso   1.00
H228   H     0.56179   0.56564   0.19935   0.00000  Uiso   1.00
H229   H     0.59688   0.62566   0.20169   0.00000  Uiso   1.00
H230   H     0.56876   0.51438   0.25164   0.00000  Uiso   1.00
H231   H     0.41260   0.53581   0.29929   0.00000  Uiso   1.00
H232   H     0.35719   0.57719   0.29243   0.00000  Uiso   1.00
H233   H     0.41020   0.63311   0.19728   0.00000  Uiso   1.00
H234   H     0.46538   0.59048   0.20295   0.00000  Uiso   1.00
H235   H     0.80749   0.74233   0.19473   0.00000  Uiso   1.00
H236   H     0.90975   0.72517   0.25970   0.00000  Uiso   1.00
H237   H     0.87172   0.71914   0.31756   0.00000  Uiso   1.00
H238   H     0.69861   0.74069   0.33671   0.00000  Uiso   1.00
H239   H     0.78549   0.71080   0.41755   0.00000  Uiso   1.00
H240   H     0.83256   0.71059   0.36613   0.00000  Uiso   1.00
C241   C     0.22724   0.21147   0.68229   0.00000  Uiso   1.00
N242   N     0.09334   0.17840   0.75424   0.00000  Uiso   1.00
C243   C     0.22753   0.08794   0.79001   0.00000  Uiso   1.00
C244   C     0.22623   0.17771   0.70827   0.00000  Uiso   1.00
N245   N     0.37053   0.23708   0.65438   0.00000  Uiso   1.00
C246   C     0.31167   0.38502   0.76083   0.00000  Uiso   1.00
N247   N     0.23369   0.24608   0.69861   0.00000  Uiso   1.00
N248   N     0.18432   0.25434   0.76618   0.00000  Uiso   1.00
C249   C     0.06809   0.14657   0.75150   0.00000  Uiso   1.00
C250   C     0.03984   0.13887   0.77881   0.00000  Uiso   1.00
C251   C     0.02002   0.10429   0.77781   0.00000  Uiso   1.00
C252   C     0.02816   0.07729   0.74953   0.00000  Uiso   1.00
C253   C     0.05509   0.08603   0.72143   0.00000  Uiso   1.00
C254   C     0.07499   0.12020   0.72265   0.00000  Uiso   1.00
C255   C     0.01251   0.03823   0.75126   0.00000  Uiso   1.00
C256   C     0.03859   0.00801   0.75190   0.00000  Uiso   1.00
C257   C     0.02682   0.96987   0.75210   0.00000  Uiso   1.00
C258   C     0.94319   0.05984   0.75156   0.00000  Uiso   1.00
C259   C     0.91253   0.05709   0.77703   0.00000  Uiso   1.00
C260   C     0.88083   0.08051   0.77301   0.00000  Uiso   1.00
C261   C     0.87932   0.10746   0.74362   0.00000  Uiso   1.00
C262   C     0.91089   0.11216   0.71981   0.00000  Uiso   1.00
C263   C     0.94243   0.08810   0.72331   0.00000  Uiso   1.00
C264   C     0.32180   0.23653   0.72125   0.00000  Uiso   1.00
C265   C     0.36151   0.23368   0.72255   0.00000  Uiso   1.00
C266   C     0.37909   0.22723   0.75776   0.00000  Uiso   1.00
C267   C     0.35736   0.22369   0.79082   0.00000  Uiso   1.00
C268   C     0.22785   0.23456   0.84368   0.00000  Uiso   1.00
C269   C     0.23846   0.22658   0.88129   0.00000  Uiso   1.00
C270   C     0.27652   0.21747   0.88886   0.00000  Uiso   1.00
C271   C     0.30341   0.21753   0.85950   0.00000  Uiso   1.00
H272   H     0.21390   0.06102   0.78395   0.00000  Uiso   1.00
H273   H     0.30804   0.41524   0.75591   0.00000  Uiso   1.00
H274   H     0.03446   0.15837   0.80195   0.00000  Uiso   1.00
H275   H     0.99976   0.09786   0.80008   0.00000  Uiso   1.00
H276   H     0.06179   0.06564   0.69935   0.00000  Uiso   1.00
H277   H     0.09688   0.12566   0.70169   0.00000  Uiso   1.00
H278   H     0.06876   0.01438   0.75164   0.00000  Uiso   1.00
H279   H     0.91260   0.03581   0.79929   0.00000  Uiso   1.00
H280   H     0.85719   0.07719   0.79243   0.00000  Uiso   1.00
H281   H     0.91020   0.13311   0.69728   0.00000  Uiso   1.00
H282   H     0.96538   0.09048   0.70295   0.00000  Uiso   1.00
H283   H     0.30749   0.24233   0.69473   0.00000  Uiso   1.00
H284   H     0.40975   0.22517   0.75970   0.00000  Uiso   1.00
H285   H     0.37172   0.21914   0.81756   0.00000  Uiso   1.00
H286   H     0.19861   0.24069   0.83671   0.00000  Uiso   1.00
H287   H     0.28549   0.21080   0.91755   0.00000  Uiso   1.00
H288   H     0.33256   0.21059   0.86613   0.00000  Uiso   1.00
C289   C     0.27276   0.28853   0.18229   0.00000  Uiso   1.00
N290   N     0.40666   0.32160   0.25424   0.00000  Uiso   1.00
C291   C     0.27247   0.41206   0.29001   0.00000  Uiso   1.00
C292   C     0.27377   0.32229   0.20827   0.00000  Uiso   1.00
N293   N     0.12947   0.26292   0.15438   0.00000  Uiso   1.00
C294   C     0.18833   0.11498   0.26083   0.00000  Uiso   1.00
N295   N     0.26631   0.25392   0.19861   0.00000  Uiso   1.00
N296   N     0.31568   0.24566   0.26618   0.00000  Uiso   1.00
C297   C     0.43191   0.35343   0.25150   0.00000  Uiso   1.00
C298   C     0.46016   0.36113   0.27881   0.00000  Uiso   1.00
C299   C     0.47998   0.39571   0.27781   0.00000  Uiso   1.00
C300   C     0.47184   0.42271   0.24953   0.00000  Uiso   1.00
C301   C     0.44491   0.41397   0.22143   0.00000  Uiso   1.00
C302   C     0.42501   0.37980   0.22265   0.00000  Uiso   1.00
C303   C     0.48749   0.46177   0.25126   0.00000  Uiso   1.00
C304   C     0.46141   0.49199   0.25190   0.00000  Uiso   1.00
C305   C     0.47318   0.53013   0.25210   0.00000  Uiso   1.00
C306   C     0.55681   0.44016   0.25156   0.00000  Uiso   1.00
C307   C     0.58747   0.44291   0.27703   0.00000  Uiso   1.00
C308   C     0.61917   0.41949   0.27301   0.00000  Uiso   1.00
C309   C     0.62068   0.39254   0.24362   0.00000  Uiso   1.00
C310   C     0.58911   0.38784   0.21981   0.00000  Uiso   1.00
C311   C     0.55757   0.41190   0.22331   0.00000  Uiso   1.00
C312   C     0.17820   0.26347   0.22125   0.00000  Uiso   1.00
C313   C     0.13849   0.26632   0.22255   0.00000  Uiso   1.00
C314   C     0.12091   0.27277   0.25776   0.00000  Uiso   1.00
C315   C     0.14264   0.27631   0.29082   0.00000  Uiso   1.00
C316   C     0.27215   0.26544   0.34368   0.00000  Uiso   1.00
C317   C     0.26154   0.27342   0.38129   0.00000  Uiso   1.00
C318   C     0.22348   0.28253   0.38886   0.00000  Uiso   1.00
C319   C     0.19659   0.28247   0.35950   0.00000  Uiso   1.00
H320   H     0.28610   0.43898   0.28395   0.00000  Uiso   1.00
H321   H     0.19196   0.08476   0.25591   0.00000  Uiso   1.00
H322   H     0.46554   0.34163   0.30195   0.00000  Uiso   1.00
H323   H     0.50024   0.40214   0.30008   0.00000  Uiso   1.00
H324   H     0.43821   0.43436   0.19935   0.00000  Uiso   1.00
H325   H     0.40312   0.37434   0.20169   0.00000  Uiso   1.00
H326   H     0.43124   0.48562   0.25164   0.00000  Uiso   1.00
H327   H     0.58740   0.46419   0.29929   0.00000  Uiso   1.00
H328   H     0.64281   0.42281   0.29243   0.00000  Uiso   1.00
H329   H     0.58980   0.36689   0.19728   0.00000  Uiso   1.00
H330   H     0.53462   0.40952   0.20295   0.00000  Uiso   1.00
H331   H     0.19251   0.25767   0.19473   0.00000  Uiso   1.00
H332   H     0.09025   0.27483   0.25970   0.00000  Uiso   1.00
H333   H     0.12828   0.28086   0.31756   0.00000  Uiso   1.00
H334   H     0.30139   0.25931   0.33671   0.00000  Uiso   1.00
H335   H     0.21451   0.28920   0.41755   0.00000  Uiso   1.00
H336   H     0.16744   0.28941   0.36613   0.00000  Uiso   1.00
C337   C     0.77276   0.78853   0.68229   0.00000  Uiso   1.00
N338   N     0.90666   0.82160   0.75424   0.00000  Uiso   1.00
C339   C     0.77247   0.91206   0.79001   0.00000  Uiso   1.00
C340   C     0.77377   0.82229   0.70827   0.00000  Uiso   1.00
N341   N     0.62947   0.76292   0.65438   0.00000  Uiso   1.00
C342   C     0.68833   0.61498   0.76083   0.00000  Uiso   1.00
N343   N     0.76631   0.75392   0.69861   0.00000  Uiso   1.00
N344   N     0.81568   0.74566   0.76618   0.00000  Uiso   1.00
C345   C     0.93191   0.85343   0.75150   0.00000  Uiso   1.00
C346   C     0.96016   0.86113   0.77881   0.00000  Uiso   1.00
C347   C     0.97998   0.89571   0.77781   0.00000  Uiso   1.00
C348   C     0.97184   0.92271   0.74953   0.00000  Uiso   1.00
C349   C     0.94491   0.91397   0.72143   0.00000  Uiso   1.00
C350   C     0.92501   0.87980   0.72265   0.00000  Uiso   1.00
C351   C     0.98749   0.96177   0.75126   0.00000  Uiso   1.00
C352   C     0.96141   0.99199   0.75190   0.00000  Uiso   1.00
C353   C     0.97318   0.03013   0.75210   0.00000  Uiso   1.00
C354   C     0.05681   0.94016   0.75156   0.00000  Uiso   1.00
C355   C     0.08747   0.94291   0.77703   0.00000  Uiso   1.00
C356   C     0.11917   0.91949   0.77301   0.00000  Uiso   1.00
C357   C     0.12068   0.89254   0.74362   0.00000  Uiso   1.00
C358   C     0.08911   0.88784   0.71981   0.00000  Uiso   1.00
C359   C     0.05757   0.91190   0.72331   0.00000  Uiso   1.00
C360   C     0.67820   0.76347   0.72125   0.00000  Uiso   1.00
C361   C     0.63849   0.76632   0.72255   0.00000  Uiso   1.00
C362   C     0.62091   0.77277   0.75776   0.00000  Uiso   1.00
C363   C     0.64264   0.77631   0.79082   0.00000  Uiso   1.00
C364   C     0.77215   0.76544   0.84368   0.00000  Uiso   1.00
C365   C     0.76154   0.77342   0.88129   0.00000  Uiso   1.00
C366   C     0.72348   0.78253   0.88886   0.00000  Uiso   1.00
C367   C     0.69659   0.78247   0.85950   0.00000  Uiso   1.00
H368   H     0.78610   0.93898   0.78395   0.00000  Uiso   1.00
H369   H     0.69196   0.58476   0.75591   0.00000  Uiso   1.00
H370   H     0.96554   0.84163   0.80195   0.00000  Uiso   1.00
H371   H     0.00024   0.90214   0.80008   0.00000  Uiso   1.00
H372   H     0.93821   0.93436   0.69935   0.00000  Uiso   1.00
H373   H     0.90312   0.87434   0.70169   0.00000  Uiso   1.00
H374   H     0.93124   0.98562   0.75164   0.00000  Uiso   1.00
H375   H     0.08740   0.96419   0.79929   0.00000  Uiso   1.00
H376   H     0.14281   0.92281   0.79243   0.00000  Uiso   1.00
H377   H     0.08980   0.86689   0.69728   0.00000  Uiso   1.00
H378   H     0.03462   0.90952   0.70295   0.00000  Uiso   1.00
H379   H     0.69251   0.75767   0.69473   0.00000  Uiso   1.00
H380   H     0.59025   0.77483   0.75970   0.00000  Uiso   1.00
H381   H     0.62828   0.78086   0.81756   0.00000  Uiso   1.00
H382   H     0.80139   0.75931   0.83671   0.00000  Uiso   1.00
H383   H     0.71451   0.78920   0.91755   0.00000  Uiso   1.00
H384   H     0.66744   0.78941   0.86613   0.00000  Uiso   1.00
C385   C     0.81771   0.27276   0.71147   0.00000  Uiso   1.00
N386   N     0.74576   0.40666   0.67840   0.00000  Uiso   1.00
C387   C     0.70999   0.27247   0.58794   0.00000  Uiso   1.00
C388   C     0.79173   0.27377   0.67771   0.00000  Uiso   1.00
N389   N     0.84562   0.12947   0.73708   0.00000  Uiso   1.00
C390   C     0.73917   0.18833   0.88502   0.00000  Uiso   1.00
N391   N     0.80139   0.26631   0.74608   0.00000  Uiso   1.00
N392   N     0.73382   0.31568   0.75434   0.00000  Uiso   1.00
C393   C     0.74850   0.43191   0.64657   0.00000  Uiso   1.00
C394   C     0.72119   0.46016   0.63887   0.00000  Uiso   1.00
C395   C     0.72219   0.47998   0.60429   0.00000  Uiso   1.00
C396   C     0.75047   0.47184   0.57729   0.00000  Uiso   1.00
C397   C     0.77857   0.44491   0.58603   0.00000  Uiso   1.00
C398   C     0.77735   0.42501   0.62020   0.00000  Uiso   1.00
C399   C     0.74874   0.48749   0.53823   0.00000  Uiso   1.00
C400   C     0.74810   0.46141   0.50801   0.00000  Uiso   1.00
C401   C     0.74790   0.47318   0.46987   0.00000  Uiso   1.00
C402   C     0.74844   0.55681   0.55984   0.00000  Uiso   1.00
C403   C     0.72297   0.58747   0.55709   0.00000  Uiso   1.00
C404   C     0.72699   0.61917   0.58051   0.00000  Uiso   1.00
C405   C     0.75638   0.62068   0.60746   0.00000  Uiso   1.00
C406   C     0.78019   0.58911   0.61216   0.00000  Uiso   1.00
C407   C     0.77669   0.55757   0.58810   0.00000  Uiso   1.00
C408   C     0.77875   0.17820   0.73653   0.00000  Uiso   1.00
C409   C     0.77745   0.13849   0.73368   0.00000  Uiso   1.00
C410   C     0.74224   0.12091   0.72723   0.00000  Uiso   1.00
C411   C     0.70918   0.14264   0.72369   0.00000  Uiso   1.00
C412   C     0.65632   0.27215   0.73456   0.00000  Uiso   1.00
C413   C     0.61871   0.26154   0.72658   0.00000  Uiso   1.00
C414   C     0.61114   0.22348   0.71747   0.00000  Uiso   1.00
C415   C     0.64050   0.19659   0.71753   0.00000  Uiso   1.00
H416   H     0.71605   0.28610   0.56102   0.00000  Uiso   1.00
H417   H     0.74409   0.19196   0.91524   0.00000  Uiso   1.00
H418   H     0.69805   0.46554   0.65837   0.00000  Uiso   1.00
H419   H     0.69992   0.50024   0.59786   0.00000  Uiso   1.00
H420   H     0.80065   0.43821   0.56564   0.00000  Uiso   1.00
H421   H     0.79831   0.40312   0.62566   0.00000  Uiso   1.00
H422   H     0.74836   0.43124   0.51438   0.00000  Uiso   1.00
H423   H     0.70071   0.58740   0.53581   0.00000  Uiso   1.00
H424   H     0.70757   0.64281   0.57719   0.00000  Uiso   1.00
H425   H     0.80272   0.58980   0.63311   0.00000  Uiso   1.00
H426   H     0.79705   0.53462   0.59048   0.00000  Uiso   1.00
H427   H     0.80527   0.19251   0.74233   0.00000  Uiso   1.00
H428   H     0.74030   0.09025   0.72517   0.00000  Uiso   1.00
H429   H     0.68244   0.12828   0.71914   0.00000  Uiso   1.00
H430   H     0.66329   0.30139   0.74069   0.00000  Uiso   1.00
H431   H     0.58245   0.21451   0.71080   0.00000  Uiso   1.00
H432   H     0.63387   0.16744   0.71059   0.00000  Uiso   1.00
C433   C     0.31771   0.77276   0.21147   0.00000  Uiso   1.00
N434   N     0.24576   0.90666   0.17840   0.00000  Uiso   1.00
C435   C     0.20999   0.77247   0.08794   0.00000  Uiso   1.00
C436   C     0.29173   0.77377   0.17771   0.00000  Uiso   1.00
N437   N     0.34562   0.62947   0.23708   0.00000  Uiso   1.00
C438   C     0.23917   0.68833   0.38502   0.00000  Uiso   1.00
N439   N     0.30139   0.76631   0.24608   0.00000  Uiso   1.00
N440   N     0.23382   0.81568   0.25434   0.00000  Uiso   1.00
C441   C     0.24850   0.93191   0.14657   0.00000  Uiso   1.00
C442   C     0.22119   0.96016   0.13887   0.00000  Uiso   1.00
C443   C     0.22219   0.97998   0.10429   0.00000  Uiso   1.00
C444   C     0.25047   0.97184   0.07729   0.00000  Uiso   1.00
C445   C     0.27857   0.94491   0.08603   0.00000  Uiso   1.00
C446   C     0.27735   0.92501   0.12020   0.00000  Uiso   1.00
C447   C     0.24874   0.98749   0.03823   0.00000  Uiso   1.00
C448   C     0.24810   0.96141   0.00801   0.00000  Uiso   1.00
C449   C     0.24790   0.97318   0.96987   0.00000  Uiso   1.00
C450   C     0.24844   0.05681   0.05984   0.00000  Uiso   1.00
C451   C     0.22297   0.08747   0.05709   0.00000  Uiso   1.00
C452   C     0.22699   0.11917   0.08051   0.00000  Uiso   1.00
C453   C     0.25638   0.12068   0.10746   0.00000  Uiso   1.00
C454   C     0.28019   0.08911   0.11216   0.00000  Uiso   1.00
C455   C     0.27669   0.05757   0.08810   0.00000  Uiso   1.00
C456   C     0.27875   0.67820   0.23653   0.00000  Uiso   1.00
C457   C     0.27745   0.63849   0.23368   0.00000  Uiso   1.00
C458   C     0.24224   0.62091   0.22723   0.00000  Uiso   1.00
C459   C     0.20918   0.64264   0.22369   0.00000  Uiso   1.00
C460   C     0.15632   0.77215   0.23456   0.00000  Uiso   1.00
C461   C     0.11871   0.76154   0.22658   0.00000  Uiso   1.00
C462   C     0.11114   0.72348   0.21747   0.00000  Uiso   1.00
C463   C     0.14050   0.69659   0.21753   0.00000  Uiso   1.00
H464   H     0.21605   0.78610   0.06102   0.00000  Uiso   1.00
H465   H     0.24409   0.69196   0.41524   0.00000  Uiso   1.00
H466   H     0.19805   0.96554   0.15837   0.00000  Uiso   1.00
H467   H     0.19992   0.00024   0.09786   0.00000  Uiso   1.00
H468   H     0.30065   0.93821   0.06564   0.00000  Uiso   1.00
H469   H     0.29831   0.90312   0.12566   0.00000  Uiso   1.00
H470   H     0.24836   0.93124   0.01438   0.00000  Uiso   1.00
H471   H     0.20071   0.08740   0.03581   0.00000  Uiso   1.00
H472   H     0.20757   0.14281   0.07719   0.00000  Uiso   1.00
H473   H     0.30272   0.08980   0.13311   0.00000  Uiso   1.00
H474   H     0.29705   0.03462   0.09048   0.00000  Uiso   1.00
H475   H     0.30527   0.69251   0.24233   0.00000  Uiso   1.00
H476   H     0.24030   0.59025   0.22517   0.00000  Uiso   1.00
H477   H     0.18244   0.62828   0.21914   0.00000  Uiso   1.00
H478   H     0.16329   0.80139   0.24069   0.00000  Uiso   1.00
H479   H     0.08245   0.71451   0.21080   0.00000  Uiso   1.00
H480   H     0.13387   0.66744   0.21059   0.00000  Uiso   1.00
C481   C     0.81771   0.72724   0.28853   0.00000  Uiso   1.00
N482   N     0.74576   0.59334   0.32160   0.00000  Uiso   1.00
C483   C     0.70999   0.72753   0.41206   0.00000  Uiso   1.00
C484   C     0.79173   0.72623   0.32229   0.00000  Uiso   1.00
N485   N     0.84562   0.87053   0.26292   0.00000  Uiso   1.00
C486   C     0.73917   0.81167   0.11498   0.00000  Uiso   1.00
N487   N     0.80139   0.73369   0.25392   0.00000  Uiso   1.00
N488   N     0.73382   0.68432   0.24566   0.00000  Uiso   1.00
C489   C     0.74850   0.56809   0.35343   0.00000  Uiso   1.00
C490   C     0.72119   0.53984   0.36113   0.00000  Uiso   1.00
C491   C     0.72219   0.52002   0.39571   0.00000  Uiso   1.00
C492   C     0.75047   0.52816   0.42271   0.00000  Uiso   1.00
C493   C     0.77857   0.55509   0.41397   0.00000  Uiso   1.00
C494   C     0.77735   0.57499   0.37980   0.00000  Uiso   1.00
C495   C     0.74874   0.51251   0.46177   0.00000  Uiso   1.00
C496   C     0.74810   0.53859   0.49199   0.00000  Uiso   1.00
C497   C     0.74790   0.52682   0.53013   0.00000  Uiso   1.00
C498   C     0.74844   0.44319   0.44016   0.00000  Uiso   1.00
C499   C     0.72297   0.41253   0.44291   0.00000  Uiso   1.00
C500   C     0.72699   0.38083   0.41949   0.00000  Uiso   1.00
C501   C     0.75638   0.37932   0.39254   0.00000  Uiso   1.00
C502   C     0.78019   0.41089   0.38784   0.00000  Uiso   1.00
C503   C     0.77669   0.44243   0.41190   0.00000  Uiso   1.00
C504   C     0.77875   0.82180   0.26347   0.00000  Uiso   1.00
C505   C     0.77745   0.86151   0.26632   0.00000  Uiso   1.00
C506   C     0.74224   0.87909   0.27277   0.00000  Uiso   1.00
C507   C     0.70918   0.85736   0.27631   0.00000  Uiso   1.00
C508   C     0.65632   0.72785   0.26544   0.00000  Uiso   1.00
C509   C     0.61871   0.73846   0.27342   0.00000  Uiso   1.00
C510   C     0.61114   0.77652   0.28253   0.00000  Uiso   1.00
C511   C     0.64050   0.80341   0.28247   0.00000  Uiso   1.00
H512   H     0.71605   0.71390   0.43898   0.00000  Uiso   1.00
H513   H     0.74409   0.80804   0.08476   0.00000  Uiso   1.00
H514   H     0.69805   0.53446   0.34163   0.00000  Uiso   1.00
H515   H     0.69992   0.49976   0.40214   0.00000  Uiso   1.00
H516   H     0.80065   0.56179   0.43436   0.00000  Uiso   1.00
H517   H     0.79831   0.59688   0.37434   0.00000  Uiso   1.00
H518   H     0.74836   0.56876   0.48562   0.00000  Uiso   1.00
H519   H     0.70071   0.41260   0.46419   0.00000  Uiso   1.00
H520   H     0.70757   0.35719   0.42281   0.00000  Uiso   1.00
H521   H     0.80272   0.41020   0.36689   0.00000  Uiso   1.00
H522   H     0.79705   0.46538   0.40952   0.00000  Uiso   1.00
H523   H     0.80527   0.80749   0.25767   0.00000  Uiso   1.00
H524   H     0.74030   0.90975   0.27483   0.00000  Uiso   1.00
H525   H     0.68244   0.87172   0.28086   0.00000  Uiso   1.00
H526   H     0.66329   0.69861   0.25931   0.00000  Uiso   1.00
H527   H     0.58245   0.78549   0.28920   0.00000  Uiso   1.00
H528   H     0.63387   0.83256   0.28941   0.00000  Uiso   1.00
C529   C     0.31771   0.22724   0.78853   0.00000  Uiso   1.00
N530   N     0.24576   0.09334   0.82160   0.00000  Uiso   1.00
C531   C     0.20999   0.22753   0.91206   0.00000  Uiso   1.00
C532   C     0.29173   0.22623   0.82229   0.00000  Uiso   1.00
N533   N     0.34562   0.37053   0.76292   0.00000  Uiso   1.00
C534   C     0.23917   0.31167   0.61498   0.00000  Uiso   1.00
N535   N     0.30139   0.23369   0.75392   0.00000  Uiso   1.00
N536   N     0.23382   0.18432   0.74566   0.00000  Uiso   1.00
C537   C     0.24850   0.06809   0.85343   0.00000  Uiso   1.00
C538   C     0.22119   0.03984   0.86113   0.00000  Uiso   1.00
C539   C     0.22219   0.02002   0.89571   0.00000  Uiso   1.00
C540   C     0.25047   0.02816   0.92271   0.00000  Uiso   1.00
C541   C     0.27857   0.05509   0.91397   0.00000  Uiso   1.00
C542   C     0.27735   0.07499   0.87980   0.00000  Uiso   1.00
C543   C     0.24874   0.01251   0.96177   0.00000  Uiso   1.00
C544   C     0.24810   0.03859   0.99199   0.00000  Uiso   1.00
C545   C     0.24790   0.02682   0.03013   0.00000  Uiso   1.00
C546   C     0.24844   0.94319   0.94016   0.00000  Uiso   1.00
C547   C     0.22297   0.91253   0.94291   0.00000  Uiso   1.00
C548   C     0.22699   0.88083   0.91949   0.00000  Uiso   1.00
C549   C     0.25638   0.87932   0.89254   0.00000  Uiso   1.00
C550   C     0.28019   0.91089   0.88784   0.00000  Uiso   1.00
C551   C     0.27669   0.94243   0.91190   0.00000  Uiso   1.00
C552   C     0.27875   0.32180   0.76347   0.00000  Uiso   1.00
C553   C     0.27745   0.36151   0.76632   0.00000  Uiso   1.00
C554   C     0.24224   0.37909   0.77277   0.00000  Uiso   1.00
C555   C     0.20918   0.35736   0.77631   0.00000  Uiso   1.00
C556   C     0.15632   0.22785   0.76544   0.00000  Uiso   1.00
C557   C     0.11871   0.23846   0.77342   0.00000  Uiso   1.00
C558   C     0.11114   0.27652   0.78253   0.00000  Uiso   1.00
C559   C     0.14050   0.30341   0.78247   0.00000  Uiso   1.00
H560   H     0.21605   0.21390   0.93898   0.00000  Uiso   1.00
H561   H     0.24409   0.30804   0.58476   0.00000  Uiso   1.00
H562   H     0.19805   0.03446   0.84163   0.00000  Uiso   1.00
H563   H     0.19992   0.99976   0.90214   0.00000  Uiso   1.00
H564   H     0.30065   0.06179   0.93436   0.00000  Uiso   1.00
H565   H     0.29831   0.09688   0.87434   0.00000  Uiso   1.00
H566   H     0.24836   0.06876   0.98562   0.00000  Uiso   1.00
H567   H     0.20071   0.91260   0.96419   0.00000  Uiso   1.00
H568   H     0.20757   0.85719   0.92281   0.00000  Uiso   1.00
H569   H     0.30272   0.91020   0.86689   0.00000  Uiso   1.00
H570   H     0.29705   0.96538   0.90952   0.00000  Uiso   1.00
H571   H     0.30527   0.30749   0.75767   0.00000  Uiso   1.00
H572   H     0.24030   0.40975   0.77483   0.00000  Uiso   1.00
H573   H     0.18244   0.37172   0.78086   0.00000  Uiso   1.00
H574   H     0.16329   0.19861   0.75931   0.00000  Uiso   1.00
H575   H     0.08245   0.28549   0.78920   0.00000  Uiso   1.00
H576   H     0.13387   0.33256   0.78941   0.00000  Uiso   1.00
C577   C     0.18229   0.72724   0.71147   0.00000  Uiso   1.00
N578   N     0.25424   0.59334   0.67840   0.00000  Uiso   1.00
C579   C     0.29001   0.72753   0.58794   0.00000  Uiso   1.00
C580   C     0.20827   0.72623   0.67771   0.00000  Uiso   1.00
N581   N     0.15438   0.87053   0.73708   0.00000  Uiso   1.00
C582   C     0.26083   0.81167   0.88502   0.00000  Uiso   1.00
N583   N     0.19861   0.73369   0.74608   0.00000  Uiso   1.00
N584   N     0.26618   0.68432   0.75434   0.00000  Uiso   1.00
C585   C     0.25150   0.56809   0.64657   0.00000  Uiso   1.00
C586   C     0.27881   0.53984   0.63887   0.00000  Uiso   1.00
C587   C     0.27781   0.52002   0.60429   0.00000  Uiso   1.00
C588   C     0.24953   0.52816   0.57729   0.00000  Uiso   1.00
C589   C     0.22143   0.55509   0.58603   0.00000  Uiso   1.00
C590   C     0.22265   0.57499   0.62020   0.00000  Uiso   1.00
C591   C     0.25126   0.51251   0.53823   0.00000  Uiso   1.00
C592   C     0.25190   0.53859   0.50801   0.00000  Uiso   1.00
C593   C     0.25210   0.52682   0.46987   0.00000  Uiso   1.00
C594   C     0.25156   0.44319   0.55984   0.00000  Uiso   1.00
C595   C     0.27703   0.41253   0.55709   0.00000  Uiso   1.00
C596   C     0.27301   0.38083   0.58051   0.00000  Uiso   1.00
C597   C     0.24362   0.37932   0.60746   0.00000  Uiso   1.00
C598   C     0.21981   0.41089   0.61216   0.00000  Uiso   1.00
C599   C     0.22331   0.44243   0.58810   0.00000  Uiso   1.00
C600   C     0.22125   0.82180   0.73653   0.00000  Uiso   1.00
C601   C     0.22255   0.86151   0.73368   0.00000  Uiso   1.00
C602   C     0.25776   0.87909   0.72723   0.00000  Uiso   1.00
C603   C     0.29082   0.85736   0.72369   0.00000  Uiso   1.00
C604   C     0.34368   0.72785   0.73456   0.00000  Uiso   1.00
C605   C     0.38129   0.73846   0.72658   0.00000  Uiso   1.00
C606   C     0.38886   0.77652   0.71747   0.00000  Uiso   1.00
C607   C     0.35950   0.80341   0.71753   0.00000  Uiso   1.00
H608   H     0.28395   0.71390   0.56102   0.00000  Uiso   1.00
H609   H     0.25591   0.80804   0.91524   0.00000  Uiso   1.00
H610   H     0.30195   0.53446   0.65837   0.00000  Uiso   1.00
H611   H     0.30008   0.49976   0.59786   0.00000  Uiso   1.00
H612   H     0.19935   0.56179   0.56564   0.00000  Uiso   1.00
H613   H     0.20169   0.59688   0.62566   0.00000  Uiso   1.00
H614   H     0.25164   0.56876   0.51438   0.00000  Uiso   1.00
H615   H     0.29929   0.41260   0.53581   0.00000  Uiso   1.00
H616   H     0.29243   0.35719   0.57719   0.00000  Uiso   1.00
H617   H     0.19728   0.41020   0.63311   0.00000  Uiso   1.00
H618   H     0.20295   0.46538   0.59048   0.00000  Uiso   1.00
H619   H     0.19473   0.80749   0.74233   0.00000  Uiso   1.00
H620   H     0.25970   0.90975   0.72517   0.00000  Uiso   1.00
H621   H     0.31756   0.87172   0.71914   0.00000  Uiso   1.00
H622   H     0.33671   0.69861   0.74069   0.00000  Uiso   1.00
H623   H     0.41755   0.78549   0.71080   0.00000  Uiso   1.00
H624   H     0.36613   0.83256   0.71059   0.00000  Uiso   1.00
C625   C     0.68229   0.22724   0.21147   0.00000  Uiso   1.00
N626   N     0.75424   0.09334   0.17840   0.00000  Uiso   1.00
C627   C     0.79001   0.22753   0.08794   0.00000  Uiso   1.00
C628   C     0.70827   0.22623   0.17771   0.00000  Uiso   1.00
N629   N     0.65438   0.37053   0.23708   0.00000  Uiso   1.00
C630   C     0.76083   0.31167   0.38502   0.00000  Uiso   1.00
N631   N     0.69861   0.23369   0.24608   0.00000  Uiso   1.00
N632   N     0.76618   0.18432   0.25434   0.00000  Uiso   1.00
C633   C     0.75150   0.06809   0.14657   0.00000  Uiso   1.00
C634   C     0.77881   0.03984   0.13887   0.00000  Uiso   1.00
C635   C     0.77781   0.02002   0.10429   0.00000  Uiso   1.00
C636   C     0.74953   0.02816   0.07729   0.00000  Uiso   1.00
C637   C     0.72143   0.05509   0.08603   0.00000  Uiso   1.00
C638   C     0.72265   0.07499   0.12020   0.00000  Uiso   1.00
C639   C     0.75126   0.01251   0.03823   0.00000  Uiso   1.00
C640   C     0.75190   0.03859   0.00801   0.00000  Uiso   1.00
C641   C     0.75210   0.02682   0.96987   0.00000  Uiso   1.00
C642   C     0.75156   0.94319   0.05984   0.00000  Uiso   1.00
C643   C     0.77703   0.91253   0.05709   0.00000  Uiso   1.00
C644   C     0.77301   0.88083   0.08051   0.00000  Uiso   1.00
C645   C     0.74362   0.87932   0.10746   0.00000  Uiso   1.00
C646   C     0.71981   0.91089   0.11216   0.00000  Uiso   1.00
C647   C     0.72331   0.94243   0.08810   0.00000  Uiso   1.00
C648   C     0.72125   0.32180   0.23653   0.00000  Uiso   1.00
C649   C     0.72255   0.36151   0.23368   0.00000  Uiso   1.00
C650   C     0.75776   0.37909   0.22723   0.00000  Uiso   1.00
C651   C     0.79082   0.35736   0.22369   0.00000  Uiso   1.00
C652   C     0.84368   0.22785   0.23456   0.00000  Uiso   1.00
C653   C     0.88129   0.23846   0.22658   0.00000  Uiso   1.00
C654   C     0.88886   0.27652   0.21747   0.00000  Uiso   1.00
C655   C     0.85950   0.30341   0.21753   0.00000  Uiso   1.00
H656   H     0.78395   0.21390   0.06102   0.00000  Uiso   1.00
H657   H     0.75591   0.30804   0.41524   0.00000  Uiso   1.00
H658   H     0.80195   0.03446   0.15837   0.00000  Uiso   1.00
H659   H     0.80008   0.99976   0.09786   0.00000  Uiso   1.00
H660   H     0.69935   0.06179   0.06564   0.00000  Uiso   1.00
H661   H     0.70169   0.09688   0.12566   0.00000  Uiso   1.00
H662   H     0.75164   0.06876   0.01438   0.00000  Uiso   1.00
H663   H     0.79929   0.91260   0.03581   0.00000  Uiso   1.00
H664   H     0.79243   0.85719   0.07719   0.00000  Uiso   1.00
H665   H     0.69728   0.91020   0.13311   0.00000  Uiso   1.00
H666   H     0.70295   0.96538   0.09048   0.00000  Uiso   1.00
H667   H     0.69473   0.30749   0.24233   0.00000  Uiso   1.00
H668   H     0.75970   0.40975   0.22517   0.00000  Uiso   1.00
H669   H     0.81756   0.37172   0.21914   0.00000  Uiso   1.00
H670   H     0.83671   0.19861   0.24069   0.00000  Uiso   1.00
H671   H     0.91755   0.28549   0.21080   0.00000  Uiso   1.00
H672   H     0.86613   0.33256   0.21059   0.00000  Uiso   1.00
C673   C     0.18229   0.27276   0.28853   0.00000  Uiso   1.00
N674   N     0.25424   0.40666   0.32160   0.00000  Uiso   1.00
C675   C     0.29001   0.27247   0.41206   0.00000  Uiso   1.00
C676   C     0.20827   0.27377   0.32229   0.00000  Uiso   1.00
N677   N     0.15438   0.12947   0.26292   0.00000  Uiso   1.00
C678   C     0.26083   0.18833   0.11498   0.00000  Uiso   1.00
N679   N     0.19861   0.26631   0.25392   0.00000  Uiso   1.00
N680   N     0.26618   0.31568   0.24566   0.00000  Uiso   1.00
C681   C     0.25150   0.43191   0.35343   0.00000  Uiso   1.00
C682   C     0.27881   0.46016   0.36113   0.00000  Uiso   1.00
C683   C     0.27781   0.47998   0.39571   0.00000  Uiso   1.00
C684   C     0.24953   0.47184   0.42271   0.00000  Uiso   1.00
C685   C     0.22143   0.44491   0.41397   0.00000  Uiso   1.00
C686   C     0.22265   0.42501   0.37980   0.00000  Uiso   1.00
C687   C     0.25126   0.48749   0.46177   0.00000  Uiso   1.00
C688   C     0.25190   0.46141   0.49199   0.00000  Uiso   1.00
C689   C     0.25210   0.47318   0.53013   0.00000  Uiso   1.00
C690   C     0.25156   0.55681   0.44016   0.00000  Uiso   1.00
C691   C     0.27703   0.58747   0.44291   0.00000  Uiso   1.00
C692   C     0.27301   0.61917   0.41949   0.00000  Uiso   1.00
C693   C     0.24362   0.62068   0.39254   0.00000  Uiso   1.00
C694   C     0.21981   0.58911   0.38784   0.00000  Uiso   1.00
C695   C     0.22331   0.55757   0.41190   0.00000  Uiso   1.00
C696   C     0.22125   0.17820   0.26347   0.00000  Uiso   1.00
C697   C     0.22255   0.13849   0.26632   0.00000  Uiso   1.00
C698   C     0.25776   0.12091   0.27277   0.00000  Uiso   1.00
C699   C     0.29082   0.14264   0.27631   0.00000  Uiso   1.00
C700   C     0.34368   0.27215   0.26544   0.00000  Uiso   1.00
C701   C     0.38129   0.26154   0.27342   0.00000  Uiso   1.00
C702   C     0.38886   0.22348   0.28253   0.00000  Uiso   1.00
C703   C     0.35950   0.19659   0.28247   0.00000  Uiso   1.00
H704   H     0.28395   0.28610   0.43898   0.00000  Uiso   1.00
H705   H     0.25591   0.19196   0.08476   0.00000  Uiso   1.00
H706   H     0.30195   0.46554   0.34163   0.00000  Uiso   1.00
H707   H     0.30008   0.50024   0.40214   0.00000  Uiso   1.00
H708   H     0.19935   0.43821   0.43436   0.00000  Uiso   1.00
H709   H     0.20169   0.40312   0.37434   0.00000  Uiso   1.00
H710   H     0.25164   0.43124   0.48562   0.00000  Uiso   1.00
H711   H     0.29929   0.58740   0.46419   0.00000  Uiso   1.00
H712   H     0.29243   0.64281   0.42281   0.00000  Uiso   1.00
H713   H     0.19728   0.58980   0.36689   0.00000  Uiso   1.00
H714   H     0.20295   0.53462   0.40952   0.00000  Uiso   1.00
H715   H     0.19473   0.19251   0.25767   0.00000  Uiso   1.00
H716   H     0.25970   0.09025   0.27483   0.00000  Uiso   1.00
H717   H     0.31756   0.12828   0.28086   0.00000  Uiso   1.00
H718   H     0.33671   0.30139   0.25931   0.00000  Uiso   1.00
H719   H     0.41755   0.21451   0.28920   0.00000  Uiso   1.00
H720   H     0.36613   0.16744   0.28941   0.00000  Uiso   1.00
C721   C     0.68229   0.77276   0.78853   0.00000  Uiso   1.00
N722   N     0.75424   0.90666   0.82160   0.00000  Uiso   1.00
C723   C     0.79001   0.77247   0.91206   0.00000  Uiso   1.00
C724   C     0.70827   0.77377   0.82229   0.00000  Uiso   1.00
N725   N     0.65438   0.62947   0.76292   0.00000  Uiso   1.00
C726   C     0.76083   0.68833   0.61498   0.00000  Uiso   1.00
N727   N     0.69861   0.76631   0.75392   0.00000  Uiso   1.00
N728   N     0.76618   0.81568   0.74566   0.00000  Uiso   1.00
C729   C     0.75150   0.93191   0.85343   0.00000  Uiso   1.00
C730   C     0.77881   0.96016   0.86113   0.00000  Uiso   1.00
C731   C     0.77781   0.97998   0.89571   0.00000  Uiso   1.00
C732   C     0.74953   0.97184   0.92271   0.00000  Uiso   1.00
C733   C     0.72143   0.94491   0.91397   0.00000  Uiso   1.00
C734   C     0.72265   0.92501   0.87980   0.00000  Uiso   1.00
C735   C     0.75126   0.98749   0.96177   0.00000  Uiso   1.00
C736   C     0.75190   0.96141   0.99199   0.00000  Uiso   1.00
C737   C     0.75210   0.97318   0.03013   0.00000  Uiso   1.00
C738   C     0.75156   0.05681   0.94016   0.00000  Uiso   1.00
C739   C     0.77703   0.08747   0.94291   0.00000  Uiso   1.00
C740   C     0.77301   0.11917   0.91949   0.00000  Uiso   1.00
C741   C     0.74362   0.12068   0.89254   0.00000  Uiso   1.00
C742   C     0.71981   0.08911   0.88784   0.00000  Uiso   1.00
C743   C     0.72331   0.05757   0.91190   0.00000  Uiso   1.00
C744   C     0.72125   0.67820   0.76347   0.00000  Uiso   1.00
C745   C     0.72255   0.63849   0.76632   0.00000  Uiso   1.00
C746   C     0.75776   0.62091   0.77277   0.00000  Uiso   1.00
C747   C     0.79082   0.64264   0.77631   0.00000  Uiso   1.00
C748   C     0.84368   0.77215   0.76544   0.00000  Uiso   1.00
C749   C     0.88129   0.76154   0.77342   0.00000  Uiso   1.00
C750   C     0.88886   0.72348   0.78253   0.00000  Uiso   1.00
C751   C     0.85950   0.69659   0.78247   0.00000  Uiso   1.00
H752   H     0.78395   0.78610   0.93898   0.00000  Uiso   1.00
H753   H     0.75591   0.69196   0.58476   0.00000  Uiso   1.00
H754   H     0.80195   0.96554   0.84163   0.00000  Uiso   1.00
H755   H     0.80008   0.00024   0.90214   0.00000  Uiso   1.00
H756   H     0.69935   0.93821   0.93436   0.00000  Uiso   1.00
H757   H     0.70169   0.90312   0.87434   0.00000  Uiso   1.00
H758   H     0.75164   0.93124   0.98562   0.00000  Uiso   1.00
H759   H     0.79929   0.08740   0.96419   0.00000  Uiso   1.00
H760   H     0.79243   0.14281   0.92281   0.00000  Uiso   1.00
H761   H     0.69728   0.08980   0.86689   0.00000  Uiso   1.00
H762   H     0.70295   0.03462   0.90952   0.00000  Uiso   1.00
H763   H     0.69473   0.69251   0.75767   0.00000  Uiso   1.00
H764   H     0.75970   0.59025   0.77483   0.00000  Uiso   1.00
H765   H     0.81756   0.62828   0.78086   0.00000  Uiso   1.00
H766   H     0.83671   0.80139   0.75931   0.00000  Uiso   1.00
H767   H     0.91755   0.71451   0.78920   0.00000  Uiso   1.00
H768   H     0.86613   0.66744   0.78941   0.00000  Uiso   1.00
C769   C     0.71147   0.81771   0.27276   0.00000  Uiso   1.00
N770   N     0.67840   0.74576   0.40666   0.00000  Uiso   1.00
C771   C     0.58794   0.70999   0.27247   0.00000  Uiso   1.00
C772   C     0.67771   0.79173   0.27377   0.00000  Uiso   1.00
N773   N     0.73708   0.84562   0.12947   0.00000  Uiso   1.00
C774   C     0.88502   0.73917   0.18833   0.00000  Uiso   1.00
N775   N     0.74608   0.80139   0.26631   0.00000  Uiso   1.00
N776   N     0.75434   0.73382   0.31568   0.00000  Uiso   1.00
C777   C     0.64657   0.74850   0.43191   0.00000  Uiso   1.00
C778   C     0.63887   0.72119   0.46016   0.00000  Uiso   1.00
C779   C     0.60429   0.72219   0.47998   0.00000  Uiso   1.00
C780   C     0.57729   0.75047   0.47184   0.00000  Uiso   1.00
C781   C     0.58603   0.77857   0.44491   0.00000  Uiso   1.00
C782   C     0.62020   0.77735   0.42501   0.00000  Uiso   1.00
C783   C     0.53823   0.74874   0.48749   0.00000  Uiso   1.00
C784   C     0.50801   0.74810   0.46141   0.00000  Uiso   1.00
C785   C     0.46987   0.74790   0.47318   0.00000  Uiso   1.00
C786   C     0.55984   0.74844   0.55681   0.00000  Uiso   1.00
C787   C     0.55709   0.72297   0.58747   0.00000  Uiso   1.00
C788   C     0.58051   0.72699   0.61917   0.00000  Uiso   1.00
C789   C     0.60746   0.75638   0.62068   0.00000  Uiso   1.00
C790   C     0.61216   0.78019   0.58911   0.00000  Uiso   1.00
C791   C     0.58810   0.77669   0.55757   0.00000  Uiso   1.00
C792   C     0.73653   0.77875   0.17820   0.00000  Uiso   1.00
C793   C     0.73368   0.77745   0.13849   0.00000  Uiso   1.00
C794   C     0.72723   0.74224   0.12091   0.00000  Uiso   1.00
C795   C     0.72369   0.70918   0.14264   0.00000  Uiso   1.00
C796   C     0.73456   0.65632   0.27215   0.00000  Uiso   1.00
C797   C     0.72658   0.61871   0.26154   0.00000  Uiso   1.00
C798   C     0.71747   0.61114   0.22348   0.00000  Uiso   1.00
C799   C     0.71753   0.64050   0.19659   0.00000  Uiso   1.00
H800   H     0.56102   0.71605   0.28610   0.00000  Uiso   1.00
H801   H     0.91524   0.74409   0.19196   0.00000  Uiso   1.00
H802   H     0.65837   0.69805   0.46554   0.00000  Uiso   1.00
H803   H     0.59786   0.69992   0.50024   0.00000  Uiso   1.00
H804   H     0.56564   0.80065   0.43821   0.00000  Uiso   1.00
H805   H     0.62566   0.79831   0.40312   0.00000  Uiso   1.00
H806   H     0.51438   0.74836   0.43124   0.00000  Uiso   1.00
H807   H     0.53581   0.70071   0.58740   0.00000  Uiso   1.00
H808   H     0.57719   0.70757   0.64281   0.00000  Uiso   1.00
H809   H     0.63311   0.80272   0.58980   0.00000  Uiso   1.00
H810   H     0.59048   0.79705   0.53462   0.00000  Uiso   1.00
H811   H     0.74233   0.80527   0.19251   0.00000  Uiso   1.00
H812   H     0.72517   0.74030   0.09025   0.00000  Uiso   1.00
H813   H     0.71914   0.68244   0.12828   0.00000  Uiso   1.00
H814   H     0.74069   0.66329   0.30139   0.00000  Uiso   1.00
H815   H     0.71080   0.58245   0.21451   0.00000  Uiso   1.00
H816   H     0.71059   0.63387   0.16744   0.00000  Uiso   1.00
C817   C     0.21147   0.31771   0.77276   0.00000  Uiso   1.00
N818   N     0.17840   0.24576   0.90666   0.00000  Uiso   1.00
C819   C     0.08794   0.20999   0.77247   0.00000  Uiso   1.00
C820   C     0.17771   0.29173   0.77377   0.00000  Uiso   1.00
N821   N     0.23708   0.34562   0.62947   0.00000  Uiso   1.00
C822   C     0.38502   0.23917   0.68833   0.00000  Uiso   1.00
N823   N     0.24608   0.30139   0.76631   0.00000  Uiso   1.00
N824   N     0.25434   0.23382   0.81568   0.00000  Uiso   1.00
C825   C     0.14657   0.24850   0.93191   0.00000  Uiso   1.00
C826   C     0.13887   0.22119   0.96016   0.00000  Uiso   1.00
C827   C     0.10429   0.22219   0.97998   0.00000  Uiso   1.00
C828   C     0.07729   0.25047   0.97184   0.00000  Uiso   1.00
C829   C     0.08603   0.27857   0.94491   0.00000  Uiso   1.00
C830   C     0.12020   0.27735   0.92501   0.00000  Uiso   1.00
C831   C     0.03823   0.24874   0.98749   0.00000  Uiso   1.00
C832   C     0.00801   0.24810   0.96141   0.00000  Uiso   1.00
C833   C     0.96987   0.24790   0.97318   0.00000  Uiso   1.00
C834   C     0.05984   0.24844   0.05681   0.00000  Uiso   1.00
C835   C     0.05709   0.22297   0.08747   0.00000  Uiso   1.00
C836   C     0.08051   0.22699   0.11917   0.00000  Uiso   1.00
C837   C     0.10746   0.25638   0.12068   0.00000  Uiso   1.00
C838   C     0.11216   0.28019   0.08911   0.00000  Uiso   1.00
C839   C     0.08810   0.27669   0.05757   0.00000  Uiso   1.00
C840   C     0.23653   0.27875   0.67820   0.00000  Uiso   1.00
C841   C     0.23368   0.27745   0.63849   0.00000  Uiso   1.00
C842   C     0.22723   0.24224   0.62091   0.00000  Uiso   1.00
C843   C     0.22369   0.20918   0.64264   0.00000  Uiso   1.00
C844   C     0.23456   0.15632   0.77215   0.00000  Uiso   1.00
C845   C     0.22658   0.11871   0.76154   0.00000  Uiso   1.00
C846   C     0.21747   0.11114   0.72348   0.00000  Uiso   1.00
C847   C     0.21753   0.14050   0.69659   0.00000  Uiso   1.00
H848   H     0.06102   0.21605   0.78610   0.00000  Uiso   1.00
H849   H     0.41524   0.24409   0.69196   0.00000  Uiso   1.00
H850   H     0.15837   0.19805   0.96554   0.00000  Uiso   1.00
H851   H     0.09786   0.19992   0.00024   0.00000  Uiso   1.00
H852   H     0.06564   0.30065   0.93821   0.00000  Uiso   1.00
H853   H     0.12566   0.29831   0.90312   0.00000  Uiso   1.00
H854   H     0.01438   0.24836   0.93124   0.00000  Uiso   1.00
H855   H     0.03581   0.20071   0.08740   0.00000  Uiso   1.00
H856   H     0.07719   0.20757   0.14281   0.00000  Uiso   1.00
H857   H     0.13311   0.30272   0.08980   0.00000  Uiso   1.00
H858   H     0.09048   0.29705   0.03462   0.00000  Uiso   1.00
H859   H     0.24233   0.30527   0.69251   0.00000  Uiso   1.00
H860   H     0.22517   0.24030   0.59025   0.00000  Uiso   1.00
H861   H     0.21914   0.18244   0.62828   0.00000  Uiso   1.00
H862   H     0.24069   0.16329   0.80139   0.00000  Uiso   1.00
H863   H     0.21080   0.08245   0.71451   0.00000  Uiso   1.00
H864   H     0.21059   0.13387   0.66744   0.00000  Uiso   1.00
C865   C     0.28853   0.81771   0.72724   0.00000  Uiso   1.00
N866   N     0.32160   0.74576   0.59334   0.00000  Uiso   1.00
C867   C     0.41206   0.70999   0.72753   0.00000  Uiso   1.00
C868   C     0.32229   0.79173   0.72623   0.00000  Uiso   1.00
N869   N     0.26292   0.84562   0.87053   0.00000  Uiso   1.00
C870   C     0.11498   0.73917   0.81167   0.00000  Uiso   1.00
N871   N     0.25392   0.80139   0.73369   0.00000  Uiso   1.00
N872   N     0.24566   0.73382   0.68432   0.00000  Uiso   1.00
C873   C     0.35343   0.74850   0.56809   0.00000  Uiso   1.00
C874   C     0.36113   0.72119   0.53984   0.00000  Uiso   1.00
C875   C     0.39571   0.72219   0.52002   0.00000  Uiso   1.00
C876   C     0.42271   0.75047   0.52816   0.00000  Uiso   1.00
C877   C     0.41397   0.77857   0.55509   0.00000  Uiso   1.00
C878   C     0.37980   0.77735   0.57499   0.00000  Uiso   1.00
C879   C     0.46177   0.74874   0.51251   0.00000  Uiso   1.00
C880   C     0.49199   0.74810   0.53859   0.00000  Uiso   1.00
C881   C     0.53013   0.74790   0.52682   0.00000  Uiso   1.00
C882   C     0.44016   0.74844   0.44319   0.00000  Uiso   1.00
C883   C     0.44291   0.72297   0.41253   0.00000  Uiso   1.00
C884   C     0.41949   0.72699   0.38083   0.00000  Uiso   1.00
C885   C     0.39254   0.75638   0.37932   0.00000  Uiso   1.00
C886   C     0.38784   0.78019   0.41089   0.00000  Uiso   1.00
C887   C     0.41190   0.77669   0.44243   0.00000  Uiso   1.00
C888   C     0.26347   0.77875   0.82180   0.00000  Uiso   1.00
C889   C     0.26632   0.77745   0.86151   0.00000  Uiso   1.00
C890   C     0.27277   0.74224   0.87909   0.00000  Uiso   1.00
C891   C     0.27631   0.70918   0.85736   0.00000  Uiso   1.00
C892   C     0.26544   0.65632   0.72785   0.00000  Uiso   1.00
C893   C     0.27342   0.61871   0.73846   0.00000  Uiso   1.00
C894   C     0.28253   0.61114   0.77652   0.00000  Uiso   1.00
C895   C     0.28247   0.64050   0.80341   0.00000  Uiso   1.00
H896   H     0.43898   0.71605   0.71390   0.00000  Uiso   1.00
H897   H     0.08476   0.74409   0.80804   0.00000  Uiso   1.00
H898   H     0.34163   0.69805   0.53446   0.00000  Uiso   1.00
H899   H     0.40214   0.69992   0.49976   0.00000  Uiso   1.00
H900   H     0.43436   0.80065   0.56179   0.00000  Uiso   1.00
H901   H     0.37434   0.79831   0.59688   0.00000  Uiso   1.00
H902   H     0.48562   0.74836   0.56876   0.00000  Uiso   1.00
H903   H     0.46419   0.70071   0.41260   0.00000  Uiso   1.00
H904   H     0.42281   0.70757   0.35719   0.00000  Uiso   1.00
H905   H     0.36689   0.80272   0.41020   0.00000  Uiso   1.00
H906   H     0.40952   0.79705   0.46538   0.00000  Uiso   1.00
H907   H     0.25767   0.80527   0.80749   0.00000  Uiso   1.00
H908   H     0.27483   0.74030   0.90975   0.00000  Uiso   1.00
H909   H     0.28086   0.68244   0.87172   0.00000  Uiso   1.00
H910   H     0.25931   0.66329   0.69861   0.00000  Uiso   1.00
H911   H     0.28920   0.58245   0.78549   0.00000  Uiso   1.00
H912   H     0.28941   0.63387   0.83256   0.00000  Uiso   1.00
C913   C     0.78853   0.31771   0.22724   0.00000  Uiso   1.00
N914   N     0.82160   0.24576   0.09334   0.00000  Uiso   1.00
C915   C     0.91206   0.20999   0.22753   0.00000  Uiso   1.00
C916   C     0.82229   0.29173   0.22623   0.00000  Uiso   1.00
N917   N     0.76292   0.34562   0.37053   0.00000  Uiso   1.00
C918   C     0.61498   0.23917   0.31167   0.00000  Uiso   1.00
N919   N     0.75392   0.30139   0.23369   0.00000  Uiso   1.00
N920   N     0.74566   0.23382   0.18432   0.00000  Uiso   1.00
C921   C     0.85343   0.24850   0.06809   0.00000  Uiso   1.00
C922   C     0.86113   0.22119   0.03984   0.00000  Uiso   1.00
C923   C     0.89571   0.22219   0.02002   0.00000  Uiso   1.00
C924   C     0.92271   0.25047   0.02816   0.00000  Uiso   1.00
C925   C     0.91397   0.27857   0.05509   0.00000  Uiso   1.00
C926   C     0.87980   0.27735   0.07499   0.00000  Uiso   1.00
C927   C     0.96177   0.24874   0.01251   0.00000  Uiso   1.00
C928   C     0.99199   0.24810   0.03859   0.00000  Uiso   1.00
C929   C     0.03013   0.24790   0.02682   0.00000  Uiso   1.00
C930   C     0.94016   0.24844   0.94319   0.00000  Uiso   1.00
C931   C     0.94291   0.22297   0.91253   0.00000  Uiso   1.00
C932   C     0.91949   0.22699   0.88083   0.00000  Uiso   1.00
C933   C     0.89254   0.25638   0.87932   0.00000  Uiso   1.00
C934   C     0.88784   0.28019   0.91089   0.00000  Uiso   1.00
C935   C     0.91190   0.27669   0.94243   0.00000  Uiso   1.00
C936   C     0.76347   0.27875   0.32180   0.00000  Uiso   1.00
C937   C     0.76632   0.27745   0.36151   0.00000  Uiso   1.00
C938   C     0.77277   0.24224   0.37909   0.00000  Uiso   1.00
C939   C     0.77631   0.20918   0.35736   0.00000  Uiso   1.00
C940   C     0.76544   0.15632   0.22785   0.00000  Uiso   1.00
C941   C     0.77342   0.11871   0.23846   0.00000  Uiso   1.00
C942   C     0.78253   0.11114   0.27652   0.00000  Uiso   1.00
C943   C     0.78247   0.14050   0.30341   0.00000  Uiso   1.00
H944   H     0.93898   0.21605   0.21390   0.00000  Uiso   1.00
H945   H     0.58476   0.24409   0.30804   0.00000  Uiso   1.00
H946   H     0.84163   0.19805   0.03446   0.00000  Uiso   1.00
H947   H     0.90214   0.19992   0.99976   0.00000  Uiso   1.00
H948   H     0.93436   0.30065   0.06179   0.00000  Uiso   1.00
H949   H     0.87434   0.29831   0.09688   0.00000  Uiso   1.00
H950   H     0.98562   0.24836   0.06876   0.00000  Uiso   1.00
H951   H     0.96419   0.20071   0.91260   0.00000  Uiso   1.00
H952   H     0.92281   0.20757   0.85719   0.00000  Uiso   1.00
H953   H     0.86689   0.30272   0.91020   0.00000  Uiso   1.00
H954   H     0.90952   0.29705   0.96538   0.00000  Uiso   1.00
H955   H     0.75767   0.30527   0.30749   0.00000  Uiso   1.00
H956   H     0.77483   0.24030   0.40975   0.00000  Uiso   1.00
H957   H     0.78086   0.18244   0.37172   0.00000  Uiso   1.00
H958   H     0.75931   0.16329   0.19861   0.00000  Uiso   1.00
H959   H     0.78920   0.08245   0.28549   0.00000  Uiso   1.00
H960   H     0.78941   0.13387   0.33256   0.00000  Uiso   1.00
C961   C     0.71147   0.18229   0.72724   0.00000  Uiso   1.00
N962   N     0.67840   0.25424   0.59334   0.00000  Uiso   1.00
C963   C     0.58794   0.29001   0.72753   0.00000  Uiso   1.00
C964   C     0.67771   0.20827   0.72623   0.00000  Uiso   1.00
N965   N     0.73708   0.15438   0.87053   0.00000  Uiso   1.00
C966   C     0.88502   0.26083   0.81167   0.00000  Uiso   1.00
N967   N     0.74608   0.19861   0.73369   0.00000  Uiso   1.00
N968   N     0.75434   0.26618   0.68432   0.00000  Uiso   1.00
C969   C     0.64657   0.25150   0.56809   0.00000  Uiso   1.00
C970   C     0.63887   0.27881   0.53984   0.00000  Uiso   1.00
C971   C     0.60429   0.27781   0.52002   0.00000  Uiso   1.00
C972   C     0.57729   0.24953   0.52816   0.00000  Uiso   1.00
C973   C     0.58603   0.22143   0.55509   0.00000  Uiso   1.00
C974   C     0.62020   0.22265   0.57499   0.00000  Uiso   1.00
C975   C     0.53823   0.25126   0.51251   0.00000  Uiso   1.00
C976   C     0.50801   0.25190   0.53859   0.00000  Uiso   1.00
C977   C     0.46987   0.25210   0.52682   0.00000  Uiso   1.00
C978   C     0.55984   0.25156   0.44319   0.00000  Uiso   1.00
C979   C     0.55709   0.27703   0.41253   0.00000  Uiso   1.00
C980   C     0.58051   0.27301   0.38083   0.00000  Uiso   1.00
C981   C     0.60746   0.24362   0.37932   0.00000  Uiso   1.00
C982   C     0.61216   0.21981   0.41089   0.00000  Uiso   1.00
C983   C     0.58810   0.22331   0.44243   0.00000  Uiso   1.00
C984   C     0.73653   0.22125   0.82180   0.00000  Uiso   1.00
C985   C     0.73368   0.22255   0.86151   0.00000  Uiso   1.00
C986   C     0.72723   0.25776   0.87909   0.00000  Uiso   1.00
C987   C     0.72369   0.29082   0.85736   0.00000  Uiso   1.00
C988   C     0.73456   0.34368   0.72785   0.00000  Uiso   1.00
C989   C     0.72658   0.38129   0.73846   0.00000  Uiso   1.00
C990   C     0.71747   0.38886   0.77652   0.00000  Uiso   1.00
C991   C     0.71753   0.35950   0.80341   0.00000  Uiso   1.00
H992   H     0.56102   0.28395   0.71390   0.00000  Uiso   1.00
H993   H     0.91524   0.25591   0.80804   0.00000  Uiso   1.00
H994   H     0.65837   0.30195   0.53446   0.00000  Uiso   1.00
H995   H     0.59786   0.30008   0.49976   0.00000  Uiso   1.00
H996   H     0.56564   0.19935   0.56179   0.00000  Uiso   1.00
H997   H     0.62566   0.20169   0.59688   0.00000  Uiso   1.00
H998   H     0.51438   0.25164   0.56876   0.00000  Uiso   1.00
H999   H     0.53581   0.29929   0.41260   0.00000  Uiso   1.00
H1000  H     0.57719   0.29243   0.35719   0.00000  Uiso   1.00
H1001  H     0.63311   0.19728   0.41020   0.00000  Uiso   1.00
H1002  H     0.59048   0.20295   0.46538   0.00000  Uiso   1.00
H1003  H     0.74233   0.19473   0.80749   0.00000  Uiso   1.00
H1004  H     0.72517   0.25970   0.90975   0.00000  Uiso   1.00
H1005  H     0.71914   0.31756   0.87172   0.00000  Uiso   1.00
H1006  H     0.74069   0.33671   0.69861   0.00000  Uiso   1.00
H1007  H     0.71080   0.41755   0.78549   0.00000  Uiso   1.00
H1008  H     0.71059   0.36613   0.83256   0.00000  Uiso   1.00
C1009  C     0.21147   0.68229   0.22724   0.00000  Uiso   1.00
N1010  N     0.17840   0.75424   0.09334   0.00000  Uiso   1.00
C1011  C     0.08794   0.79001   0.22753   0.00000  Uiso   1.00
C1012  C     0.17771   0.70827   0.22623   0.00000  Uiso   1.00
N1013  N     0.23708   0.65438   0.37053   0.00000  Uiso   1.00
C1014  C     0.38502   0.76083   0.31167   0.00000  Uiso   1.00
N1015  N     0.24608   0.69861   0.23369   0.00000  Uiso   1.00
N1016  N     0.25434   0.76618   0.18432   0.00000  Uiso   1.00
C1017  C     0.14657   0.75150   0.06809   0.00000  Uiso   1.00
C1018  C     0.13887   0.77881   0.03984   0.00000  Uiso   1.00
C1019  C     0.10429   0.77781   0.02002   0.00000  Uiso   1.00
C1020  C     0.07729   0.74953   0.02816   0.00000  Uiso   1.00
C1021  C     0.08603   0.72143   0.05509   0.00000  Uiso   1.00
C1022  C     0.12020   0.72265   0.07499   0.00000  Uiso   1.00
C1023  C     0.03823   0.75126   0.01251   0.00000  Uiso   1.00
C1024  C     0.00801   0.75190   0.03859   0.00000  Uiso   1.00
C1025  C     0.96987   0.75210   0.02682   0.00000  Uiso   1.00
C1026  C     0.05984   0.75156   0.94319   0.00000  Uiso   1.00
C1027  C     0.05709   0.77703   0.91253   0.00000  Uiso   1.00
C1028  C     0.08051   0.77301   0.88083   0.00000  Uiso   1.00
C1029  C     0.10746   0.74362   0.87932   0.00000  Uiso   1.00
C1030  C     0.11216   0.71981   0.91089   0.00000  Uiso   1.00
C1031  C     0.08810   0.72331   0.94243   0.00000  Uiso   1.00
C1032  C     0.23653   0.72125   0.32180   0.00000  Uiso   1.00
C1033  C     0.23368   0.72255   0.36151   0.00000  Uiso   1.00
C1034  C     0.22723   0.75776   0.37909   0.00000  Uiso   1.00
C1035  C     0.22369   0.79082   0.35736   0.00000  Uiso   1.00
C1036  C     0.23456   0.84368   0.22785   0.00000  Uiso   1.00
C1037  C     0.22658   0.88129   0.23846   0.00000  Uiso   1.00
C1038  C     0.21747   0.88886   0.27652   0.00000  Uiso   1.00
C1039  C     0.21753   0.85950   0.30341   0.00000  Uiso   1.00
H1040  H     0.06102   0.78395   0.21390   0.00000  Uiso   1.00
H1041  H     0.41524   0.75591   0.30804   0.00000  Uiso   1.00
H1042  H     0.15837   0.80195   0.03446   0.00000  Uiso   1.00
H1043  H     0.09786   0.80008   0.99976   0.00000  Uiso   1.00
H1044  H     0.06564   0.69935   0.06179   0.00000  Uiso   1.00
H1045  H     0.12566   0.70169   0.09688   0.00000  Uiso   1.00
H1046  H     0.01438   0.75164   0.06876   0.00000  Uiso   1.00
H1047  H     0.03581   0.79929   0.91260   0.00000  Uiso   1.00
H1048  H     0.07719   0.79243   0.85719   0.00000  Uiso   1.00
H1049  H     0.13311   0.69728   0.91020   0.00000  Uiso   1.00
H1050  H     0.09048   0.70295   0.96538   0.00000  Uiso   1.00
H1051  H     0.24233   0.69473   0.30749   0.00000  Uiso   1.00
H1052  H     0.22517   0.75970   0.40975   0.00000  Uiso   1.00
H1053  H     0.21914   0.81756   0.37172   0.00000  Uiso   1.00
H1054  H     0.24069   0.83671   0.19861   0.00000  Uiso   1.00
H1055  H     0.21080   0.91755   0.28549   0.00000  Uiso   1.00
H1056  H     0.21059   0.86613   0.33256   0.00000  Uiso   1.00
C1057  C     0.28853   0.18229   0.27276   0.00000  Uiso   1.00
N1058  N     0.32160   0.25424   0.40666   0.00000  Uiso   1.00
C1059  C     0.41206   0.29001   0.27247   0.00000  Uiso   1.00
C1060  C     0.32229   0.20827   0.27377   0.00000  Uiso   1.00
N1061  N     0.26292   0.15438   0.12947   0.00000  Uiso   1.00
C1062  C     0.11498   0.26083   0.18833   0.00000  Uiso   1.00
N1063  N     0.25392   0.19861   0.26631   0.00000  Uiso   1.00
N1064  N     0.24566   0.26618   0.31568   0.00000  Uiso   1.00
C1065  C     0.35343   0.25150   0.43191   0.00000  Uiso   1.00
C1066  C     0.36113   0.27881   0.46016   0.00000  Uiso   1.00
C1067  C     0.39571   0.27781   0.47998   0.00000  Uiso   1.00
C1068  C     0.42271   0.24953   0.47184   0.00000  Uiso   1.00
C1069  C     0.41397   0.22143   0.44491   0.00000  Uiso   1.00
C1070  C     0.37980   0.22265   0.42501   0.00000  Uiso   1.00
C1071  C     0.46177   0.25126   0.48749   0.00000  Uiso   1.00
C1072  C     0.49199   0.25190   0.46141   0.00000  Uiso   1.00
C1073  C     0.53013   0.25210   0.47318   0.00000  Uiso   1.00
C1074  C     0.44016   0.25156   0.55681   0.00000  Uiso   1.00
C1075  C     0.44291   0.27703   0.58747   0.00000  Uiso   1.00
C1076  C     0.41949   0.27301   0.61917   0.00000  Uiso   1.00
C1077  C     0.39254   0.24362   0.62068   0.00000  Uiso   1.00
C1078  C     0.38784   0.21981   0.58911   0.00000  Uiso   1.00
C1079  C     0.41190   0.22331   0.55757   0.00000  Uiso   1.00
C1080  C     0.26347   0.22125   0.17820   0.00000  Uiso   1.00
C1081  C     0.26632   0.22255   0.13849   0.00000  Uiso   1.00
C1082  C     0.27277   0.25776   0.12091   0.00000  Uiso   1.00
C1083  C     0.27631   0.29082   0.14264   0.00000  Uiso   1.00
C1084  C     0.26544   0.34368   0.27215   0.00000  Uiso   1.00
C1085  C     0.27342   0.38129   0.26154   0.00000  Uiso   1.00
C1086  C     0.28253   0.38886   0.22348   0.00000  Uiso   1.00
C1087  C     0.28247   0.35950   0.19659   0.00000  Uiso   1.00
H1088  H     0.43898   0.28395   0.28610   0.00000  Uiso   1.00
H1089  H     0.08476   0.25591   0.19196   0.00000  Uiso   1.00
H1090  H     0.34163   0.30195   0.46554   0.00000  Uiso   1.00
H1091  H     0.40214   0.30008   0.50024   0.00000  Uiso   1.00
H1092  H     0.43436   0.19935   0.43821   0.00000  Uiso   1.00
H1093  H     0.37434   0.20169   0.40312   0.00000  Uiso   1.00
H1094  H     0.48562   0.25164   0.43124   0.00000  Uiso   1.00
H1095  H     0.46419   0.29929   0.58740   0.00000  Uiso   1.00
H1096  H     0.42281   0.29243   0.64281   0.00000  Uiso   1.00
H1097  H     0.36689   0.19728   0.58980   0.00000  Uiso   1.00
H1098  H     0.40952   0.20295   0.53462   0.00000  Uiso   1.00
H1099  H     0.25767   0.19473   0.19251   0.00000  Uiso   1.00
H1100  H     0.27483   0.25970   0.09025   0.00000  Uiso   1.00
H1101  H     0.28086   0.31756   0.12828   0.00000  Uiso   1.00
H1102  H     0.25931   0.33671   0.30139   0.00000  Uiso   1.00
H1103  H     0.28920   0.41755   0.21451   0.00000  Uiso   1.00
H1104  H     0.28941   0.36613   0.16744   0.00000  Uiso   1.00
C1105  C     0.78853   0.68229   0.77276   0.00000  Uiso   1.00
N1106  N     0.82160   0.75424   0.90666   0.00000  Uiso   1.00
C1107  C     0.91206   0.79001   0.77247   0.00000  Uiso   1.00
C1108  C     0.82229   0.70827   0.77377   0.00000  Uiso   1.00
N1109  N     0.76292   0.65438   0.62947   0.00000  Uiso   1.00
C1110  C     0.61498   0.76083   0.68833   0.00000  Uiso   1.00
N1111  N     0.75392   0.69861   0.76631   0.00000  Uiso   1.00
N1112  N     0.74566   0.76618   0.81568   0.00000  Uiso   1.00
C1113  C     0.85343   0.75150   0.93191   0.00000  Uiso   1.00
C1114  C     0.86113   0.77881   0.96016   0.00000  Uiso   1.00
C1115  C     0.89571   0.77781   0.97998   0.00000  Uiso   1.00
C1116  C     0.92271   0.74953   0.97184   0.00000  Uiso   1.00
C1117  C     0.91397   0.72143   0.94491   0.00000  Uiso   1.00
C1118  C     0.87980   0.72265   0.92501   0.00000  Uiso   1.00
C1119  C     0.96177   0.75126   0.98749   0.00000  Uiso   1.00
C1120  C     0.99199   0.75190   0.96141   0.00000  Uiso   1.00
C1121  C     0.03013   0.75210   0.97318   0.00000  Uiso   1.00
C1122  C     0.94016   0.75156   0.05681   0.00000  Uiso   1.00
C1123  C     0.94291   0.77703   0.08747   0.00000  Uiso   1.00
C1124  C     0.91949   0.77301   0.11917   0.00000  Uiso   1.00
C1125  C     0.89254   0.74362   0.12068   0.00000  Uiso   1.00
C1126  C     0.88784   0.71981   0.08911   0.00000  Uiso   1.00
C1127  C     0.91190   0.72331   0.05757   0.00000  Uiso   1.00
C1128  C     0.76347   0.72125   0.67820   0.00000  Uiso   1.00
C1129  C     0.76632   0.72255   0.63849   0.00000  Uiso   1.00
C1130  C     0.77277   0.75776   0.62091   0.00000  Uiso   1.00
C1131  C     0.77631   0.79082   0.64264   0.00000  Uiso   1.00
C1132  C     0.76544   0.84368   0.77215   0.00000  Uiso   1.00
C1133  C     0.77342   0.88129   0.76154   0.00000  Uiso   1.00
C1134  C     0.78253   0.88886   0.72348   0.00000  Uiso   1.00
C1135  C     0.78247   0.85950   0.69659   0.00000  Uiso   1.00
H1136  H     0.93898   0.78395   0.78610   0.00000  Uiso   1.00
H1137  H     0.58476   0.75591   0.69196   0.00000  Uiso   1.00
H1138  H     0.84163   0.80195   0.96554   0.00000  Uiso   1.00
H1139  H     0.90214   0.80008   0.00024   0.00000  Uiso   1.00
H1140  H     0.93436   0.69935   0.93821   0.00000  Uiso   1.00
H1141  H     0.87434   0.70169   0.90312   0.00000  Uiso   1.00
H1142  H     0.98562   0.75164   0.93124   0.00000  Uiso   1.00
H1143  H     0.96419   0.79929   0.08740   0.00000  Uiso   1.00
H1144  H     0.92281   0.79243   0.14281   0.00000  Uiso   1.00
H1145  H     0.86689   0.69728   0.08980   0.00000  Uiso   1.00
H1146  H     0.90952   0.70295   0.03462   0.00000  Uiso   1.00
H1147  H     0.75767   0.69473   0.69251   0.00000  Uiso   1.00
H1148  H     0.77483   0.75970   0.59025   0.00000  Uiso   1.00
H1149  H     0.78086   0.81756   0.62828   0.00000  Uiso   1.00
H1150  H     0.75931   0.83671   0.80139   0.00000  Uiso   1.00
H1151  H     0.78920   0.91755   0.71451   0.00000  Uiso   1.00
H1152  H     0.78941   0.86613   0.66744   0.00000  Uiso   1.00
Ru1153 Ru    0.25770   0.74230   0.74230   0.00000  Uiso   1.00
Ru1154 Ru    0.75770   0.24230   0.24230   0.00000  Uiso   1.00
Ru1155 Ru    0.74230   0.25770   0.74230   0.00000  Uiso   1.00
Ru1156 Ru    0.24230   0.75770   0.24230   0.00000  Uiso   1.00
Ru1157 Ru    0.74230   0.74230   0.25770   0.00000  Uiso   1.00
Ru1158 Ru    0.24230   0.24230   0.75770   0.00000  Uiso   1.00
Ru1159 Ru    0.25770   0.25770   0.25770   0.00000  Uiso   1.00
Ru1160 Ru    0.75770   0.75770   0.75770   0.00000  Uiso   1.00
loop_
_geom_bond_atom_site_label_1
_geom_bond_atom_site_label_2
_geom_bond_distance
_geom_bond_site_symmetry_2
_ccdc_geom_bond_type
C1     C4      1.499   .     S
C1     N7      1.365   .     D
C1     C891    1.403   .     S
N2     C9      1.433   .     D
N2     C867    1.297   .     S
C3     H32     1.083   .     S
C3     N578    1.297   .     D
C3     C893    1.475   .     S
C4     C895    1.406   .     S
C4     N584    1.362   .     D
N5     C1029   1.435   .     S
N5     C870    1.301   .     D
C6     H33     1.085   .     S
C6     N581    1.301   .     S
C6     C601    1.473   .     D
N7     Ru1153  2.105   .     S
N7     C888    1.359   .     S
N8     Ru1153  2.105   .     S
N8     C868    1.362   .     S
N8     C604    1.356   .     D
C9     C10     1.409   .     S
C9     C14     1.396   .     S
C10    C11     1.403   .     D
C10    H34     1.081   .     S
C11    C12     1.405   .     S
C11    H35     1.083   .     S
C12    C13     1.403   .     S
C12    C15     1.482   .     D
C13    C14     1.392   .     D
C13    H36     1.083   .     S
C14    H37     1.083   .     S
C15    C16     1.404   .     S
C15    C113    1.413   .     S
C16    C17     1.404   .     D
C16    H38     1.085   .     S
C17    C111    1.413   .     S
C17    C114    1.485   .     S
C18    C19     1.406   .     D
C18    C23     1.406   .     S
C18    C113    1.485   .     S
C19    C20     1.394   .     S
C19    H39     1.083   .     S
C20    C21     1.404   .     D
C20    H40     1.083   .     S
C21    C22     1.401   .     S
C21    N725    1.435   .     S
C22    C23     1.401   .     D
C22    H41     1.083   .     S
C23    H42     1.083   .     S
C24    C25     1.401   .     D
C24    H43     1.080   .     S
C24    N583    1.359   .     S
C25    C26     1.403   .     S
C25    C870    1.473   .     S
C26    C27     1.397   .     D
C26    H44     1.083   .     S
C27    H45     1.080   .     S
C27    C577    1.403   .     S
C28    C29     1.403   .     S
C28    H46     1.079   .     S
C28    N872    1.356   .     D
C29    C30     1.402   .     D
C29    C579    1.475   .     S
C30    C31     1.401   .     S
C30    H47     1.083   .     S
C31    H48     1.080   .     S
C31    C580    1.406   .     D
C49    C52     1.499   .     S
C49    N55     1.365   .     D
C49    C939    1.403   .     S
N50    C57     1.433   .     S
N50    C915    1.297   .     D
C51    H80     1.083   .     S
C51    N626    1.297   .     D
C51    C941    1.475   .     S
C52    C943    1.406   .     S
C52    N632    1.362   .     D
N53    C981    1.435   .     S
N53    C918    1.301   .     D
C54    H81     1.085   .     S
C54    N629    1.301   .     D
C54    C649    1.473   .     S
N55    Ru1154  2.105   .     S
N55    C936    1.359   .     S
N56    Ru1154  2.105   .     S
N56    C916    1.362   .     D
N56    C652    1.356   .     S
C57    C58     1.409   .     D
C57    C62     1.396   .     S
C58    C59     1.403   .     S
C58    H82     1.081   .     S
C59    C60     1.405   .     D
C59    H83     1.083   1_655 S
C60    C61     1.403   .     S
C60    C63     1.482   .     S
C61    C62     1.392   .     D
C61    H84     1.083   .     S
C62    H85     1.083   .     S
C63    C64     1.404   .     S
C63    C161    1.413   1_655 D
C64    H86     1.085   .     S
C64    C65     1.404   1_545 D
C65    C162    1.485   .     S
C65    C64     1.404   1_565 D
C65    C159    1.413   1_655 S
C66    C67     1.406   .     D
C66    C71     1.406   .     S
C66    C161    1.485   .     S
C67    C68     1.394   .     S
C67    H87     1.083   .     S
C68    C69     1.404   .     D
C68    H88     1.083   .     S
C69    C70     1.401   .     S
C69    N677    1.435   .     S
C70    C71     1.401   .     D
C70    H89     1.083   .     S
C71    H90     1.083   .     S
C72    C73     1.401   .     D
C72    H91     1.080   .     S
C72    N631    1.359   .     S
C73    C74     1.403   .     S
C73    C918    1.473   .     S
C74    C75     1.397   .     D
C74    H92     1.083   .     S
C75    H93     1.080   .     S
C75    C625    1.403   .     S
C76    C77     1.403   .     S
C76    H94     1.079   .     S
C76    N920    1.356   .     D
C77    C78     1.402   .     D
C77    C627    1.475   .     S
C78    C79     1.401   .     S
C78    H95     1.083   .     S
C79    H96     1.080   .     S
C79    C628    1.406   .     D
H83    C59     1.083   1_455 S
C97    C100    1.499   .     S
C97    N103    1.365   .     S
C97    C987    1.403   .     D
N98    C105    1.433   .     D
N98    C963    1.297   .     S
C99    H128    1.083   .     S
C99    N386    1.297   .     D
C99    C989    1.475   .     S
C100   C991    1.406   .     D
C100   N392    1.362   .     S
N101   C933    1.435   .     D
N101   C966    1.301   .     S
C102   H129    1.085   .     S
C102   N389    1.301   .     S
C102   C409    1.473   .     D
N103   Ru1155  2.105   .     S
N103   C984    1.359   .     D
N104   Ru1155  2.105   .     S
N104   C964    1.362   .     S
N104   C412    1.356   .     D
C105   C106    1.409   .     S
C105   C110    1.396   .     S
C106   C107    1.403   .     D
C106   H130    1.081   .     S
C107   C108    1.405   .     S
C107   H131    1.083   .     S
C108   C109    1.403   .     S
C108   C111    1.482   .     D
C109   C110    1.392   .     D
C109   H132    1.083   .     S
C110   H133    1.083   .     S
C111   C112    1.404   .     S
C112   C113    1.404   .     D
C112   H134    1.085   .     S
C114   C115    1.406   .     D
C114   C119    1.406   .     S
C115   C116    1.394   .     S
C115   H135    1.083   .     S
C116   C117    1.404   .     D
C116   H136    1.083   .     S
C117   C118    1.401   .     S
C117   N533    1.435   .     S
C118   C119    1.401   .     D
C118   H137    1.083   .     S
C119   H138    1.083   .     S
C120   C121    1.401   .     S
C120   H139    1.080   .     S
C120   N391    1.359   .     D
C121   C122    1.403   .     S
C121   C966    1.473   .     D
C122   C123    1.397   .     D
C122   H140    1.083   .     S
C123   H141    1.080   .     S
C123   C385    1.403   .     S
C124   C125    1.403   .     S
C124   H142    1.079   .     S
C124   N968    1.356   .     D
C125   C126    1.402   .     S
C125   C387    1.475   .     D
C126   C127    1.401   .     D
C126   H143    1.083   .     S
C127   H144    1.080   .     S
C127   C388    1.406   .     S
C145   C148    1.499   .     S
C145   N151    1.365   .     D
C145   C1035   1.403   .     S
N146   C153    1.433   .     S
N146   C1011   1.297   .     D
C147   H176    1.083   .     S
C147   N434    1.297   .     D
C147   C1037   1.475   .     S
C148   C1039   1.406   .     D
C148   N440    1.362   .     S
N149   C885    1.435   .     S
N149   C1014   1.301   .     D
C150   H177    1.085   .     S
C150   N437    1.301   .     D
C150   C457    1.473   .     S
N151   Ru1156  2.105   .     S
N151   C1032   1.359   .     S
N152   Ru1156  2.105   .     S
N152   C1012   1.362   .     D
N152   C460    1.356   .     S
C153   C154    1.409   .     D
C153   C158    1.396   .     S
C154   C155    1.403   .     S
C154   H178    1.081   .     S
C155   C156    1.405   .     D
C155   H179    1.083   1_455 S
C156   C157    1.403   .     S
C156   C159    1.482   .     S
C157   C158    1.392   .     D
C157   H180    1.083   .     S
C158   H181    1.083   .     S
C159   C160    1.404   .     D
C159   C65     1.413   1_455 S
C160   H182    1.085   .     S
C160   C161    1.404   1_565 S
C161   C63     1.413   1_455 D
C161   C160    1.404   1_545 S
C162   C163    1.406   .     D
C162   C167    1.406   .     S
C163   C164    1.394   .     S
C163   H183    1.083   .     S
C164   C165    1.404   .     D
C164   H184    1.083   .     S
C165   C166    1.401   .     S
C165   N485    1.435   .     S
C166   C167    1.401   .     D
C166   H185    1.083   .     S
C167   H186    1.083   .     S
C168   C169    1.401   .     D
C168   H187    1.080   .     S
C168   N439    1.359   .     S
C169   C170    1.403   .     S
C169   C1014   1.473   .     S
C170   C171    1.397   .     D
C170   H188    1.083   .     S
C171   H189    1.080   .     S
C171   C433    1.403   .     S
C172   C173    1.403   .     S
C172   H190    1.079   .     S
C172   N1016   1.356   .     D
C173   C174    1.402   .     D
C173   C435    1.475   .     S
C174   C175    1.401   .     S
C174   H191    1.083   .     S
C175   H192    1.080   .     S
C175   C436    1.406   .     D
H179   C155    1.083   1_655 S
C193   C196    1.499   .     S
C193   N199    1.365   .     S
C193   C795    1.403   .     D
N194   C201    1.433   .     S
N194   C771    1.297   .     D
C195   H224    1.083   .     S
C195   N482    1.297   .     D
C195   C797    1.475   .     S
C196   C799    1.406   .     S
C196   N488    1.362   .     D
N197   C1125   1.435   .     S
N197   C774    1.301   .     D
C198   H225    1.085   .     S
C198   N485    1.301   .     D
C198   C505    1.473   .     S
N199   Ru1157  2.105   .     S
N199   C792    1.359   .     D
N200   Ru1157  2.105   .     S
N200   C772    1.362   .     D
N200   C508    1.356   .     S
C201   C202    1.409   .     D
C201   C206    1.396   .     S
C202   C203    1.403   .     S
C202   H226    1.081   .     S
C203   C204    1.405   .     D
C203   H227    1.083   .     S
C204   C205    1.403   .     S
C204   C207    1.482   .     S
C205   C206    1.392   .     D
C205   H228    1.083   .     S
C206   H229    1.083   .     S
C207   C208    1.404   .     D
C207   C305    1.413   .     S
C208   C209    1.404   .     S
C208   H230    1.085   .     S
C209   C303    1.413   .     D
C209   C306    1.485   .     S
C210   C211    1.406   .     D
C210   C215    1.406   .     S
C210   C305    1.485   .     S
C211   C212    1.394   .     S
C211   H231    1.083   .     S
C212   C213    1.404   .     D
C212   H232    1.083   .     S
C213   C214    1.401   .     S
C213   N437    1.435   .     S
C214   C215    1.401   .     D
C214   H233    1.083   .     S
C215   H234    1.083   .     S
C216   C217    1.401   .     D
C216   H235    1.080   .     S
C216   N487    1.359   .     S
C217   C218    1.403   .     S
C217   C774    1.473   .     S
C218   C219    1.397   .     D
C218   H236    1.083   .     S
C219   H237    1.080   .     S
C219   C481    1.403   .     S
C220   C221    1.403   .     S
C220   H238    1.079   .     S
C220   N776    1.356   .     D
C221   C222    1.402   .     D
C221   C483    1.475   .     S
C222   C223    1.401   .     S
C222   H239    1.083   .     S
C223   H240    1.080   .     S
C223   C484    1.406   .     D
C241   C244    1.499   .     S
C241   N247    1.365   .     D
C241   C843    1.403   .     S
N242   C249    1.433   .     S
N242   C819    1.297   .     D
C243   H272    1.083   .     S
C243   N530    1.297   .     D
C243   C845    1.475   .     S
C244   C847    1.406   .     D
C244   N536    1.362   .     S
N245   C1077   1.435   .     S
N245   C822    1.301   .     D
C246   H273    1.085   .     S
C246   N533    1.301   .     D
C246   C553    1.473   .     S
N247   Ru1158  2.105   .     S
N247   C840    1.359   .     S
N248   Ru1158  2.105   .     S
N248   C820    1.362   .     D
N248   C556    1.356   .     S
C249   C250    1.409   .     D
C249   C254    1.396   .     S
C250   C251    1.403   .     S
C250   H274    1.081   .     S
C251   C252    1.405   .     D
C251   H275    1.083   1_455 S
C252   C253    1.403   .     S
C252   C255    1.482   .     S
C253   C254    1.392   .     D
C253   H276    1.083   .     S
C254   H277    1.083   .     S
C255   C256    1.404   .     D
C255   C353    1.413   1_455 S
C256   H278    1.085   .     S
C256   C257    1.404   1_545 S
C257   C354    1.485   .     D
C257   C256    1.404   1_565 S
C257   C351    1.413   1_455 S
C258   C259    1.406   .     S
C258   C263    1.406   .     S
C258   C353    1.485   .     D
C259   C260    1.394   .     D
C259   H279    1.083   .     S
C260   C261    1.404   .     S
C260   H280    1.083   .     S
C261   C262    1.401   .     S
C261   N389    1.435   .     D
C262   C263    1.401   .     D
C262   H281    1.083   .     S
C263   H282    1.083   .     S
C264   C265    1.401   .     D
C264   H283    1.080   .     S
C264   N535    1.359   .     S
C265   C266    1.403   .     S
C265   C822    1.473   .     S
C266   C267    1.397   .     D
C266   H284    1.083   .     S
C267   H285    1.080   .     S
C267   C529    1.403   .     S
C268   C269    1.403   .     S
C268   H286    1.079   .     S
C268   N824    1.356   .     D
C269   C270    1.402   .     D
C269   C531    1.475   .     S
C270   C271    1.401   .     S
C270   H287    1.083   .     S
C271   H288    1.080   .     S
C271   C532    1.406   .     D
H275   C251    1.083   1_655 S
C289   C292    1.499   .     S
C289   N295    1.365   .     D
C289   C1083   1.403   .     S
N290   C297    1.433   .     S
N290   C1059   1.297   .     D
C291   H320    1.083   .     S
C291   N674    1.297   .     D
C291   C1085   1.475   .     S
C292   C1087   1.406   .     D
C292   N680    1.362   .     S
N293   C837    1.435   .     D
N293   C1062   1.301   .     S
C294   H321    1.085   .     S
C294   N677    1.301   .     D
C294   C697    1.473   .     S
N295   Ru1159  2.105   .     S
N295   C1080   1.359   .     S
N296   Ru1159  2.105   .     S
N296   C1060   1.362   .     D
N296   C700    1.356   .     S
C297   C298    1.409   .     D
C297   C302    1.396   .     S
C298   C299    1.403   .     S
C298   H322    1.081   .     S
C299   C300    1.405   .     D
C299   H323    1.083   .     S
C300   C301    1.403   .     S
C300   C303    1.482   .     S
C301   C302    1.392   .     D
C301   H324    1.083   .     S
C302   H325    1.083   .     S
C303   C304    1.404   .     S
C304   C305    1.404   .     D
C304   H326    1.085   .     S
C306   C307    1.406   .     D
C306   C311    1.406   .     S
C307   C308    1.394   .     S
C307   H327    1.083   .     S
C308   C309    1.404   .     D
C308   H328    1.083   .     S
C309   C310    1.401   .     S
C309   N629    1.435   .     S
C310   C311    1.401   .     D
C310   H329    1.083   .     S
C311   H330    1.083   .     S
C312   C313    1.401   .     S
C312   H331    1.080   .     S
C312   N679    1.359   .     D
C313   C314    1.403   .     S
C313   C1062   1.473   .     D
C314   C315    1.397   .     D
C314   H332    1.083   .     S
C315   H333    1.080   .     S
C315   C673    1.403   .     S
C316   C317    1.403   .     S
C316   H334    1.079   .     S
C316   N1064   1.356   .     D
C317   C318    1.402   .     S
C317   C675    1.475   .     D
C318   C319    1.401   .     D
C318   H335    1.083   .     S
C319   H336    1.080   .     S
C319   C676    1.406   .     S
C337   C340    1.499   .     S
C337   N343    1.365   .     D
C337   C1131   1.403   .     S
N338   C345    1.433   .     S
N338   C1107   1.297   .     D
C339   H368    1.083   .     S
C339   N722    1.297   .     D
C339   C1133   1.475   .     S
C340   C1135   1.406   .     D
C340   N728    1.362   .     S
N341   C789    1.435   .     S
N341   C1110   1.301   .     D
C342   H369    1.085   .     S
C342   N725    1.301   .     D
C342   C745    1.473   .     S
N343   Ru1160  2.105   .     S
N343   C1128   1.359   .     S
N344   Ru1160  2.105   .     S
N344   C1108   1.362   .     D
N344   C748    1.356   .     S
C345   C346    1.409   .     D
C345   C350    1.396   .     S
C346   C347    1.403   .     S
C346   H370    1.081   .     S
C347   C348    1.405   .     D
C347   H371    1.083   1_655 S
C348   C349    1.403   .     S
C348   C351    1.482   .     S
C349   C350    1.392   .     D
C349   H372    1.083   .     S
C350   H373    1.083   .     S
C351   C352    1.404   .     D
C351   C257    1.413   1_655 S
C352   H374    1.085   .     S
C352   C353    1.404   1_565 S
C353   C255    1.413   1_655 S
C353   C352    1.404   1_545 S
C354   C355    1.406   .     S
C354   C359    1.406   .     S
C355   C356    1.394   .     D
C355   H375    1.083   .     S
C356   C357    1.404   .     S
C356   H376    1.083   .     S
C357   C358    1.401   .     S
C357   N581    1.435   .     D
C358   C359    1.401   .     D
C358   H377    1.083   .     S
C359   H378    1.083   .     S
C360   C361    1.401   .     S
C360   H379    1.080   .     S
C360   N727    1.359   .     D
C361   C362    1.403   .     D
C361   C1110   1.473   .     S
C362   C363    1.397   .     S
C362   H380    1.083   .     S
C363   H381    1.080   .     S
C363   C721    1.403   .     D
C364   C365    1.403   .     D
C364   H382    1.079   .     S
C364   N1112   1.356   .     S
C365   C366    1.402   .     S
C365   C723    1.475   .     S
C366   C367    1.401   .     D
C366   H383    1.083   .     S
C367   H384    1.080   .     S
C367   C724    1.406   .     S
H371   C347    1.083   1_455 S
C385   C388    1.499   .     D
C385   N391    1.365   .     S
N386   C393    1.433   .     S
C387   H416    1.083   .     S
C387   N962    1.297   .     S
C388   N968    1.362   .     S
C390   H417    1.085   .     S
C390   N965    1.301   .     D
C390   C985    1.473   .     S
N391   Ru1155  2.105   .     S
N392   Ru1155  2.105   .     S
N392   C988    1.356   .     D
C393   C394    1.409   .     D
C393   C398    1.396   .     S
C394   C395    1.403   .     S
C394   H418    1.081   .     S
C395   C396    1.405   .     D
C395   H419    1.083   .     S
C396   C397    1.403   .     S
C396   C399    1.482   .     S
C397   C398    1.392   .     D
C397   H420    1.083   .     S
C398   H421    1.083   .     S
C399   C400    1.404   .     S
C399   C497    1.413   .     D
C400   C401    1.404   .     D
C400   H422    1.085   .     S
C401   C495    1.413   .     S
C401   C498    1.485   .     S
C402   C403    1.406   .     D
C402   C407    1.406   .     S
C402   C497    1.485   .     S
C403   C404    1.394   .     S
C403   H423    1.083   .     S
C404   C405    1.404   .     D
C404   H424    1.083   .     S
C405   C406    1.401   .     S
C405   N1109   1.435   .     S
C406   C407    1.401   .     D
C406   H425    1.083   .     S
C407   H426    1.083   .     S
C408   C409    1.401   .     S
C408   H427    1.080   .     S
C408   N967    1.359   .     D
C409   C410    1.403   .     S
C410   C411    1.397   .     D
C410   H428    1.083   .     S
C411   H429    1.080   .     S
C411   C961    1.403   .     S
C412   C413    1.403   .     S
C412   H430    1.079   .     S
C413   C414    1.402   .     S
C413   C963    1.475   .     D
C414   C415    1.401   .     D
C414   H431    1.083   .     S
C415   H432    1.080   .     S
C415   C964    1.406   .     S
C433   C436    1.499   .     S
C433   N439    1.365   .     D
N434   C441    1.433   .     S
C435   H464    1.083   .     S
C435   N1010   1.297   .     D
C436   N1016   1.362   .     S
C438   H465    1.085   .     S
C438   N1013   1.301   .     D
C438   C1033   1.473   .     S
N439   Ru1156  2.105   .     S
N440   Ru1156  2.105   .     S
N440   C1036   1.356   .     D
C441   C442    1.409   .     D
C441   C446    1.396   .     S
C442   C443    1.403   .     S
C442   H466    1.081   .     S
C443   C444    1.405   .     D
C443   H467    1.083   1_565 S
C444   C445    1.403   .     S
C444   C447    1.482   .     S
C445   C446    1.392   .     D
C445   H468    1.083   .     S
C446   H469    1.083   .     S
C447   C448    1.404   .     S
C447   C545    1.413   1_565 D
C448   H470    1.085   .     S
C448   C449    1.404   1_554 D
C449   C546    1.485   .     S
C449   C448    1.404   1_556 D
C449   C543    1.413   1_565 S
C450   C451    1.406   .     D
C450   C455    1.406   .     S
C450   C545    1.485   .     S
C451   C452    1.394   .     S
C451   H471    1.083   .     S
C452   C453    1.404   .     D
C452   H472    1.083   .     S
C453   C454    1.401   .     S
C453   N1061   1.435   .     S
C454   C455    1.401   .     D
C454   H473    1.083   .     S
C455   H474    1.083   .     S
C456   C457    1.401   .     D
C456   H475    1.080   .     S
C456   N1015   1.359   .     S
C457   C458    1.403   .     S
C458   C459    1.397   .     D
C458   H476    1.083   .     S
C459   H477    1.080   .     S
C459   C1009   1.403   .     S
C460   C461    1.403   .     D
C460   H478    1.079   .     S
C461   C462    1.402   .     S
C461   C1011   1.475   .     S
C462   C463    1.401   .     D
C462   H479    1.083   .     S
C463   H480    1.080   .     S
C463   C1012   1.406   .     S
H467   C443    1.083   1_545 S
C481   C484    1.499   .     S
C481   N487    1.365   .     D
N482   C489    1.433   .     S
C483   H512    1.083   .     S
C483   N770    1.297   .     D
C484   N776    1.362   .     S
C486   H513    1.085   .     S
C486   N773    1.301   .     D
C486   C793    1.473   .     S
N487   Ru1157  2.105   .     S
N488   Ru1157  2.105   .     S
N488   C796    1.356   .     S
C489   C490    1.409   .     D
C489   C494    1.396   .     S
C490   C491    1.403   .     S
C490   H514    1.081   .     S
C491   C492    1.405   .     D
C491   H515    1.083   .     S
C492   C493    1.403   .     S
C492   C495    1.482   .     S
C493   C494    1.392   .     D
C493   H516    1.083   .     S
C494   H517    1.083   .     S
C495   C496    1.404   .     D
C496   C497    1.404   .     S
C496   H518    1.085   .     S
C498   C499    1.406   .     D
C498   C503    1.406   .     S
C499   C500    1.394   .     S
C499   H519    1.083   .     S
C500   C501    1.404   .     D
C500   H520    1.083   .     S
C501   C502    1.401   .     S
C501   N917    1.435   .     S
C502   C503    1.401   .     D
C502   H521    1.083   .     S
C503   H522    1.083   .     S
C504   C505    1.401   .     D
C504   H523    1.080   .     S
C504   N775    1.359   .     S
C505   C506    1.403   .     S
C506   C507    1.397   .     D
C506   H524    1.083   .     S
C507   H525    1.080   .     S
C507   C769    1.403   .     S
C508   C509    1.403   .     D
C508   H526    1.079   .     S
C509   C510    1.402   .     S
C509   C771    1.475   .     S
C510   C511    1.401   .     D
C510   H527    1.083   .     S
C511   H528    1.080   .     S
C511   C772    1.406   .     S
C529   C532    1.499   .     S
C529   N535    1.365   .     D
N530   C537    1.433   .     S
C531   H560    1.083   .     S
C531   N818    1.297   .     D
C532   N824    1.362   .     S
C534   H561    1.085   .     S
C534   N821    1.301   .     D
C534   C841    1.473   .     S
N535   Ru1158  2.105   .     S
N536   Ru1158  2.105   .     S
N536   C844    1.356   .     D
C537   C538    1.409   .     D
C537   C542    1.396   .     S
C538   C539    1.403   .     S
C538   H562    1.081   .     S
C539   C540    1.405   .     D
C539   H563    1.083   1_545 S
C540   C541    1.403   .     S
C540   C543    1.482   .     S
C541   C542    1.392   .     D
C541   H564    1.083   .     S
C542   H565    1.083   .     S
C543   C544    1.404   .     D
C543   C449    1.413   1_545 S
C544   H566    1.085   .     S
C544   C545    1.404   1_556 S
C545   C447    1.413   1_545 D
C545   C544    1.404   1_554 S
C546   C547    1.406   .     D
C546   C551    1.406   .     S
C547   C548    1.394   .     S
C547   H567    1.083   .     S
C548   C549    1.404   .     D
C548   H568    1.083   .     S
C549   C550    1.401   .     S
C549   N869    1.435   .     S
C550   C551    1.401   .     D
C550   H569    1.083   .     S
C551   H570    1.083   .     S
C552   C553    1.401   .     D
C552   H571    1.080   .     S
C552   N823    1.359   .     S
C553   C554    1.403   .     S
C554   C555    1.397   .     D
C554   H572    1.083   .     S
C555   H573    1.080   .     S
C555   C817    1.403   .     S
C556   C557    1.403   .     D
C556   H574    1.079   .     S
C557   C558    1.402   .     S
C557   C819    1.475   .     S
C558   C559    1.401   .     D
C558   H575    1.083   .     S
C559   H576    1.080   .     S
C559   C820    1.406   .     S
H563   C539    1.083   1_565 S
C577   C580    1.499   .     S
C577   N583    1.365   .     D
N578   C585    1.433   .     S
C579   H608    1.083   .     S
C579   N866    1.297   .     D
C580   N872    1.362   .     S
C582   H609    1.085   .     S
C582   N869    1.301   .     D
C582   C889    1.473   .     S
N583   Ru1153  2.105   .     S
N584   Ru1153  2.105   .     S
N584   C892    1.356   .     S
C585   C586    1.409   .     D
C585   C590    1.396   .     S
C586   C587    1.403   .     S
C586   H610    1.081   .     S
C587   C588    1.405   .     D
C587   H611    1.083   .     S
C588   C589    1.403   .     S
C588   C591    1.482   .     S
C589   C590    1.392   .     D
C589   H612    1.083   .     S
C590   H613    1.083   .     S
C591   C592    1.404   .     D
C591   C689    1.413   .     S
C592   C593    1.404   .     S
C592   H614    1.085   .     S
C593   C687    1.413   .     D
C593   C690    1.485   .     S
C594   C595    1.406   .     D
C594   C599    1.406   .     S
C594   C689    1.485   .     S
C595   C596    1.394   .     S
C595   H615    1.083   .     S
C596   C597    1.404   .     D
C596   H616    1.083   .     S
C597   C598    1.401   .     S
C597   N821    1.435   .     S
C598   C599    1.401   .     D
C598   H617    1.083   .     S
C599   H618    1.083   .     S
C600   C601    1.401   .     S
C600   H619    1.080   .     S
C600   N871    1.359   .     D
C601   C602    1.403   .     S
C602   C603    1.397   .     D
C602   H620    1.083   .     S
C603   H621    1.080   .     S
C603   C865    1.403   .     S
C604   C605    1.403   .     S
C604   H622    1.079   .     S
C605   C606    1.402   .     S
C605   C867    1.475   .     D
C606   C607    1.401   .     D
C606   H623    1.083   .     S
C607   H624    1.080   .     S
C607   C868    1.406   .     S
C625   C628    1.499   .     S
C625   N631    1.365   .     D
N626   C633    1.433   .     S
C627   H656    1.083   .     S
C627   N914    1.297   .     D
C628   N920    1.362   .     S
C630   H657    1.085   .     S
C630   N917    1.301   .     D
C630   C937    1.473   .     S
N631   Ru1154  2.105   .     S
N632   Ru1154  2.105   .     S
N632   C940    1.356   .     S
C633   C634    1.409   .     D
C633   C638    1.396   .     S
C634   C635    1.403   .     S
C634   H658    1.081   .     S
C635   C636    1.405   .     D
C635   H659    1.083   1_545 S
C636   C637    1.403   .     S
C636   C639    1.482   .     S
C637   C638    1.392   .     D
C637   H660    1.083   .     S
C638   H661    1.083   .     S
C639   C640    1.404   .     D
C639   C737    1.413   1_545 S
C640   H662    1.085   .     S
C640   C641    1.404   1_554 S
C641   C738    1.485   .     S
C641   C640    1.404   1_556 S
C641   C735    1.413   1_545 D
C642   C643    1.406   .     S
C642   C647    1.406   .     D
C642   C737    1.485   .     S
C643   C644    1.394   .     D
C643   H663    1.083   .     S
C644   C645    1.404   .     S
C644   H664    1.083   .     S
C645   C646    1.401   .     D
C645   N773    1.435   .     S
C646   C647    1.401   .     S
C646   H665    1.083   .     S
C647   H666    1.083   .     S
C648   C649    1.401   .     D
C648   H667    1.080   .     S
C648   N919    1.359   .     S
C649   C650    1.403   .     S
C650   C651    1.397   .     D
C650   H668    1.083   .     S
C651   H669    1.080   .     S
C651   C913    1.403   .     S
C652   C653    1.403   .     D
C652   H670    1.079   .     S
C653   C654    1.402   .     S
C653   C915    1.475   .     S
C654   C655    1.401   .     D
C654   H671    1.083   .     S
C655   H672    1.080   .     S
C655   C916    1.406   .     S
H659   C635    1.083   1_565 S
C673   C676    1.499   .     D
C673   N679    1.365   .     S
N674   C681    1.433   .     S
C675   H704    1.083   .     S
C675   N1058   1.297   .     S
C676   N1064   1.362   .     S
C678   H705    1.085   .     S
C678   N1061   1.301   .     D
C678   C1081   1.473   .     S
N679   Ru1159  2.105   .     S
N680   Ru1159  2.105   .     S
N680   C1084   1.356   .     D
C681   C682    1.409   .     D
C681   C686    1.396   .     S
C682   C683    1.403   .     S
C682   H706    1.081   .     S
C683   C684    1.405   .     D
C683   H707    1.083   .     S
C684   C685    1.403   .     S
C684   C687    1.482   .     S
C685   C686    1.392   .     D
C685   H708    1.083   .     S
C686   H709    1.083   .     S
C687   C688    1.404   .     S
C688   C689    1.404   .     D
C688   H710    1.085   .     S
C690   C691    1.406   .     D
C690   C695    1.406   .     S
C691   C692    1.394   .     S
C691   H711    1.083   .     S
C692   C693    1.404   .     D
C692   H712    1.083   .     S
C693   C694    1.401   .     S
C693   N1013   1.435   .     S
C694   C695    1.401   .     D
C694   H713    1.083   .     S
C695   H714    1.083   .     S
C696   C697    1.401   .     S
C696   H715    1.080   .     S
C696   N1063   1.359   .     D
C697   C698    1.403   .     D
C698   C699    1.397   .     S
C698   H716    1.083   .     S
C699   H717    1.080   .     S
C699   C1057   1.403   .     D
C700   C701    1.403   .     D
C700   H718    1.079   .     S
C701   C702    1.402   .     S
C701   C1059   1.475   .     S
C702   C703    1.401   .     D
C702   H719    1.083   .     S
C703   H720    1.080   .     S
C703   C1060   1.406   .     S
C721   C724    1.499   .     S
C721   N727    1.365   .     S
N722   C729    1.433   .     S
C723   H752    1.083   .     S
C723   N1106   1.297   .     D
C724   N1112   1.362   .     D
C726   H753    1.085   .     S
C726   N1109   1.301   .     D
C726   C1129   1.473   .     S
N727   Ru1160  2.105   .     S
N728   Ru1160  2.105   .     S
N728   C1132   1.356   .     D
C729   C730    1.409   .     D
C729   C734    1.396   .     S
C730   C731    1.403   .     S
C730   H754    1.081   .     S
C731   C732    1.405   .     D
C731   H755    1.083   1_565 S
C732   C733    1.403   .     S
C732   C735    1.482   .     S
C733   C734    1.392   .     D
C733   H756    1.083   .     S
C734   H757    1.083   .     S
C735   C736    1.404   .     S
C735   C641    1.413   1_565 D
C736   H758    1.085   .     S
C736   C737    1.404   1_556 D
C737   C639    1.413   1_565 S
C737   C736    1.404   1_554 D
C738   C739    1.406   .     S
C738   C743    1.406   .     D
C739   C740    1.394   .     D
C739   H759    1.083   .     S
C740   C741    1.404   .     S
C740   H760    1.083   .     S
C741   C742    1.401   .     D
C741   N965    1.435   .     S
C742   C743    1.401   .     S
C742   H761    1.083   .     S
C743   H762    1.083   .     S
C744   C745    1.401   .     S
C744   H763    1.080   .     S
C744   N1111   1.359   .     D
C745   C746    1.403   .     D
C746   C747    1.397   .     S
C746   H764    1.083   .     S
C747   H765    1.080   .     S
C747   C1105   1.403   .     D
C748   C749    1.403   .     D
C748   H766    1.079   .     S
C749   C750    1.402   .     S
C749   C1107   1.475   .     S
C750   C751    1.401   .     D
C750   H767    1.083   .     S
C751   H768    1.080   .     S
C751   C1108   1.406   .     S
H755   C731    1.083   1_545 S
C769   C772    1.499   .     S
C769   N775    1.365   .     D
N770   C777    1.433   .     S
C771   H800    1.083   .     S
C774   H801    1.085   .     S
N775   Ru1157  2.105   .     S
N776   Ru1157  2.105   .     S
C777   C778    1.409   .     D
C777   C782    1.396   .     S
C778   C779    1.403   .     S
C778   H802    1.081   .     S
C779   C780    1.405   .     D
C779   H803    1.083   .     S
C780   C781    1.403   .     S
C780   C783    1.482   .     S
C781   C782    1.392   .     D
C781   H804    1.083   .     S
C782   H805    1.083   .     S
C783   C784    1.404   .     D
C783   C881    1.413   .     S
C784   C785    1.404   .     S
C784   H806    1.085   .     S
C785   C879    1.413   .     D
C785   C882    1.485   .     S
C786   C787    1.406   .     S
C786   C791    1.406   .     D
C786   C881    1.485   .     S
C787   C788    1.394   .     D
C787   H807    1.083   .     S
C788   C789    1.404   .     S
C788   H808    1.083   .     S
C789   C790    1.401   .     D
C790   C791    1.401   .     S
C790   H809    1.083   .     S
C791   H810    1.083   .     S
C792   C793    1.401   .     S
C792   H811    1.080   .     S
C793   C794    1.403   .     D
C794   C795    1.397   .     S
C794   H812    1.083   .     S
C795   H813    1.080   .     S
C796   C797    1.403   .     D
C796   H814    1.079   .     S
C797   C798    1.402   .     S
C798   C799    1.401   .     D
C798   H815    1.083   .     S
C799   H816    1.080   .     S
C817   C820    1.499   .     S
C817   N823    1.365   .     D
N818   C825    1.433   .     S
C819   H848    1.083   .     S
C822   H849    1.085   .     S
N823   Ru1158  2.105   .     S
N824   Ru1158  2.105   .     S
C825   C826    1.409   .     D
C825   C830    1.396   .     S
C826   C827    1.403   .     S
C826   H850    1.081   .     S
C827   C828    1.405   .     D
C827   H851    1.083   1_556 S
C828   C829    1.403   .     S
C828   C831    1.482   .     S
C829   C830    1.392   .     D
C829   H852    1.083   .     S
C830   H853    1.083   .     S
C831   C832    1.404   .     D
C831   C929    1.413   1_556 S
C832   H854    1.085   .     S
C832   C833    1.404   1_455 S
C833   C930    1.485   .     D
C833   C832    1.404   1_655 S
C833   C927    1.413   1_556 S
C834   C835    1.406   .     S
C834   C839    1.406   .     S
C834   C929    1.485   .     D
C835   C836    1.394   .     D
C835   H855    1.083   .     S
C836   C837    1.404   .     S
C836   H856    1.083   .     S
C837   C838    1.401   .     S
C838   C839    1.401   .     D
C838   H857    1.083   .     S
C839   H858    1.083   .     S
C840   C841    1.401   .     D
C840   H859    1.080   .     S
C841   C842    1.403   .     S
C842   C843    1.397   .     D
C842   H860    1.083   .     S
C843   H861    1.080   .     S
C844   C845    1.403   .     S
C844   H862    1.079   .     S
C845   C846    1.402   .     D
C846   C847    1.401   .     S
C846   H863    1.083   .     S
C847   H864    1.080   .     S
H851   C827    1.083   1_554 S
C865   C868    1.499   .     D
C865   N871    1.365   .     S
N866   C873    1.433   .     S
C867   H896    1.083   .     S
C870   H897    1.085   .     S
N871   Ru1153  2.105   .     S
N872   Ru1153  2.105   .     S
C873   C874    1.409   .     D
C873   C878    1.396   .     S
C874   C875    1.403   .     S
C874   H898    1.081   .     S
C875   C876    1.405   .     D
C875   H899    1.083   .     S
C876   C877    1.403   .     S
C876   C879    1.482   .     S
C877   C878    1.392   .     D
C877   H900    1.083   .     S
C878   H901    1.083   .     S
C879   C880    1.404   .     S
C880   C881    1.404   .     D
C880   H902    1.085   .     S
C882   C883    1.406   .     D
C882   C887    1.406   .     S
C883   C884    1.394   .     S
C883   H903    1.083   .     S
C884   C885    1.404   .     D
C884   H904    1.083   .     S
C885   C886    1.401   .     S
C886   C887    1.401   .     D
C886   H905    1.083   .     S
C887   H906    1.083   .     S
C888   C889    1.401   .     D
C888   H907    1.080   .     S
C889   C890    1.403   .     S
C890   C891    1.397   .     D
C890   H908    1.083   .     S
C891   H909    1.080   .     S
C892   C893    1.403   .     D
C892   H910    1.079   .     S
C893   C894    1.402   .     S
C894   C895    1.401   .     D
C894   H911    1.083   .     S
C895   H912    1.080   .     S
C913   C916    1.499   .     S
C913   N919    1.365   .     D
N914   C921    1.433   .     S
C915   H944    1.083   .     S
C918   H945    1.085   .     S
N919   Ru1154  2.105   .     S
N920   Ru1154  2.105   .     S
C921   C922    1.409   .     D
C921   C926    1.396   .     S
C922   C923    1.403   .     S
C922   H946    1.081   .     S
C923   C924    1.405   .     D
C923   H947    1.083   1_554 S
C924   C925    1.403   .     S
C924   C927    1.482   .     S
C925   C926    1.392   .     D
C925   H948    1.083   .     S
C926   H949    1.083   .     S
C927   C928    1.404   .     D
C927   C833    1.413   1_554 S
C928   H950    1.085   .     S
C928   C929    1.404   1_655 S
C929   C831    1.413   1_554 S
C929   C928    1.404   1_455 S
C930   C931    1.406   .     S
C930   C935    1.406   .     S
C931   C932    1.394   .     D
C931   H951    1.083   .     S
C932   C933    1.404   .     S
C932   H952    1.083   .     S
C933   C934    1.401   .     S
C934   C935    1.401   .     D
C934   H953    1.083   .     S
C935   H954    1.083   .     S
C936   C937    1.401   .     D
C936   H955    1.080   .     S
C937   C938    1.403   .     S
C938   C939    1.397   .     D
C938   H956    1.083   .     S
C939   H957    1.080   .     S
C940   C941    1.403   .     D
C940   H958    1.079   .     S
C941   C942    1.402   .     S
C942   C943    1.401   .     D
C942   H959    1.083   .     S
C943   H960    1.080   .     S
H947   C923    1.083   1_556 S
C961   C964    1.499   .     D
C961   N967    1.365   .     S
N962   C969    1.433   .     D
C963   H992    1.083   .     S
C966   H993    1.085   .     S
N967   Ru1155  2.105   .     S
N968   Ru1155  2.105   .     S
C969   C970    1.409   .     S
C969   C974    1.396   .     S
C970   C971    1.403   .     D
C970   H994    1.081   .     S
C971   C972    1.405   .     S
C971   H995    1.083   .     S
C972   C973    1.403   .     S
C972   C975    1.482   .     D
C973   C974    1.392   .     D
C973   H996    1.083   .     S
C974   H997    1.083   .     S
C975   C976    1.404   .     S
C975   C1073   1.413   .     S
C976   C977    1.404   .     D
C976   H998    1.085   .     S
C977   C1071   1.413   .     S
C977   C1074   1.485   .     S
C978   C979    1.406   .     D
C978   C983    1.406   .     S
C978   C1073   1.485   .     S
C979   C980    1.394   .     S
C979   H999    1.083   .     S
C980   C981    1.404   .     D
C980   H1000   1.083   .     S
C981   C982    1.401   .     S
C982   C983    1.401   .     D
C982   H1001   1.083   .     S
C983   H1002   1.083   .     S
C984   C985    1.401   .     S
C984   H1003   1.080   .     S
C985   C986    1.403   .     D
C986   C987    1.397   .     S
C986   H1004   1.083   .     S
C987   H1005   1.080   .     S
C988   C989    1.403   .     S
C988   H1006   1.079   .     S
C989   C990    1.402   .     D
C990   C991    1.401   .     S
C990   H1007   1.083   .     S
C991   H1008   1.080   .     S
C1009  C1012   1.499   .     S
C1009  N1015   1.365   .     D
N1010  C1017   1.433   .     S
C1011  H1040   1.083   .     S
C1014  H1041   1.085   .     S
N1015  Ru1156  2.105   .     S
N1016  Ru1156  2.105   .     S
C1017  C1018   1.409   .     S
C1017  C1022   1.396   .     D
C1018  C1019   1.403   .     D
C1018  H1042   1.081   .     S
C1019  C1020   1.405   .     S
C1019  H1043   1.083   1_554 S
C1020  C1021   1.403   .     D
C1020  C1023   1.482   .     S
C1021  C1022   1.392   .     S
C1021  H1044   1.083   .     S
C1022  H1045   1.083   .     S
C1023  C1024   1.404   .     D
C1023  C1121   1.413   1_554 S
C1024  H1046   1.085   .     S
C1024  C1025   1.404   1_455 S
C1025  C1122   1.485   .     S
C1025  C1024   1.404   1_655 S
C1025  C1119   1.413   1_554 D
C1026  C1027   1.406   .     D
C1026  C1031   1.406   .     S
C1026  C1121   1.485   .     S
C1027  C1028   1.394   .     S
C1027  H1047   1.083   .     S
C1028  C1029   1.404   .     D
C1028  H1048   1.083   .     S
C1029  C1030   1.401   .     S
C1030  C1031   1.401   .     D
C1030  H1049   1.083   .     S
C1031  H1050   1.083   .     S
C1032  C1033   1.401   .     D
C1032  H1051   1.080   .     S
C1033  C1034   1.403   .     S
C1034  C1035   1.397   .     D
C1034  H1052   1.083   .     S
C1035  H1053   1.080   .     S
C1036  C1037   1.403   .     S
C1036  H1054   1.079   .     S
C1037  C1038   1.402   .     D
C1038  C1039   1.401   .     S
C1038  H1055   1.083   .     S
C1039  H1056   1.080   .     S
H1043  C1019   1.083   1_556 S
C1057  C1060   1.499   .     S
C1057  N1063   1.365   .     S
N1058  C1065   1.433   .     D
C1059  H1088   1.083   .     S
C1062  H1089   1.085   .     S
N1063  Ru1159  2.105   .     S
N1064  Ru1159  2.105   .     S
C1065  C1066   1.409   .     S
C1065  C1070   1.396   .     S
C1066  C1067   1.403   .     D
C1066  H1090   1.081   .     S
C1067  C1068   1.405   .     S
C1067  H1091   1.083   .     S
C1068  C1069   1.403   .     S
C1068  C1071   1.482   .     D
C1069  C1070   1.392   .     D
C1069  H1092   1.083   .     S
C1070  H1093   1.083   .     S
C1071  C1072   1.404   .     S
C1072  C1073   1.404   .     D
C1072  H1094   1.085   .     S
C1074  C1075   1.406   .     S
C1074  C1079   1.406   .     D
C1075  C1076   1.394   .     D
C1075  H1095   1.083   .     S
C1076  C1077   1.404   .     S
C1076  H1096   1.083   .     S
C1077  C1078   1.401   .     D
C1078  C1079   1.401   .     S
C1078  H1097   1.083   .     S
C1079  H1098   1.083   .     S
C1080  C1081   1.401   .     D
C1080  H1099   1.080   .     S
C1081  C1082   1.403   .     S
C1082  C1083   1.397   .     D
C1082  H1100   1.083   .     S
C1083  H1101   1.080   .     S
C1084  C1085   1.403   .     S
C1084  H1102   1.079   .     S
C1085  C1086   1.402   .     D
C1086  C1087   1.401   .     S
C1086  H1103   1.083   .     S
C1087  H1104   1.080   .     S
C1105  C1108   1.499   .     S
C1105  N1111   1.365   .     S
N1106  C1113   1.433   .     S
C1107  H1136   1.083   .     S
C1110  H1137   1.085   .     S
N1111  Ru1160  2.105   .     S
N1112  Ru1160  2.105   .     S
C1113  C1114   1.409   .     S
C1113  C1118   1.396   .     D
C1114  C1115   1.403   .     D
C1114  H1138   1.081   .     S
C1115  C1116   1.405   .     S
C1115  H1139   1.083   1_556 S
C1116  C1117   1.403   .     D
C1116  C1119   1.482   .     S
C1117  C1118   1.392   .     S
C1117  H1140   1.083   .     S
C1118  H1141   1.083   .     S
C1119  C1120   1.404   .     S
C1119  C1025   1.413   1_556 D
C1120  H1142   1.085   .     S
C1120  C1121   1.404   1_655 D
C1121  C1023   1.413   1_556 S
C1121  C1120   1.404   1_455 D
C1122  C1123   1.406   .     S
C1122  C1127   1.406   .     D
C1123  C1124   1.394   .     D
C1123  H1143   1.083   .     S
C1124  C1125   1.404   .     S
C1124  H1144   1.083   .     S
C1125  C1126   1.401   .     D
C1126  C1127   1.401   .     S
C1126  H1145   1.083   .     S
C1127  H1146   1.083   .     S
C1128  C1129   1.401   .     D
C1128  H1147   1.080   .     S
C1129  C1130   1.403   .     S
C1130  C1131   1.397   .     D
C1130  H1148   1.083   .     S
C1131  H1149   1.080   .     S
C1132  C1133   1.403   .     S
C1132  H1150   1.079   .     S
C1133  C1134   1.402   .     D
C1134  C1135   1.401   .     S
C1134  H1151   1.083   .     S
C1135  H1152   1.080   .     S
H1139  C1115   1.083   1_554 S
