data_738
_audit_creation_date              2023-09-08
_audit_creation_method            'Materials Studio'
_symmetry_space_group_name_H-M    'P1'
_symmetry_Int_Tables_number       1
_symmetry_cell_setting            triclinic
loop_
_symmetry_equiv_pos_as_xyz
  x,y,z
_cell_length_a                    30.9700
_cell_length_b                    30.9700
_cell_length_c                    7.5700
_cell_angle_alpha                 90.0000
_cell_angle_beta                  90.0000
_cell_angle_gamma                 90.0000
loop_
_atom_site_label
_atom_site_type_symbol
_atom_site_fract_x
_atom_site_fract_y
_atom_site_fract_z
_atom_site_U_iso_or_equiv
_atom_site_adp_type
_atom_site_occupancy
C1     C     0.68917   0.97379   0.45398   0.00000  Uiso   1.00
C2     C     0.72061   0.97692   0.59050   0.00000  Uiso   1.00
C3     C     0.75447   0.94676   0.59628   0.00000  Uiso   1.00
C4     C     0.75606   0.91247   0.47714   0.00000  Uiso   1.00
C5     C     0.72392   0.90797   0.34962   0.00000  Uiso   1.00
C6     C     0.69112   0.93876   0.33644   0.00000  Uiso   1.00
C7     C     0.65632   0.00547   0.44147   0.00000  Uiso   1.00
C8     C     0.65207   0.03583   0.57644   0.00000  Uiso   1.00
C9     C     0.68118   0.03732   0.71662   0.00000  Uiso   1.00
C10    C     0.71725   0.00978   0.71954   0.00000  Uiso   1.00
C11    C     0.75122   0.01642   0.85686   0.00000  Uiso   1.00
C12    C     0.75893   0.98444   0.98444   0.00000  Uiso   1.00
C13    C     0.78998   0.99075   0.11550   0.00000  Uiso   1.00
C14    C     0.81372   0.02918   0.12555   0.00000  Uiso   1.00
C15    C     0.80622   0.06188   0.99952   0.00000  Uiso   1.00
C16    C     0.77542   0.05510   0.86296   0.00000  Uiso   1.00
C17    C     0.76968   0.08704   0.73347   0.00000  Uiso   1.00
C18    C     0.79280   0.12554   0.74019   0.00000  Uiso   1.00
C19    C     0.82222   0.13269   0.87612   0.00000  Uiso   1.00
C20    C     0.82925   0.10099   0.00454   0.00000  Uiso   1.00
C21    C     0.62626   0.01025   0.29115   0.00000  Uiso   1.00
N22    N     0.62800   0.98665   0.14986   0.00000  Uiso   1.00
C23    C     0.59887   0.99231   0.00458   0.00000  Uiso   1.00
C24    C     0.84708   0.03389   0.26391   0.00000  Uiso   1.00
N25    N     0.86184   0.00023   0.34594   0.00000  Uiso   1.00
C26    C     0.89440   0.00143   0.48008   0.00000  Uiso   1.00
C27    C     0.57355   0.02968   0.98709   0.00000  Uiso   1.00
C28    C     0.54330   0.03305   0.85076   0.00000  Uiso   1.00
C29    C     0.53754   0.99921   0.72862   0.00000  Uiso   1.00
C30    C     0.56385   0.96235   0.74600   0.00000  Uiso   1.00
C31    C     0.59445   0.95915   0.88098   0.00000  Uiso   1.00
C32    C     0.90306   0.03867   0.58008   0.00000  Uiso   1.00
C33    C     0.93593   0.03825   0.70778   0.00000  Uiso   1.00
C34    C     0.96060   0.00070   0.73765   0.00000  Uiso   1.00
C35    C     0.95164   0.96401   0.63440   0.00000  Uiso   1.00
C36    C     0.91865   0.96420   0.50936   0.00000  Uiso   1.00
Cl37   Cl    0.72464   0.86347   0.20693   0.00000  Uiso   1.00
Cl38   Cl    0.84961   0.18190   0.88519   0.00000  Uiso   1.00
O39    O     0.67436   0.06628   0.85039   0.00000  Uiso   1.00
O40    O     0.73604   0.94673   0.98190   0.00000  Uiso   1.00
H41    H     0.78111   0.95017   0.69932   0.00000  Uiso   1.00
H42    H     0.78363   0.88814   0.48410   0.00000  Uiso   1.00
H43    H     0.66546   0.93564   0.22918   0.00000  Uiso   1.00
H44    H     0.62437   0.06006   0.57340   0.00000  Uiso   1.00
H45    H     0.79644   0.96435   0.21712   0.00000  Uiso   1.00
H46    H     0.74570   0.08112   0.62176   0.00000  Uiso   1.00
H47    H     0.78763   0.15123   0.63435   0.00000  Uiso   1.00
H48    H     0.85379   0.10676   0.11431   0.00000  Uiso   1.00
H49    H     0.60052   0.03638   0.30407   0.00000  Uiso   1.00
H50    H     0.85984   0.06738   0.29833   0.00000  Uiso   1.00
H51    H     0.57778   0.05736   0.08489   0.00000  Uiso   1.00
H52    H     0.52287   0.06349   0.83727   0.00000  Uiso   1.00
H53    H     0.56038   0.93442   0.64886   0.00000  Uiso   1.00
H54    H     0.61596   0.92936   0.89052   0.00000  Uiso   1.00
H55    H     0.88334   0.06926   0.55737   0.00000  Uiso   1.00
H56    H     0.94293   0.06851   0.78870   0.00000  Uiso   1.00
H57    H     0.97154   0.93336   0.65228   0.00000  Uiso   1.00
H58    H     0.91132   0.93376   0.43011   0.00000  Uiso   1.00
H59    H     0.70591   0.07780   0.90165   0.00000  Uiso   1.00
H60    H     0.70402   0.95194   0.04432   0.00000  Uiso   1.00
C61    C     0.18917   0.47379   0.95398   0.00000  Uiso   1.00
C62    C     0.22061   0.47692   0.09050   0.00000  Uiso   1.00
C63    C     0.25447   0.44676   0.09628   0.00000  Uiso   1.00
C64    C     0.25606   0.41247   0.97714   0.00000  Uiso   1.00
C65    C     0.22392   0.40797   0.84962   0.00000  Uiso   1.00
C66    C     0.19112   0.43876   0.83644   0.00000  Uiso   1.00
C67    C     0.15632   0.50547   0.94147   0.00000  Uiso   1.00
C68    C     0.15207   0.53583   0.07644   0.00000  Uiso   1.00
C69    C     0.18118   0.53732   0.21662   0.00000  Uiso   1.00
C70    C     0.21725   0.50978   0.21954   0.00000  Uiso   1.00
C71    C     0.25122   0.51642   0.35686   0.00000  Uiso   1.00
C72    C     0.25893   0.48444   0.48444   0.00000  Uiso   1.00
C73    C     0.28998   0.49075   0.61550   0.00000  Uiso   1.00
C74    C     0.31372   0.52918   0.62555   0.00000  Uiso   1.00
C75    C     0.30622   0.56188   0.49952   0.00000  Uiso   1.00
C76    C     0.27542   0.55510   0.36296   0.00000  Uiso   1.00
C77    C     0.26968   0.58704   0.23347   0.00000  Uiso   1.00
C78    C     0.29280   0.62554   0.24019   0.00000  Uiso   1.00
C79    C     0.32222   0.63269   0.37612   0.00000  Uiso   1.00
C80    C     0.32925   0.60099   0.50454   0.00000  Uiso   1.00
C81    C     0.12626   0.51025   0.79115   0.00000  Uiso   1.00
N82    N     0.12800   0.48665   0.64986   0.00000  Uiso   1.00
C83    C     0.09887   0.49231   0.50458   0.00000  Uiso   1.00
C84    C     0.34708   0.53389   0.76391   0.00000  Uiso   1.00
N85    N     0.36184   0.50023   0.84594   0.00000  Uiso   1.00
C86    C     0.39440   0.50143   0.98008   0.00000  Uiso   1.00
C87    C     0.07355   0.52968   0.48709   0.00000  Uiso   1.00
C88    C     0.04330   0.53305   0.35076   0.00000  Uiso   1.00
C89    C     0.03754   0.49921   0.22862   0.00000  Uiso   1.00
C90    C     0.06385   0.46235   0.24600   0.00000  Uiso   1.00
C91    C     0.09445   0.45915   0.38098   0.00000  Uiso   1.00
C92    C     0.40306   0.53867   0.08008   0.00000  Uiso   1.00
C93    C     0.43593   0.53825   0.20778   0.00000  Uiso   1.00
C94    C     0.46060   0.50070   0.23765   0.00000  Uiso   1.00
C95    C     0.45164   0.46401   0.13440   0.00000  Uiso   1.00
C96    C     0.41865   0.46420   0.00936   0.00000  Uiso   1.00
Cl97   Cl    0.22464   0.36347   0.70693   0.00000  Uiso   1.00
Cl98   Cl    0.34961   0.68190   0.38519   0.00000  Uiso   1.00
O99    O     0.17436   0.56628   0.35039   0.00000  Uiso   1.00
O100   O     0.23604   0.44673   0.48190   0.00000  Uiso   1.00
H101   H     0.28111   0.45017   0.19932   0.00000  Uiso   1.00
H102   H     0.28363   0.38814   0.98410   0.00000  Uiso   1.00
H103   H     0.16546   0.43564   0.72918   0.00000  Uiso   1.00
H104   H     0.12437   0.56006   0.07340   0.00000  Uiso   1.00
H105   H     0.29644   0.46435   0.71712   0.00000  Uiso   1.00
H106   H     0.24570   0.58112   0.12176   0.00000  Uiso   1.00
H107   H     0.28763   0.65123   0.13435   0.00000  Uiso   1.00
H108   H     0.35379   0.60676   0.61431   0.00000  Uiso   1.00
H109   H     0.10052   0.53638   0.80407   0.00000  Uiso   1.00
H110   H     0.35984   0.56738   0.79833   0.00000  Uiso   1.00
H111   H     0.07778   0.55736   0.58489   0.00000  Uiso   1.00
H112   H     0.02287   0.56349   0.33727   0.00000  Uiso   1.00
H113   H     0.06038   0.43442   0.14886   0.00000  Uiso   1.00
H114   H     0.11596   0.42936   0.39052   0.00000  Uiso   1.00
H115   H     0.38334   0.56926   0.05737   0.00000  Uiso   1.00
H116   H     0.44293   0.56851   0.28870   0.00000  Uiso   1.00
H117   H     0.47154   0.43336   0.15228   0.00000  Uiso   1.00
H118   H     0.41132   0.43376   0.93011   0.00000  Uiso   1.00
H119   H     0.20591   0.57780   0.40165   0.00000  Uiso   1.00
H120   H     0.20402   0.45194   0.54432   0.00000  Uiso   1.00
C121   C     0.81083   0.52621   0.95398   0.00000  Uiso   1.00
C122   C     0.77939   0.52308   0.09050   0.00000  Uiso   1.00
C123   C     0.74553   0.55324   0.09628   0.00000  Uiso   1.00
C124   C     0.74394   0.58753   0.97714   0.00000  Uiso   1.00
C125   C     0.77608   0.59203   0.84962   0.00000  Uiso   1.00
C126   C     0.80888   0.56124   0.83644   0.00000  Uiso   1.00
C127   C     0.84368   0.49453   0.94147   0.00000  Uiso   1.00
C128   C     0.84793   0.46417   0.07644   0.00000  Uiso   1.00
C129   C     0.81882   0.46268   0.21662   0.00000  Uiso   1.00
C130   C     0.78275   0.49022   0.21954   0.00000  Uiso   1.00
C131   C     0.74878   0.48358   0.35686   0.00000  Uiso   1.00
C132   C     0.74107   0.51556   0.48444   0.00000  Uiso   1.00
C133   C     0.71002   0.50925   0.61550   0.00000  Uiso   1.00
C134   C     0.68628   0.47082   0.62555   0.00000  Uiso   1.00
C135   C     0.69378   0.43812   0.49952   0.00000  Uiso   1.00
C136   C     0.72458   0.44490   0.36296   0.00000  Uiso   1.00
C137   C     0.73032   0.41296   0.23347   0.00000  Uiso   1.00
C138   C     0.70720   0.37446   0.24019   0.00000  Uiso   1.00
C139   C     0.67778   0.36731   0.37612   0.00000  Uiso   1.00
C140   C     0.67075   0.39901   0.50454   0.00000  Uiso   1.00
C141   C     0.87374   0.48975   0.79115   0.00000  Uiso   1.00
N142   N     0.87200   0.51335   0.64986   0.00000  Uiso   1.00
C143   C     0.90113   0.50769   0.50458   0.00000  Uiso   1.00
C144   C     0.65292   0.46611   0.76391   0.00000  Uiso   1.00
N145   N     0.63816   0.49977   0.84594   0.00000  Uiso   1.00
C146   C     0.60560   0.49857   0.98008   0.00000  Uiso   1.00
C147   C     0.92645   0.47032   0.48709   0.00000  Uiso   1.00
C148   C     0.95670   0.46695   0.35076   0.00000  Uiso   1.00
C149   C     0.96246   0.50079   0.22862   0.00000  Uiso   1.00
C150   C     0.93615   0.53765   0.24600   0.00000  Uiso   1.00
C151   C     0.90555   0.54085   0.38098   0.00000  Uiso   1.00
C152   C     0.59694   0.46133   0.08008   0.00000  Uiso   1.00
C153   C     0.56407   0.46175   0.20778   0.00000  Uiso   1.00
C154   C     0.53940   0.49930   0.23765   0.00000  Uiso   1.00
C155   C     0.54836   0.53599   0.13440   0.00000  Uiso   1.00
C156   C     0.58135   0.53580   0.00936   0.00000  Uiso   1.00
Cl157  Cl    0.77536   0.63653   0.70693   0.00000  Uiso   1.00
Cl158  Cl    0.65039   0.31810   0.38519   0.00000  Uiso   1.00
O159   O     0.82564   0.43372   0.35039   0.00000  Uiso   1.00
O160   O     0.76396   0.55327   0.48190   0.00000  Uiso   1.00
H161   H     0.71889   0.54983   0.19932   0.00000  Uiso   1.00
H162   H     0.71637   0.61186   0.98410   0.00000  Uiso   1.00
H163   H     0.83454   0.56436   0.72918   0.00000  Uiso   1.00
H164   H     0.87563   0.43994   0.07340   0.00000  Uiso   1.00
H165   H     0.70356   0.53565   0.71712   0.00000  Uiso   1.00
H166   H     0.75430   0.41888   0.12176   0.00000  Uiso   1.00
H167   H     0.71237   0.34877   0.13435   0.00000  Uiso   1.00
H168   H     0.64621   0.39324   0.61431   0.00000  Uiso   1.00
H169   H     0.89948   0.46362   0.80407   0.00000  Uiso   1.00
H170   H     0.64016   0.43262   0.79833   0.00000  Uiso   1.00
H171   H     0.92222   0.44264   0.58489   0.00000  Uiso   1.00
H172   H     0.97713   0.43651   0.33727   0.00000  Uiso   1.00
H173   H     0.93962   0.56558   0.14886   0.00000  Uiso   1.00
H174   H     0.88404   0.57064   0.39052   0.00000  Uiso   1.00
H175   H     0.61666   0.43074   0.05737   0.00000  Uiso   1.00
H176   H     0.55707   0.43149   0.28870   0.00000  Uiso   1.00
H177   H     0.52846   0.56664   0.15228   0.00000  Uiso   1.00
H178   H     0.58868   0.56624   0.93011   0.00000  Uiso   1.00
H179   H     0.79409   0.42220   0.40165   0.00000  Uiso   1.00
H180   H     0.79598   0.54806   0.54432   0.00000  Uiso   1.00
C181   C     0.31083   0.02621   0.45398   0.00000  Uiso   1.00
C182   C     0.27939   0.02308   0.59050   0.00000  Uiso   1.00
C183   C     0.24553   0.05324   0.59628   0.00000  Uiso   1.00
C184   C     0.24394   0.08753   0.47714   0.00000  Uiso   1.00
C185   C     0.27608   0.09203   0.34962   0.00000  Uiso   1.00
C186   C     0.30888   0.06124   0.33644   0.00000  Uiso   1.00
C187   C     0.34368   0.99453   0.44147   0.00000  Uiso   1.00
C188   C     0.34793   0.96417   0.57644   0.00000  Uiso   1.00
C189   C     0.31882   0.96268   0.71662   0.00000  Uiso   1.00
C190   C     0.28275   0.99022   0.71954   0.00000  Uiso   1.00
C191   C     0.24878   0.98358   0.85686   0.00000  Uiso   1.00
C192   C     0.24107   0.01556   0.98444   0.00000  Uiso   1.00
C193   C     0.21002   0.00925   0.11550   0.00000  Uiso   1.00
C194   C     0.18628   0.97082   0.12555   0.00000  Uiso   1.00
C195   C     0.19378   0.93812   0.99952   0.00000  Uiso   1.00
C196   C     0.22458   0.94490   0.86296   0.00000  Uiso   1.00
C197   C     0.23032   0.91296   0.73347   0.00000  Uiso   1.00
C198   C     0.20720   0.87446   0.74019   0.00000  Uiso   1.00
C199   C     0.17778   0.86731   0.87612   0.00000  Uiso   1.00
C200   C     0.17075   0.89901   0.00454   0.00000  Uiso   1.00
C201   C     0.37374   0.98975   0.29115   0.00000  Uiso   1.00
N202   N     0.37200   0.01335   0.14986   0.00000  Uiso   1.00
C203   C     0.40113   0.00769   0.00458   0.00000  Uiso   1.00
C204   C     0.15292   0.96611   0.26391   0.00000  Uiso   1.00
N205   N     0.13816   0.99977   0.34594   0.00000  Uiso   1.00
C206   C     0.10560   0.99857   0.48008   0.00000  Uiso   1.00
C207   C     0.42645   0.97032   0.98709   0.00000  Uiso   1.00
C208   C     0.45670   0.96695   0.85076   0.00000  Uiso   1.00
C209   C     0.46246   0.00079   0.72862   0.00000  Uiso   1.00
C210   C     0.43615   0.03765   0.74600   0.00000  Uiso   1.00
C211   C     0.40555   0.04085   0.88098   0.00000  Uiso   1.00
C212   C     0.09694   0.96133   0.58008   0.00000  Uiso   1.00
C213   C     0.06407   0.96175   0.70778   0.00000  Uiso   1.00
C214   C     0.03940   0.99930   0.73765   0.00000  Uiso   1.00
C215   C     0.04836   0.03599   0.63440   0.00000  Uiso   1.00
C216   C     0.08135   0.03580   0.50936   0.00000  Uiso   1.00
Cl217  Cl    0.27536   0.13653   0.20693   0.00000  Uiso   1.00
Cl218  Cl    0.15039   0.81810   0.88519   0.00000  Uiso   1.00
O219   O     0.32564   0.93372   0.85039   0.00000  Uiso   1.00
O220   O     0.26396   0.05327   0.98190   0.00000  Uiso   1.00
H221   H     0.21889   0.04983   0.69932   0.00000  Uiso   1.00
H222   H     0.21637   0.11186   0.48410   0.00000  Uiso   1.00
H223   H     0.33454   0.06436   0.22918   0.00000  Uiso   1.00
H224   H     0.37563   0.93994   0.57340   0.00000  Uiso   1.00
H225   H     0.20356   0.03565   0.21712   0.00000  Uiso   1.00
H226   H     0.25430   0.91888   0.62176   0.00000  Uiso   1.00
H227   H     0.21237   0.84877   0.63435   0.00000  Uiso   1.00
H228   H     0.14621   0.89324   0.11431   0.00000  Uiso   1.00
H229   H     0.39948   0.96362   0.30407   0.00000  Uiso   1.00
H230   H     0.14016   0.93262   0.29833   0.00000  Uiso   1.00
H231   H     0.42222   0.94264   0.08489   0.00000  Uiso   1.00
H232   H     0.47713   0.93651   0.83727   0.00000  Uiso   1.00
H233   H     0.43962   0.06558   0.64886   0.00000  Uiso   1.00
H234   H     0.38404   0.07064   0.89052   0.00000  Uiso   1.00
H235   H     0.11666   0.93074   0.55737   0.00000  Uiso   1.00
H236   H     0.05707   0.93149   0.78870   0.00000  Uiso   1.00
H237   H     0.02846   0.06664   0.65228   0.00000  Uiso   1.00
H238   H     0.08868   0.06624   0.43011   0.00000  Uiso   1.00
H239   H     0.29409   0.92220   0.90165   0.00000  Uiso   1.00
H240   H     0.29598   0.04806   0.04432   0.00000  Uiso   1.00
C241   C     0.02621   0.18917   0.70398   0.00000  Uiso   1.00
C242   C     0.02308   0.22061   0.84050   0.00000  Uiso   1.00
C243   C     0.05324   0.25447   0.84628   0.00000  Uiso   1.00
C244   C     0.08753   0.25606   0.72714   0.00000  Uiso   1.00
C245   C     0.09203   0.22392   0.59962   0.00000  Uiso   1.00
C246   C     0.06124   0.19112   0.58644   0.00000  Uiso   1.00
C247   C     0.99453   0.15632   0.69147   0.00000  Uiso   1.00
C248   C     0.96417   0.15207   0.82644   0.00000  Uiso   1.00
C249   C     0.96268   0.18118   0.96662   0.00000  Uiso   1.00
C250   C     0.99022   0.21725   0.96954   0.00000  Uiso   1.00
C251   C     0.98358   0.25122   0.10686   0.00000  Uiso   1.00
C252   C     0.01556   0.25893   0.23444   0.00000  Uiso   1.00
C253   C     0.00925   0.28998   0.36550   0.00000  Uiso   1.00
C254   C     0.97082   0.31372   0.37555   0.00000  Uiso   1.00
C255   C     0.93812   0.30622   0.24952   0.00000  Uiso   1.00
C256   C     0.94490   0.27542   0.11296   0.00000  Uiso   1.00
C257   C     0.91296   0.26968   0.98347   0.00000  Uiso   1.00
C258   C     0.87446   0.29280   0.99019   0.00000  Uiso   1.00
C259   C     0.86731   0.32222   0.12612   0.00000  Uiso   1.00
C260   C     0.89901   0.32925   0.25454   0.00000  Uiso   1.00
C261   C     0.98975   0.12626   0.54115   0.00000  Uiso   1.00
N262   N     0.01335   0.12800   0.39986   0.00000  Uiso   1.00
C263   C     0.00769   0.09887   0.25458   0.00000  Uiso   1.00
C264   C     0.96611   0.34708   0.51391   0.00000  Uiso   1.00
N265   N     0.99977   0.36184   0.59594   0.00000  Uiso   1.00
C266   C     0.99857   0.39440   0.73008   0.00000  Uiso   1.00
C267   C     0.97032   0.07355   0.23709   0.00000  Uiso   1.00
C268   C     0.96695   0.04330   0.10076   0.00000  Uiso   1.00
C269   C     0.00079   0.03754   0.97862   0.00000  Uiso   1.00
C270   C     0.03765   0.06385   0.99600   0.00000  Uiso   1.00
C271   C     0.04085   0.09445   0.13098   0.00000  Uiso   1.00
C272   C     0.96133   0.40306   0.83008   0.00000  Uiso   1.00
C273   C     0.96175   0.43593   0.95778   0.00000  Uiso   1.00
C274   C     0.99930   0.46060   0.98765   0.00000  Uiso   1.00
C275   C     0.03599   0.45164   0.88440   0.00000  Uiso   1.00
C276   C     0.03580   0.41865   0.75936   0.00000  Uiso   1.00
Cl277  Cl    0.13653   0.22464   0.45693   0.00000  Uiso   1.00
Cl278  Cl    0.81810   0.34961   0.13519   0.00000  Uiso   1.00
O279   O     0.93372   0.17436   0.10039   0.00000  Uiso   1.00
O280   O     0.05327   0.23604   0.23190   0.00000  Uiso   1.00
H281   H     0.04983   0.28111   0.94932   0.00000  Uiso   1.00
H282   H     0.11186   0.28363   0.73410   0.00000  Uiso   1.00
H283   H     0.06436   0.16546   0.47918   0.00000  Uiso   1.00
H284   H     0.93994   0.12437   0.82340   0.00000  Uiso   1.00
H285   H     0.03565   0.29644   0.46712   0.00000  Uiso   1.00
H286   H     0.91888   0.24570   0.87176   0.00000  Uiso   1.00
H287   H     0.84877   0.28763   0.88435   0.00000  Uiso   1.00
H288   H     0.89324   0.35379   0.36431   0.00000  Uiso   1.00
H289   H     0.96362   0.10052   0.55407   0.00000  Uiso   1.00
H290   H     0.93262   0.35984   0.54833   0.00000  Uiso   1.00
H291   H     0.94264   0.07778   0.33489   0.00000  Uiso   1.00
H292   H     0.93651   0.02287   0.08727   0.00000  Uiso   1.00
H293   H     0.06558   0.06038   0.89886   0.00000  Uiso   1.00
H294   H     0.07064   0.11596   0.14052   0.00000  Uiso   1.00
H295   H     0.93074   0.38334   0.80737   0.00000  Uiso   1.00
H296   H     0.93149   0.44293   0.03870   0.00000  Uiso   1.00
H297   H     0.06664   0.47154   0.90228   0.00000  Uiso   1.00
H298   H     0.06624   0.41132   0.68011   0.00000  Uiso   1.00
H299   H     0.92220   0.20591   0.15165   0.00000  Uiso   1.00
H300   H     0.04806   0.20402   0.29432   0.00000  Uiso   1.00
C301   C     0.52621   0.68917   0.20398   0.00000  Uiso   1.00
C302   C     0.52308   0.72061   0.34050   0.00000  Uiso   1.00
C303   C     0.55324   0.75447   0.34628   0.00000  Uiso   1.00
C304   C     0.58753   0.75606   0.22714   0.00000  Uiso   1.00
C305   C     0.59203   0.72392   0.09962   0.00000  Uiso   1.00
C306   C     0.56124   0.69112   0.08644   0.00000  Uiso   1.00
C307   C     0.49453   0.65632   0.19147   0.00000  Uiso   1.00
C308   C     0.46417   0.65207   0.32644   0.00000  Uiso   1.00
C309   C     0.46268   0.68118   0.46662   0.00000  Uiso   1.00
C310   C     0.49022   0.71725   0.46954   0.00000  Uiso   1.00
C311   C     0.48358   0.75122   0.60686   0.00000  Uiso   1.00
C312   C     0.51556   0.75893   0.73444   0.00000  Uiso   1.00
C313   C     0.50925   0.78998   0.86550   0.00000  Uiso   1.00
C314   C     0.47082   0.81372   0.87555   0.00000  Uiso   1.00
C315   C     0.43812   0.80622   0.74952   0.00000  Uiso   1.00
C316   C     0.44490   0.77542   0.61296   0.00000  Uiso   1.00
C317   C     0.41296   0.76968   0.48347   0.00000  Uiso   1.00
C318   C     0.37446   0.79280   0.49019   0.00000  Uiso   1.00
C319   C     0.36731   0.82222   0.62612   0.00000  Uiso   1.00
C320   C     0.39901   0.82925   0.75454   0.00000  Uiso   1.00
C321   C     0.48975   0.62626   0.04115   0.00000  Uiso   1.00
N322   N     0.51335   0.62800   0.89986   0.00000  Uiso   1.00
C323   C     0.50769   0.59887   0.75458   0.00000  Uiso   1.00
C324   C     0.46611   0.84708   0.01391   0.00000  Uiso   1.00
N325   N     0.49977   0.86184   0.09594   0.00000  Uiso   1.00
C326   C     0.49857   0.89440   0.23008   0.00000  Uiso   1.00
C327   C     0.47032   0.57355   0.73709   0.00000  Uiso   1.00
C328   C     0.46695   0.54330   0.60076   0.00000  Uiso   1.00
C329   C     0.50079   0.53754   0.47862   0.00000  Uiso   1.00
C330   C     0.53765   0.56385   0.49600   0.00000  Uiso   1.00
C331   C     0.54085   0.59445   0.63098   0.00000  Uiso   1.00
C332   C     0.46133   0.90306   0.33008   0.00000  Uiso   1.00
C333   C     0.46175   0.93593   0.45778   0.00000  Uiso   1.00
C334   C     0.49930   0.96060   0.48765   0.00000  Uiso   1.00
C335   C     0.53599   0.95164   0.38440   0.00000  Uiso   1.00
C336   C     0.53580   0.91865   0.25936   0.00000  Uiso   1.00
Cl337  Cl    0.63653   0.72464   0.95693   0.00000  Uiso   1.00
Cl338  Cl    0.31810   0.84961   0.63519   0.00000  Uiso   1.00
O339   O     0.43372   0.67436   0.60039   0.00000  Uiso   1.00
O340   O     0.55327   0.73604   0.73190   0.00000  Uiso   1.00
H341   H     0.54983   0.78111   0.44932   0.00000  Uiso   1.00
H342   H     0.61186   0.78363   0.23410   0.00000  Uiso   1.00
H343   H     0.56436   0.66546   0.97918   0.00000  Uiso   1.00
H344   H     0.43994   0.62437   0.32340   0.00000  Uiso   1.00
H345   H     0.53565   0.79644   0.96712   0.00000  Uiso   1.00
H346   H     0.41888   0.74570   0.37176   0.00000  Uiso   1.00
H347   H     0.34877   0.78763   0.38435   0.00000  Uiso   1.00
H348   H     0.39324   0.85379   0.86431   0.00000  Uiso   1.00
H349   H     0.46362   0.60052   0.05407   0.00000  Uiso   1.00
H350   H     0.43262   0.85984   0.04833   0.00000  Uiso   1.00
H351   H     0.44264   0.57778   0.83489   0.00000  Uiso   1.00
H352   H     0.43651   0.52287   0.58727   0.00000  Uiso   1.00
H353   H     0.56558   0.56038   0.39886   0.00000  Uiso   1.00
H354   H     0.57064   0.61596   0.64052   0.00000  Uiso   1.00
H355   H     0.43074   0.88334   0.30737   0.00000  Uiso   1.00
H356   H     0.43149   0.94293   0.53870   0.00000  Uiso   1.00
H357   H     0.56664   0.97154   0.40228   0.00000  Uiso   1.00
H358   H     0.56624   0.91132   0.18011   0.00000  Uiso   1.00
H359   H     0.42220   0.70591   0.65165   0.00000  Uiso   1.00
H360   H     0.54806   0.70402   0.79432   0.00000  Uiso   1.00
C361   C     0.47379   0.31083   0.20398   0.00000  Uiso   1.00
C362   C     0.47692   0.27939   0.34050   0.00000  Uiso   1.00
C363   C     0.44676   0.24553   0.34628   0.00000  Uiso   1.00
C364   C     0.41247   0.24394   0.22714   0.00000  Uiso   1.00
C365   C     0.40797   0.27608   0.09962   0.00000  Uiso   1.00
C366   C     0.43876   0.30888   0.08644   0.00000  Uiso   1.00
C367   C     0.50547   0.34368   0.19147   0.00000  Uiso   1.00
C368   C     0.53583   0.34793   0.32644   0.00000  Uiso   1.00
C369   C     0.53732   0.31882   0.46662   0.00000  Uiso   1.00
C370   C     0.50978   0.28275   0.46954   0.00000  Uiso   1.00
C371   C     0.51642   0.24878   0.60686   0.00000  Uiso   1.00
C372   C     0.48444   0.24107   0.73444   0.00000  Uiso   1.00
C373   C     0.49075   0.21002   0.86550   0.00000  Uiso   1.00
C374   C     0.52918   0.18628   0.87555   0.00000  Uiso   1.00
C375   C     0.56188   0.19378   0.74952   0.00000  Uiso   1.00
C376   C     0.55510   0.22458   0.61296   0.00000  Uiso   1.00
C377   C     0.58704   0.23032   0.48347   0.00000  Uiso   1.00
C378   C     0.62554   0.20720   0.49019   0.00000  Uiso   1.00
C379   C     0.63269   0.17778   0.62612   0.00000  Uiso   1.00
C380   C     0.60099   0.17075   0.75454   0.00000  Uiso   1.00
C381   C     0.51025   0.37374   0.04115   0.00000  Uiso   1.00
N382   N     0.48665   0.37200   0.89986   0.00000  Uiso   1.00
C383   C     0.49231   0.40113   0.75458   0.00000  Uiso   1.00
C384   C     0.53389   0.15292   0.01391   0.00000  Uiso   1.00
N385   N     0.50023   0.13816   0.09594   0.00000  Uiso   1.00
C386   C     0.50143   0.10560   0.23008   0.00000  Uiso   1.00
C387   C     0.52968   0.42645   0.73709   0.00000  Uiso   1.00
C388   C     0.53305   0.45670   0.60076   0.00000  Uiso   1.00
C389   C     0.49921   0.46246   0.47862   0.00000  Uiso   1.00
C390   C     0.46235   0.43615   0.49600   0.00000  Uiso   1.00
C391   C     0.45915   0.40555   0.63098   0.00000  Uiso   1.00
C392   C     0.53867   0.09694   0.33008   0.00000  Uiso   1.00
C393   C     0.53825   0.06407   0.45778   0.00000  Uiso   1.00
C394   C     0.50070   0.03940   0.48765   0.00000  Uiso   1.00
C395   C     0.46401   0.04836   0.38440   0.00000  Uiso   1.00
C396   C     0.46420   0.08135   0.25936   0.00000  Uiso   1.00
Cl397  Cl    0.36347   0.27536   0.95693   0.00000  Uiso   1.00
Cl398  Cl    0.68190   0.15039   0.63519   0.00000  Uiso   1.00
O399   O     0.56628   0.32564   0.60039   0.00000  Uiso   1.00
O400   O     0.44673   0.26396   0.73190   0.00000  Uiso   1.00
H401   H     0.45017   0.21889   0.44932   0.00000  Uiso   1.00
H402   H     0.38814   0.21637   0.23410   0.00000  Uiso   1.00
H403   H     0.43564   0.33454   0.97918   0.00000  Uiso   1.00
H404   H     0.56006   0.37563   0.32340   0.00000  Uiso   1.00
H405   H     0.46435   0.20356   0.96712   0.00000  Uiso   1.00
H406   H     0.58112   0.25430   0.37176   0.00000  Uiso   1.00
H407   H     0.65123   0.21237   0.38435   0.00000  Uiso   1.00
H408   H     0.60676   0.14621   0.86431   0.00000  Uiso   1.00
H409   H     0.53638   0.39948   0.05407   0.00000  Uiso   1.00
H410   H     0.56738   0.14016   0.04833   0.00000  Uiso   1.00
H411   H     0.55736   0.42222   0.83489   0.00000  Uiso   1.00
H412   H     0.56349   0.47713   0.58727   0.00000  Uiso   1.00
H413   H     0.43442   0.43962   0.39886   0.00000  Uiso   1.00
H414   H     0.42936   0.38404   0.64052   0.00000  Uiso   1.00
H415   H     0.56926   0.11666   0.30737   0.00000  Uiso   1.00
H416   H     0.56851   0.05707   0.53870   0.00000  Uiso   1.00
H417   H     0.43336   0.02846   0.40228   0.00000  Uiso   1.00
H418   H     0.43376   0.08868   0.18011   0.00000  Uiso   1.00
H419   H     0.57780   0.29409   0.65165   0.00000  Uiso   1.00
H420   H     0.45194   0.29598   0.79432   0.00000  Uiso   1.00
C421   C     0.97379   0.81083   0.70398   0.00000  Uiso   1.00
C422   C     0.97692   0.77939   0.84050   0.00000  Uiso   1.00
C423   C     0.94676   0.74553   0.84628   0.00000  Uiso   1.00
C424   C     0.91247   0.74394   0.72714   0.00000  Uiso   1.00
C425   C     0.90797   0.77608   0.59962   0.00000  Uiso   1.00
C426   C     0.93876   0.80888   0.58644   0.00000  Uiso   1.00
C427   C     0.00547   0.84368   0.69147   0.00000  Uiso   1.00
C428   C     0.03583   0.84793   0.82644   0.00000  Uiso   1.00
C429   C     0.03732   0.81882   0.96662   0.00000  Uiso   1.00
C430   C     0.00978   0.78275   0.96954   0.00000  Uiso   1.00
C431   C     0.01642   0.74878   0.10686   0.00000  Uiso   1.00
C432   C     0.98444   0.74107   0.23444   0.00000  Uiso   1.00
C433   C     0.99075   0.71002   0.36550   0.00000  Uiso   1.00
C434   C     0.02918   0.68628   0.37555   0.00000  Uiso   1.00
C435   C     0.06188   0.69378   0.24952   0.00000  Uiso   1.00
C436   C     0.05510   0.72458   0.11296   0.00000  Uiso   1.00
C437   C     0.08704   0.73032   0.98347   0.00000  Uiso   1.00
C438   C     0.12554   0.70720   0.99019   0.00000  Uiso   1.00
C439   C     0.13269   0.67778   0.12612   0.00000  Uiso   1.00
C440   C     0.10099   0.67075   0.25454   0.00000  Uiso   1.00
C441   C     0.01025   0.87374   0.54115   0.00000  Uiso   1.00
N442   N     0.98665   0.87200   0.39986   0.00000  Uiso   1.00
C443   C     0.99231   0.90113   0.25458   0.00000  Uiso   1.00
C444   C     0.03389   0.65292   0.51391   0.00000  Uiso   1.00
N445   N     0.00023   0.63816   0.59594   0.00000  Uiso   1.00
C446   C     0.00143   0.60560   0.73008   0.00000  Uiso   1.00
C447   C     0.02968   0.92645   0.23709   0.00000  Uiso   1.00
C448   C     0.03305   0.95670   0.10076   0.00000  Uiso   1.00
C449   C     0.99921   0.96246   0.97862   0.00000  Uiso   1.00
C450   C     0.96235   0.93615   0.99600   0.00000  Uiso   1.00
C451   C     0.95915   0.90555   0.13098   0.00000  Uiso   1.00
C452   C     0.03867   0.59694   0.83008   0.00000  Uiso   1.00
C453   C     0.03825   0.56407   0.95778   0.00000  Uiso   1.00
C454   C     0.00070   0.53940   0.98765   0.00000  Uiso   1.00
C455   C     0.96401   0.54836   0.88440   0.00000  Uiso   1.00
C456   C     0.96420   0.58135   0.75936   0.00000  Uiso   1.00
Cl457  Cl    0.86347   0.77536   0.45693   0.00000  Uiso   1.00
Cl458  Cl    0.18190   0.65039   0.13519   0.00000  Uiso   1.00
O459   O     0.06628   0.82564   0.10039   0.00000  Uiso   1.00
O460   O     0.94673   0.76396   0.23190   0.00000  Uiso   1.00
H461   H     0.95017   0.71889   0.94932   0.00000  Uiso   1.00
H462   H     0.88814   0.71637   0.73410   0.00000  Uiso   1.00
H463   H     0.93564   0.83454   0.47918   0.00000  Uiso   1.00
H464   H     0.06006   0.87563   0.82340   0.00000  Uiso   1.00
H465   H     0.96435   0.70356   0.46712   0.00000  Uiso   1.00
H466   H     0.08112   0.75430   0.87176   0.00000  Uiso   1.00
H467   H     0.15123   0.71237   0.88435   0.00000  Uiso   1.00
H468   H     0.10676   0.64621   0.36431   0.00000  Uiso   1.00
H469   H     0.03638   0.89948   0.55407   0.00000  Uiso   1.00
H470   H     0.06738   0.64016   0.54833   0.00000  Uiso   1.00
H471   H     0.05736   0.92222   0.33489   0.00000  Uiso   1.00
H472   H     0.06349   0.97713   0.08727   0.00000  Uiso   1.00
H473   H     0.93442   0.93962   0.89886   0.00000  Uiso   1.00
H474   H     0.92936   0.88404   0.14052   0.00000  Uiso   1.00
H475   H     0.06926   0.61666   0.80737   0.00000  Uiso   1.00
H476   H     0.06851   0.55707   0.03870   0.00000  Uiso   1.00
H477   H     0.93336   0.52846   0.90228   0.00000  Uiso   1.00
H478   H     0.93376   0.58868   0.68011   0.00000  Uiso   1.00
H479   H     0.07780   0.79409   0.15165   0.00000  Uiso   1.00
H480   H     0.95194   0.79598   0.29432   0.00000  Uiso   1.00
C481   C     0.00000   0.00000   0.85082   0.00000  Uiso   1.00
C482   C     0.50000   0.50000   0.35082   0.00000  Uiso   1.00
C483   C     0.00000   0.50000   0.10082   0.00000  Uiso   1.00
C484   C     0.50000   0.00000   0.60082   0.00000  Uiso   1.00
loop_
_geom_bond_atom_site_label_1
_geom_bond_atom_site_label_2
_geom_bond_distance
_geom_bond_site_symmetry_2
_ccdc_geom_bond_type
C1     C2      1.423   .     S
C1     C6      1.404   .     S
C1     C7      1.417   1_565 D
C2     C3      1.405   .     S
C2     C10     1.414   1_565 D
C3     C4      1.394   .     D
C3     H41     1.140   .     S
C4     C5      1.394   .     S
C4     H42     1.140   .     S
C5     C6      1.397   .     D
C5     Cl37    1.751   .     S
C6     H43     1.140   .     S
C7     C8      1.395   .     S
C7     C21     1.478   .     S
C7     C1      1.417   1_545 D
C8     C9      1.393   .     D
C8     H44     1.140   .     S
C9     C10     1.406   .     S
C9     O39     1.369   .     S
C10    C11     1.493   .     S
C10    C2      1.414   1_545 D
C11    C16     1.414   .     D
C11    C12     1.404   1_545 S
C12    O40     1.366   .     S
C12    C11     1.404   1_565 S
C12    C13     1.395   1_556 D
C13    H45     1.140   .     S
C13    C12     1.395   1_554 D
C13    C14     1.401   1_565 S
C14    C24     1.478   .     S
C14    C13     1.401   1_545 S
C14    C15     1.411   1_554 D
C15    C16     1.422   .     S
C15    C14     1.411   1_556 D
C15    C20     1.406   1_556 S
C16    C17     1.404   .     S
C17    C18     1.392   .     D
C17    H46     1.140   .     S
C18    C19     1.392   .     S
C18    H47     1.140   .     S
C19    Cl38    1.746   .     S
C19    C20     1.399   1_556 D
C20    H48     1.140   .     S
C20    C15     1.406   1_554 S
C20    C19     1.399   1_554 D
C21    H49     1.140   .     S
C21    N22     1.297   1_545 D
N22    C23     1.433   .     S
N22    C21     1.297   1_565 D
C23    C27     1.404   1_564 S
C23    C31     1.396   1_554 D
C24    N25     1.297   .     D
C24    H50     1.140   .     S
N25    C26     1.432   .     S
C26    C32     1.405   .     S
C26    C36     1.394   1_545 D
C27    C28     1.398   .     D
C27    C23     1.404   1_546 S
C27    H51     1.140   1_556 S
C28    H52     1.140   .     S
C28    C29     1.409   1_545 S
C29    C30     1.409   .     D
C29    C28     1.409   1_565 S
C29    C484    1.513   1_565 S
C30    C31     1.397   .     S
C30    H53     1.140   .     S
C31    H54     1.140   .     S
C31    C23     1.396   1_556 D
C32    C33     1.404   .     D
C32    H55     1.140   .     S
C33    C34     1.410   .     S
C33    H56     1.140   .     S
C34    C35     1.407   1_545 D
C34    C481    1.491   1_655 S
C35    C36     1.393   .     S
C35    H57     1.140   .     S
C35    C34     1.407   1_565 D
C36    H58     1.140   .     S
C36    C26     1.394   1_565 D
O39    H59     1.110   .     S
O40    H60     1.110   1_556 S
H51    C27     1.140   1_554 S
H60    O40     1.110   1_554 S
C61    C66     1.404   .     D
C61    C67     1.417   .     S
C61    C62     1.423   1_556 S
C62    C63     1.405   .     D
C62    C70     1.414   .     S
C62    C61     1.423   1_554 S
C63    H101    1.140   .     S
C63    C64     1.394   1_554 S
C64    C65     1.394   .     D
C64    H102    1.140   .     S
C64    C63     1.394   1_556 S
C65    C66     1.397   .     S
C65    Cl97    1.751   .     S
C66    H103    1.140   .     S
C67    C81     1.478   .     S
C67    C68     1.395   1_556 D
C68    C69     1.393   .     S
C68    H104    1.140   .     S
C68    C67     1.395   1_554 D
C69    C70     1.406   .     D
C69    O99     1.369   .     S
C70    C71     1.493   .     S
C71    C72     1.404   .     S
C71    C76     1.414   .     D
C72    C73     1.395   .     D
C72    O100    1.366   .     S
C73    C74     1.401   .     S
C73    H105    1.140   .     S
C74    C75     1.411   .     D
C74    C84     1.478   .     S
C75    C76     1.422   .     S
C75    C80     1.406   .     S
C76    C77     1.404   .     S
C77    C78     1.392   .     D
C77    H106    1.140   .     S
C78    C79     1.392   .     S
C78    H107    1.140   .     S
C79    C80     1.399   .     D
C79    Cl98    1.746   .     S
C80    H108    1.140   .     S
C81    N82     1.297   .     D
C81    H109    1.140   .     S
N82    C83     1.433   .     S
C83    C87     1.404   .     S
C83    C91     1.396   .     D
C84    N85     1.297   .     D
C84    H110    1.140   .     S
N85    C86     1.432   .     S
C86    C92     1.405   1_556 D
C86    C96     1.394   1_556 S
C87    C88     1.398   .     D
C87    H111    1.140   .     S
C88    C89     1.409   .     S
C88    H112    1.140   .     S
C89    C90     1.409   .     D
C89    C483    1.513   .     S
C90    C91     1.397   .     S
C90    H113    1.140   .     S
C91    H114    1.140   .     S
C92    C93     1.404   .     S
C92    H115    1.140   .     S
C92    C86     1.405   1_554 D
C93    C94     1.410   .     D
C93    H116    1.140   .     S
C94    C95     1.407   .     S
C94    C482    1.491   .     S
C95    C96     1.393   .     D
C95    H117    1.140   .     S
C96    C86     1.394   1_554 S
C96    H118    1.140   1_554 S
O99    H119    1.110   .     S
O100   H120    1.110   .     S
H118   C96     1.140   1_556 S
C121   C126    1.404   .     D
C121   C127    1.417   .     S
C121   C122    1.423   1_556 S
C122   C123    1.405   .     D
C122   C130    1.414   .     S
C122   C121    1.423   1_554 S
C123   H161    1.140   .     S
C123   C124    1.394   1_554 S
C124   C125    1.394   .     D
C124   H162    1.140   .     S
C124   C123    1.394   1_556 S
C125   C126    1.397   .     S
C125   Cl157   1.751   .     S
C126   H163    1.140   .     S
C127   C141    1.478   .     S
C127   C128    1.395   1_556 D
C128   C129    1.393   .     S
C128   H164    1.140   .     S
C128   C127    1.395   1_554 D
C129   C130    1.406   .     D
C129   O159    1.369   .     S
C130   C131    1.493   .     S
C131   C132    1.404   .     S
C131   C136    1.414   .     D
C132   C133    1.395   .     D
C132   O160    1.366   .     S
C133   C134    1.401   .     S
C133   H165    1.140   .     S
C134   C135    1.411   .     D
C134   C144    1.478   .     S
C135   C136    1.422   .     S
C135   C140    1.406   .     S
C136   C137    1.404   .     S
C137   C138    1.392   .     D
C137   H166    1.140   .     S
C138   C139    1.392   .     S
C138   H167    1.140   .     S
C139   C140    1.399   .     D
C139   Cl158   1.746   .     S
C140   H168    1.140   .     S
C141   N142    1.297   .     D
C141   H169    1.140   .     S
N142   C143    1.433   .     S
C143   C147    1.404   .     S
C143   C151    1.396   .     D
C144   N145    1.297   .     D
C144   H170    1.140   .     S
N145   C146    1.432   .     S
C146   C152    1.405   1_556 D
C146   C156    1.394   1_556 S
C147   C148    1.398   .     D
C147   H171    1.140   .     S
C148   C149    1.409   .     S
C148   H172    1.140   .     S
C149   C150    1.409   .     D
C149   C483    1.513   1_655 S
C150   C151    1.397   .     S
C150   H173    1.140   .     S
C151   H174    1.140   .     S
C152   C153    1.404   .     S
C152   H175    1.140   .     S
C152   C146    1.405   1_554 D
C153   C154    1.410   .     D
C153   H176    1.140   .     S
C154   C155    1.407   .     S
C154   C482    1.491   .     S
C155   C156    1.393   .     D
C155   H177    1.140   .     S
C156   C146    1.394   1_554 S
C156   H178    1.140   1_554 S
O159   H179    1.110   .     S
O160   H180    1.110   .     S
H178   C156    1.140   1_556 S
C181   C182    1.423   .     S
C181   C186    1.404   .     S
C181   C187    1.417   1_545 D
C182   C183    1.405   .     S
C182   C190    1.414   1_545 D
C183   C184    1.394   .     D
C183   H221    1.140   .     S
C184   C185    1.394   .     S
C184   H222    1.140   .     S
C185   C186    1.397   .     D
C185   Cl217   1.751   .     S
C186   H223    1.140   .     S
C187   C188    1.395   .     S
C187   C201    1.478   .     S
C187   C181    1.417   1_565 D
C188   C189    1.393   .     D
C188   H224    1.140   .     S
C189   C190    1.406   .     S
C189   O219    1.369   .     S
C190   C191    1.493   .     S
C190   C182    1.414   1_565 D
C191   C196    1.414   .     D
C191   C192    1.404   1_565 S
C192   O220    1.366   .     S
C192   C191    1.404   1_545 S
C192   C193    1.395   1_556 D
C193   H225    1.140   .     S
C193   C192    1.395   1_554 D
C193   C194    1.401   1_545 S
C194   C204    1.478   .     S
C194   C193    1.401   1_565 S
C194   C195    1.411   1_554 D
C195   C196    1.422   .     S
C195   C194    1.411   1_556 D
C195   C200    1.406   1_556 S
C196   C197    1.404   .     S
C197   C198    1.392   .     D
C197   H226    1.140   .     S
C198   C199    1.392   .     S
C198   H227    1.140   .     S
C199   Cl218   1.746   .     S
C199   C200    1.399   1_556 D
C200   H228    1.140   .     S
C200   C195    1.406   1_554 S
C200   C199    1.399   1_554 D
C201   H229    1.140   .     S
C201   N202    1.297   1_565 D
N202   C203    1.433   .     S
N202   C201    1.297   1_545 D
C203   C207    1.404   1_544 S
C203   C211    1.396   1_554 D
C204   N205    1.297   .     D
C204   H230    1.140   .     S
N205   C206    1.432   .     S
C206   C212    1.405   .     S
C206   C216    1.394   1_565 D
C207   C208    1.398   .     D
C207   C203    1.404   1_566 S
C207   H231    1.140   1_556 S
C208   H232    1.140   .     S
C208   C209    1.409   1_565 S
C209   C210    1.409   .     D
C209   C484    1.513   .     S
C209   C208    1.409   1_545 S
C210   C211    1.397   .     S
C210   H233    1.140   .     S
C211   H234    1.140   .     S
C211   C203    1.396   1_556 D
C212   C213    1.404   .     D
C212   H235    1.140   .     S
C213   C214    1.410   .     S
C213   H236    1.140   .     S
C214   C215    1.407   1_565 D
C214   C481    1.491   1_565 S
C215   C216    1.393   .     S
C215   H237    1.140   .     S
C215   C214    1.407   1_545 D
C216   H238    1.140   .     S
C216   C206    1.394   1_545 D
O219   H239    1.110   .     S
O220   H240    1.110   1_556 S
H231   C207    1.140   1_554 S
H240   O220    1.110   1_554 S
C241   C242    1.423   .     S
C241   C246    1.404   .     S
C241   C247    1.417   1_455 D
C242   C243    1.405   .     S
C242   C250    1.414   1_455 D
C243   C244    1.394   .     D
C243   H281    1.140   .     S
C244   C245    1.394   .     S
C244   H282    1.140   .     S
C245   C246    1.397   .     D
C245   Cl277   1.751   .     S
C246   H283    1.140   .     S
C247   C248    1.395   .     S
C247   C261    1.478   .     S
C247   C241    1.417   1_655 D
C248   C249    1.393   .     D
C248   H284    1.140   .     S
C249   C250    1.406   .     S
C249   O279    1.369   1_556 S
C250   C242    1.414   1_655 D
C250   C251    1.493   1_556 S
C251   C256    1.414   .     D
C251   C250    1.493   1_554 S
C251   C252    1.404   1_655 S
C252   C253    1.395   .     D
C252   O280    1.366   .     S
C252   C251    1.404   1_455 S
C253   H285    1.140   .     S
C253   C254    1.401   1_455 S
C254   C255    1.411   .     D
C254   C264    1.478   .     S
C254   C253    1.401   1_655 S
C255   C256    1.422   .     S
C255   C260    1.406   .     S
C256   C257    1.404   1_554 S
C257   C258    1.392   .     D
C257   H286    1.140   .     S
C257   C256    1.404   1_556 S
C258   H287    1.140   .     S
C258   C259    1.392   1_556 S
C259   C260    1.399   .     D
C259   Cl278   1.746   .     S
C259   C258    1.392   1_554 S
C260   H288    1.140   .     S
C261   H289    1.140   .     S
C261   N262    1.297   1_655 D
N262   C263    1.433   .     S
N262   C261    1.297   1_455 D
C263   C271    1.396   .     S
C263   C267    1.404   1_455 D
C264   N265    1.297   .     D
C264   H290    1.140   .     S
N265   C266    1.432   .     S
C266   C272    1.405   .     D
C266   C276    1.394   1_655 S
C267   C268    1.398   .     S
C267   H291    1.140   .     S
C267   C263    1.404   1_655 D
C268   H292    1.140   .     S
C268   C269    1.409   1_654 D
C269   C270    1.409   .     S
C269   C481    1.513   .     S
C269   C268    1.409   1_456 D
C270   H293    1.140   .     S
C270   C271    1.397   1_556 D
C271   H294    1.140   .     S
C271   C270    1.397   1_554 D
C272   C273    1.404   .     S
C272   H295    1.140   .     S
C273   C274    1.410   .     D
C273   H296    1.140   1_556 S
C274   C275    1.407   1_655 S
C274   C483    1.491   1_656 S
C275   C276    1.393   .     D
C275   H297    1.140   .     S
C275   C274    1.407   1_455 S
C276   H298    1.140   .     S
C276   C266    1.394   1_455 S
O279   H299    1.110   .     S
O279   C249    1.369   1_554 S
O280   H300    1.110   .     S
H296   C273    1.140   1_554 S
C301   C302    1.423   .     S
C301   C306    1.404   .     S
C301   C307    1.417   .     D
C302   C303    1.405   .     S
C302   C310    1.414   .     D
C303   C304    1.394   .     D
C303   H341    1.140   .     S
C304   C305    1.394   .     S
C304   H342    1.140   .     S
C305   C306    1.397   .     D
C305   Cl337   1.751   1_554 S
C306   H343    1.140   1_554 S
C307   C308    1.395   .     S
C307   C321    1.478   .     S
C308   C309    1.393   .     D
C308   H344    1.140   .     S
C309   C310    1.406   .     S
C309   O339    1.369   .     S
C310   C311    1.493   .     S
C311   C312    1.404   .     D
C311   C316    1.414   .     S
C312   C313    1.395   .     S
C312   O340    1.366   .     S
C313   C314    1.401   .     D
C313   H345    1.140   .     S
C314   C315    1.411   .     S
C314   C324    1.478   1_556 S
C315   C316    1.422   .     D
C315   C320    1.406   .     S
C316   C317    1.404   .     S
C317   C318    1.392   .     D
C317   H346    1.140   .     S
C318   C319    1.392   .     S
C318   H347    1.140   .     S
C319   C320    1.399   .     D
C319   Cl338   1.746   .     S
C320   H348    1.140   .     S
C321   H349    1.140   .     S
C321   N322    1.297   1_554 D
N322   C323    1.433   .     S
N322   C321    1.297   1_556 D
C323   C327    1.404   .     S
C323   C331    1.396   .     D
C324   N325    1.297   .     D
C324   H350    1.140   .     S
C324   C314    1.478   1_554 S
N325   C326    1.432   .     S
C326   C332    1.405   .     S
C326   C336    1.394   .     D
C327   C328    1.398   .     D
C327   H351    1.140   .     S
C328   C329    1.409   .     S
C328   H352    1.140   .     S
C329   C330    1.409   .     D
C329   C482    1.513   .     S
C330   C331    1.397   .     S
C330   H353    1.140   .     S
C331   H354    1.140   .     S
C332   C333    1.404   .     D
C332   H355    1.140   .     S
C333   C334    1.410   .     S
C333   H356    1.140   .     S
C334   C335    1.407   .     D
C334   C484    1.491   1_565 S
C335   C336    1.393   .     S
C335   H357    1.140   .     S
C336   H358    1.140   .     S
Cl337  C305    1.751   1_556 S
O339   H359    1.110   .     S
O340   H360    1.110   .     S
H343   C306    1.140   1_556 S
C361   C362    1.423   .     S
C361   C366    1.404   .     S
C361   C367    1.417   .     D
C362   C363    1.405   .     S
C362   C370    1.414   .     D
C363   C364    1.394   .     D
C363   H401    1.140   .     S
C364   C365    1.394   .     S
C364   H402    1.140   .     S
C365   C366    1.397   .     D
C365   Cl397   1.751   1_554 S
C366   H403    1.140   1_554 S
C367   C368    1.395   .     S
C367   C381    1.478   .     S
C368   C369    1.393   .     D
C368   H404    1.140   .     S
C369   C370    1.406   .     S
C369   O399    1.369   .     S
C370   C371    1.493   .     S
C371   C372    1.404   .     D
C371   C376    1.414   .     S
C372   C373    1.395   .     S
C372   O400    1.366   .     S
C373   C374    1.401   .     D
C373   H405    1.140   .     S
C374   C375    1.411   .     S
C374   C384    1.478   1_556 S
C375   C376    1.422   .     D
C375   C380    1.406   .     S
C376   C377    1.404   .     S
C377   C378    1.392   .     D
C377   H406    1.140   .     S
C378   C379    1.392   .     S
C378   H407    1.140   .     S
C379   C380    1.399   .     D
C379   Cl398   1.746   .     S
C380   H408    1.140   .     S
C381   H409    1.140   .     S
C381   N382    1.297   1_554 D
N382   C383    1.433   .     S
N382   C381    1.297   1_556 D
C383   C387    1.404   .     S
C383   C391    1.396   .     D
C384   N385    1.297   .     D
C384   H410    1.140   .     S
C384   C374    1.478   1_554 S
N385   C386    1.432   .     S
C386   C392    1.405   .     S
C386   C396    1.394   .     D
C387   C388    1.398   .     D
C387   H411    1.140   .     S
C388   C389    1.409   .     S
C388   H412    1.140   .     S
C389   C390    1.409   .     D
C389   C482    1.513   .     S
C390   C391    1.397   .     S
C390   H413    1.140   .     S
C391   H414    1.140   .     S
C392   C393    1.404   .     D
C392   H415    1.140   .     S
C393   C394    1.410   .     S
C393   H416    1.140   .     S
C394   C395    1.407   .     D
C394   C484    1.491   .     S
C395   C396    1.393   .     S
C395   H417    1.140   .     S
C396   H418    1.140   .     S
Cl397  C365    1.751   1_556 S
O399   H419    1.110   .     S
O400   H420    1.110   .     S
H403   C366    1.140   1_556 S
C421   C422    1.423   .     S
C421   C426    1.404   .     S
C421   C427    1.417   1_655 D
C422   C423    1.405   .     S
C422   C430    1.414   1_655 D
C423   C424    1.394   .     D
C423   H461    1.140   .     S
C424   C425    1.394   .     S
C424   H462    1.140   .     S
C425   C426    1.397   .     D
C425   Cl457   1.751   .     S
C426   H463    1.140   .     S
C427   C428    1.395   .     S
C427   C441    1.478   .     S
C427   C421    1.417   1_455 D
C428   C429    1.393   .     D
C428   H464    1.140   .     S
C429   C430    1.406   .     S
C429   O459    1.369   1_556 S
C430   C422    1.414   1_455 D
C430   C431    1.493   1_556 S
C431   C436    1.414   .     D
C431   C430    1.493   1_554 S
C431   C432    1.404   1_455 S
C432   C433    1.395   .     D
C432   O460    1.366   .     S
C432   C431    1.404   1_655 S
C433   H465    1.140   .     S
C433   C434    1.401   1_655 S
C434   C435    1.411   .     D
C434   C444    1.478   .     S
C434   C433    1.401   1_455 S
C435   C436    1.422   .     S
C435   C440    1.406   .     S
C436   C437    1.404   1_554 S
C437   C438    1.392   .     D
C437   H466    1.140   .     S
C437   C436    1.404   1_556 S
C438   H467    1.140   .     S
C438   C439    1.392   1_556 S
C439   C440    1.399   .     D
C439   Cl458   1.746   .     S
C439   C438    1.392   1_554 S
C440   H468    1.140   .     S
C441   H469    1.140   .     S
C441   N442    1.297   1_455 D
N442   C443    1.433   .     S
N442   C441    1.297   1_655 D
C443   C451    1.396   .     S
C443   C447    1.404   1_655 D
C444   N445    1.297   .     D
C444   H470    1.140   .     S
N445   C446    1.432   .     S
C446   C452    1.405   .     D
C446   C456    1.394   1_455 S
C447   C448    1.398   .     S
C447   H471    1.140   .     S
C447   C443    1.404   1_455 D
C448   H472    1.140   .     S
C448   C449    1.409   1_454 D
C449   C450    1.409   .     S
C449   C448    1.409   1_656 D
C449   C481    1.513   1_665 S
C450   H473    1.140   .     S
C450   C451    1.397   1_556 D
C451   H474    1.140   .     S
C451   C450    1.397   1_554 D
C452   C453    1.404   .     S
C452   H475    1.140   .     S
C453   C454    1.410   .     D
C453   H476    1.140   1_556 S
C454   C455    1.407   1_455 S
C454   C483    1.491   1_556 S
C455   C456    1.393   .     D
C455   H477    1.140   .     S
C455   C454    1.407   1_655 S
C456   H478    1.140   .     S
C456   C446    1.394   1_655 S
O459   H479    1.110   .     S
O459   C429    1.369   1_554 S
O460   H480    1.110   .     S
H476   C453    1.140   1_554 S
C481   C34     1.491   1_455 S
C481   C214    1.491   1_545 S
C481   C449    1.513   1_445 S
C483   C149    1.513   1_455 S
C483   C274    1.491   1_454 S
C483   C454    1.491   1_554 S
C484   C29     1.513   1_545 S
C484   C334    1.491   1_545 S
