data_739
_audit_creation_date              2023-09-08
_audit_creation_method            'Materials Studio'
_symmetry_space_group_name_H-M    'P1'
_symmetry_Int_Tables_number       1
_symmetry_cell_setting            triclinic
loop_
_symmetry_equiv_pos_as_xyz
  x,y,z
_cell_length_a                    37.5800
_cell_length_b                    37.5800
_cell_length_c                    7.1500
_cell_angle_alpha                 90.0000
_cell_angle_beta                  90.0000
_cell_angle_gamma                 90.0000
loop_
_atom_site_label
_atom_site_type_symbol
_atom_site_fract_x
_atom_site_fract_y
_atom_site_fract_z
_atom_site_U_iso_or_equiv
_atom_site_adp_type
_atom_site_occupancy
C1     C     0.14954   0.95814   0.97081   0.00000  Uiso   1.00
C2     C     0.17750   0.96120   0.10279   0.00000  Uiso   1.00
C3     C     0.17604   0.94129   0.26946   0.00000  Uiso   1.00
C4     C     0.14772   0.91843   0.30437   0.00000  Uiso   1.00
C5     C     0.12040   0.91528   0.17354   0.00000  Uiso   1.00
C6     C     0.12122   0.93508   0.00832   0.00000  Uiso   1.00
C7     C     0.15016   0.97860   0.80573   0.00000  Uiso   1.00
C8     C     0.17861   0.00146   0.77191   0.00000  Uiso   1.00
C9     C     0.20631   0.00443   0.89990   0.00000  Uiso   1.00
C10    C     0.20600   0.98452   0.06665   0.00000  Uiso   1.00
C11    C     0.23475   0.98960   0.20586   0.00000  Uiso   1.00
C12    C     0.23644   0.02159   0.30658   0.00000  Uiso   1.00
C13    C     0.26201   0.02637   0.44488   0.00000  Uiso   1.00
C14    C     0.28640   0.99972   0.48660   0.00000  Uiso   1.00
C15    C     0.28582   0.96779   0.38354   0.00000  Uiso   1.00
C16    C     0.25996   0.96276   0.24160   0.00000  Uiso   1.00
C17    C     0.25998   0.93107   0.13795   0.00000  Uiso   1.00
C18    C     0.28497   0.90466   0.17424   0.00000  Uiso   1.00
C19    C     0.31033   0.90961   0.31437   0.00000  Uiso   1.00
C20    C     0.31080   0.94098   0.41772   0.00000  Uiso   1.00
C21    C     0.12065   0.97713   0.67175   0.00000  Uiso   1.00
N22    N     0.11908   0.99824   0.52878   0.00000  Uiso   1.00
C23    C     0.09025   0.99761   0.39901   0.00000  Uiso   1.00
C24    C     0.31092   0.00547   0.64394   0.00000  Uiso   1.00
C25    C     0.08842   0.02362   0.26023   0.00000  Uiso   1.00
C26    C     0.05983   0.02439   0.13624   0.00000  Uiso   1.00
C27    C     0.03267   0.99895   0.14739   0.00000  Uiso   1.00
C28    C     0.03497   0.97273   0.28715   0.00000  Uiso   1.00
C29    C     0.06337   0.97209   0.41189   0.00000  Uiso   1.00
Cl30   Cl    0.08484   0.88680   0.21692   0.00000  Uiso   1.00
Cl31   Cl    0.34141   0.87640   0.36238   0.00000  Uiso   1.00
O32    O     0.23347   0.02737   0.86227   0.00000  Uiso   1.00
O33    O     0.21234   0.04802   0.27488   0.00000  Uiso   1.00
C34    C     0.31148   0.98151   0.79396   0.00000  Uiso   1.00
C35    C     0.33455   0.98680   0.94387   0.00000  Uiso   1.00
C36    C     0.35727   0.01611   0.94516   0.00000  Uiso   1.00
C37    C     0.35644   0.04035   0.79685   0.00000  Uiso   1.00
C38    C     0.33314   0.03519   0.64694   0.00000  Uiso   1.00
C39    C     0.38330   0.02068   0.09471   0.00000  Uiso   1.00
N40    N     0.38538   0.99830   0.23216   0.00000  Uiso   1.00
C41    C     0.41187   0.00072   0.37466   0.00000  Uiso   1.00
C42    C     0.41389   0.97415   0.51060   0.00000  Uiso   1.00
C43    C     0.44145   0.97421   0.64128   0.00000  Uiso   1.00
C44    C     0.46744   0.00095   0.63900   0.00000  Uiso   1.00
C45    C     0.46479   0.02779   0.50260   0.00000  Uiso   1.00
C46    C     0.43736   0.02773   0.37206   0.00000  Uiso   1.00
H47    H     0.19822   0.94382   0.37741   0.00000  Uiso   1.00
H48    H     0.14691   0.90236   0.43954   0.00000  Uiso   1.00
H49    H     0.09867   0.93252   0.90254   0.00000  Uiso   1.00
H50    H     0.17934   0.01798   0.63823   0.00000  Uiso   1.00
H51    H     0.26319   0.05246   0.52601   0.00000  Uiso   1.00
H52    H     0.23930   0.92704   0.02322   0.00000  Uiso   1.00
H53    H     0.28475   0.87897   0.08947   0.00000  Uiso   1.00
H54    H     0.33168   0.94500   0.53144   0.00000  Uiso   1.00
H55    H     0.09872   0.95669   0.69608   0.00000  Uiso   1.00
H56    H     0.11049   0.04432   0.24857   0.00000  Uiso   1.00
H57    H     0.05836   0.04590   0.02406   0.00000  Uiso   1.00
H58    H     0.01336   0.95156   0.29949   0.00000  Uiso   1.00
H59    H     0.06470   0.95070   0.52478   0.00000  Uiso   1.00
H60    H     0.23025   0.05182   0.94778   0.00000  Uiso   1.00
H61    H     0.22010   0.07209   0.35508   0.00000  Uiso   1.00
H62    H     0.29288   0.95754   0.79282   0.00000  Uiso   1.00
H63    H     0.33485   0.96717   0.06540   0.00000  Uiso   1.00
H64    H     0.37484   0.06447   0.79780   0.00000  Uiso   1.00
H65    H     0.33231   0.05526   0.52746   0.00000  Uiso   1.00
H66    H     0.40203   0.04452   0.08896   0.00000  Uiso   1.00
H67    H     0.39285   0.95231   0.51442   0.00000  Uiso   1.00
H68    H     0.44300   0.95234   0.75150   0.00000  Uiso   1.00
H69    H     0.48535   0.05008   0.49779   0.00000  Uiso   1.00
H70    H     0.43568   0.04975   0.26277   0.00000  Uiso   1.00
C71    C     0.64954   0.45814   0.47081   0.00000  Uiso   1.00
C72    C     0.67750   0.46120   0.60279   0.00000  Uiso   1.00
C73    C     0.67604   0.44129   0.76946   0.00000  Uiso   1.00
C74    C     0.64772   0.41843   0.80437   0.00000  Uiso   1.00
C75    C     0.62040   0.41528   0.67354   0.00000  Uiso   1.00
C76    C     0.62122   0.43508   0.50832   0.00000  Uiso   1.00
C77    C     0.65016   0.47860   0.30573   0.00000  Uiso   1.00
C78    C     0.67861   0.50146   0.27191   0.00000  Uiso   1.00
C79    C     0.70631   0.50443   0.39990   0.00000  Uiso   1.00
C80    C     0.70600   0.48452   0.56665   0.00000  Uiso   1.00
C81    C     0.73475   0.48960   0.70586   0.00000  Uiso   1.00
C82    C     0.73644   0.52159   0.80658   0.00000  Uiso   1.00
C83    C     0.76201   0.52637   0.94488   0.00000  Uiso   1.00
C84    C     0.78640   0.49972   0.98660   0.00000  Uiso   1.00
C85    C     0.78582   0.46779   0.88354   0.00000  Uiso   1.00
C86    C     0.75996   0.46276   0.74160   0.00000  Uiso   1.00
C87    C     0.75998   0.43107   0.63795   0.00000  Uiso   1.00
C88    C     0.78497   0.40466   0.67424   0.00000  Uiso   1.00
C89    C     0.81033   0.40961   0.81437   0.00000  Uiso   1.00
C90    C     0.81080   0.44098   0.91772   0.00000  Uiso   1.00
C91    C     0.62065   0.47713   0.17175   0.00000  Uiso   1.00
N92    N     0.61908   0.49824   0.02878   0.00000  Uiso   1.00
C93    C     0.59025   0.49761   0.89901   0.00000  Uiso   1.00
C94    C     0.81092   0.50547   0.14394   0.00000  Uiso   1.00
C95    C     0.58842   0.52362   0.76023   0.00000  Uiso   1.00
C96    C     0.55983   0.52439   0.63624   0.00000  Uiso   1.00
C97    C     0.53267   0.49895   0.64739   0.00000  Uiso   1.00
C98    C     0.53497   0.47273   0.78715   0.00000  Uiso   1.00
C99    C     0.56337   0.47209   0.91189   0.00000  Uiso   1.00
Cl100  Cl    0.58484   0.38680   0.71692   0.00000  Uiso   1.00
Cl101  Cl    0.84141   0.37640   0.86238   0.00000  Uiso   1.00
O102   O     0.73347   0.52737   0.36227   0.00000  Uiso   1.00
O103   O     0.71234   0.54802   0.77488   0.00000  Uiso   1.00
C104   C     0.81148   0.48151   0.29396   0.00000  Uiso   1.00
C105   C     0.83455   0.48680   0.44387   0.00000  Uiso   1.00
C106   C     0.85727   0.51611   0.44516   0.00000  Uiso   1.00
C107   C     0.85644   0.54035   0.29685   0.00000  Uiso   1.00
C108   C     0.83314   0.53519   0.14694   0.00000  Uiso   1.00
C109   C     0.88330   0.52068   0.59471   0.00000  Uiso   1.00
N110   N     0.88538   0.49830   0.73216   0.00000  Uiso   1.00
C111   C     0.91187   0.50072   0.87466   0.00000  Uiso   1.00
C112   C     0.91389   0.47415   0.01060   0.00000  Uiso   1.00
C113   C     0.94145   0.47421   0.14128   0.00000  Uiso   1.00
C114   C     0.96744   0.50095   0.13900   0.00000  Uiso   1.00
C115   C     0.96479   0.52779   0.00260   0.00000  Uiso   1.00
C116   C     0.93736   0.52773   0.87206   0.00000  Uiso   1.00
H117   H     0.69822   0.44382   0.87741   0.00000  Uiso   1.00
H118   H     0.64691   0.40236   0.93954   0.00000  Uiso   1.00
H119   H     0.59867   0.43252   0.40254   0.00000  Uiso   1.00
H120   H     0.67934   0.51798   0.13823   0.00000  Uiso   1.00
H121   H     0.76319   0.55246   0.02601   0.00000  Uiso   1.00
H122   H     0.73930   0.42704   0.52322   0.00000  Uiso   1.00
H123   H     0.78475   0.37897   0.58947   0.00000  Uiso   1.00
H124   H     0.83168   0.44500   0.03144   0.00000  Uiso   1.00
H125   H     0.59872   0.45669   0.19608   0.00000  Uiso   1.00
H126   H     0.61049   0.54432   0.74857   0.00000  Uiso   1.00
H127   H     0.55836   0.54590   0.52406   0.00000  Uiso   1.00
H128   H     0.51336   0.45156   0.79949   0.00000  Uiso   1.00
H129   H     0.56470   0.45070   0.02478   0.00000  Uiso   1.00
H130   H     0.73025   0.55182   0.44778   0.00000  Uiso   1.00
H131   H     0.72010   0.57209   0.85508   0.00000  Uiso   1.00
H132   H     0.79288   0.45754   0.29282   0.00000  Uiso   1.00
H133   H     0.83485   0.46717   0.56540   0.00000  Uiso   1.00
H134   H     0.87484   0.56447   0.29780   0.00000  Uiso   1.00
H135   H     0.83231   0.55526   0.02746   0.00000  Uiso   1.00
H136   H     0.90203   0.54452   0.58896   0.00000  Uiso   1.00
H137   H     0.89285   0.45231   0.01442   0.00000  Uiso   1.00
H138   H     0.94300   0.45234   0.25150   0.00000  Uiso   1.00
H139   H     0.98535   0.55008   0.99779   0.00000  Uiso   1.00
H140   H     0.93568   0.54975   0.76277   0.00000  Uiso   1.00
C141   C     0.35046   0.54186   0.47081   0.00000  Uiso   1.00
C142   C     0.32250   0.53880   0.60279   0.00000  Uiso   1.00
C143   C     0.32396   0.55871   0.76946   0.00000  Uiso   1.00
C144   C     0.35228   0.58157   0.80437   0.00000  Uiso   1.00
C145   C     0.37960   0.58472   0.67354   0.00000  Uiso   1.00
C146   C     0.37878   0.56492   0.50832   0.00000  Uiso   1.00
C147   C     0.34984   0.52140   0.30573   0.00000  Uiso   1.00
C148   C     0.32139   0.49854   0.27191   0.00000  Uiso   1.00
C149   C     0.29369   0.49557   0.39990   0.00000  Uiso   1.00
C150   C     0.29400   0.51548   0.56665   0.00000  Uiso   1.00
C151   C     0.26525   0.51040   0.70586   0.00000  Uiso   1.00
C152   C     0.26356   0.47841   0.80658   0.00000  Uiso   1.00
C153   C     0.23799   0.47363   0.94488   0.00000  Uiso   1.00
C154   C     0.21360   0.50028   0.98660   0.00000  Uiso   1.00
C155   C     0.21418   0.53221   0.88354   0.00000  Uiso   1.00
C156   C     0.24004   0.53724   0.74160   0.00000  Uiso   1.00
C157   C     0.24002   0.56893   0.63795   0.00000  Uiso   1.00
C158   C     0.21503   0.59534   0.67424   0.00000  Uiso   1.00
C159   C     0.18967   0.59039   0.81437   0.00000  Uiso   1.00
C160   C     0.18920   0.55902   0.91772   0.00000  Uiso   1.00
C161   C     0.37935   0.52287   0.17175   0.00000  Uiso   1.00
N162   N     0.38092   0.50176   0.02878   0.00000  Uiso   1.00
C163   C     0.40975   0.50239   0.89901   0.00000  Uiso   1.00
C164   C     0.18908   0.49453   0.14394   0.00000  Uiso   1.00
C165   C     0.41158   0.47638   0.76023   0.00000  Uiso   1.00
C166   C     0.44017   0.47561   0.63624   0.00000  Uiso   1.00
C167   C     0.46733   0.50105   0.64739   0.00000  Uiso   1.00
C168   C     0.46503   0.52727   0.78715   0.00000  Uiso   1.00
C169   C     0.43663   0.52791   0.91189   0.00000  Uiso   1.00
Cl170  Cl    0.41516   0.61320   0.71692   0.00000  Uiso   1.00
Cl171  Cl    0.15859   0.62360   0.86238   0.00000  Uiso   1.00
O172   O     0.26653   0.47263   0.36227   0.00000  Uiso   1.00
O173   O     0.28766   0.45198   0.77488   0.00000  Uiso   1.00
C174   C     0.18852   0.51849   0.29396   0.00000  Uiso   1.00
C175   C     0.16545   0.51320   0.44387   0.00000  Uiso   1.00
C176   C     0.14273   0.48389   0.44516   0.00000  Uiso   1.00
C177   C     0.14356   0.45965   0.29685   0.00000  Uiso   1.00
C178   C     0.16686   0.46481   0.14694   0.00000  Uiso   1.00
C179   C     0.11670   0.47932   0.59471   0.00000  Uiso   1.00
N180   N     0.11462   0.50170   0.73216   0.00000  Uiso   1.00
C181   C     0.08813   0.49928   0.87466   0.00000  Uiso   1.00
C182   C     0.08611   0.52585   0.01060   0.00000  Uiso   1.00
C183   C     0.05855   0.52579   0.14128   0.00000  Uiso   1.00
C184   C     0.03256   0.49905   0.13900   0.00000  Uiso   1.00
C185   C     0.03521   0.47221   0.00260   0.00000  Uiso   1.00
C186   C     0.06264   0.47227   0.87206   0.00000  Uiso   1.00
H187   H     0.30178   0.55618   0.87741   0.00000  Uiso   1.00
H188   H     0.35309   0.59764   0.93954   0.00000  Uiso   1.00
H189   H     0.40133   0.56748   0.40254   0.00000  Uiso   1.00
H190   H     0.32066   0.48202   0.13823   0.00000  Uiso   1.00
H191   H     0.23681   0.44754   0.02601   0.00000  Uiso   1.00
H192   H     0.26070   0.57296   0.52322   0.00000  Uiso   1.00
H193   H     0.21525   0.62103   0.58947   0.00000  Uiso   1.00
H194   H     0.16832   0.55500   0.03144   0.00000  Uiso   1.00
H195   H     0.40128   0.54331   0.19608   0.00000  Uiso   1.00
H196   H     0.38951   0.45568   0.74857   0.00000  Uiso   1.00
H197   H     0.44164   0.45410   0.52406   0.00000  Uiso   1.00
H198   H     0.48664   0.54844   0.79949   0.00000  Uiso   1.00
H199   H     0.43530   0.54930   0.02478   0.00000  Uiso   1.00
H200   H     0.26975   0.44818   0.44778   0.00000  Uiso   1.00
H201   H     0.27990   0.42791   0.85508   0.00000  Uiso   1.00
H202   H     0.20712   0.54246   0.29282   0.00000  Uiso   1.00
H203   H     0.16515   0.53283   0.56540   0.00000  Uiso   1.00
H204   H     0.12516   0.43553   0.29780   0.00000  Uiso   1.00
H205   H     0.16769   0.44474   0.02746   0.00000  Uiso   1.00
H206   H     0.09797   0.45548   0.58896   0.00000  Uiso   1.00
H207   H     0.10715   0.54769   0.01442   0.00000  Uiso   1.00
H208   H     0.05700   0.54766   0.25150   0.00000  Uiso   1.00
H209   H     0.01465   0.44992   0.99779   0.00000  Uiso   1.00
H210   H     0.06432   0.45025   0.76277   0.00000  Uiso   1.00
C211   C     0.85046   0.04186   0.97081   0.00000  Uiso   1.00
C212   C     0.82250   0.03880   0.10279   0.00000  Uiso   1.00
C213   C     0.82396   0.05871   0.26946   0.00000  Uiso   1.00
C214   C     0.85228   0.08157   0.30437   0.00000  Uiso   1.00
C215   C     0.87960   0.08472   0.17354   0.00000  Uiso   1.00
C216   C     0.87878   0.06492   0.00832   0.00000  Uiso   1.00
C217   C     0.84984   0.02140   0.80573   0.00000  Uiso   1.00
C218   C     0.82139   0.99854   0.77191   0.00000  Uiso   1.00
C219   C     0.79369   0.99557   0.89990   0.00000  Uiso   1.00
C220   C     0.79400   0.01548   0.06665   0.00000  Uiso   1.00
C221   C     0.76525   0.01040   0.20586   0.00000  Uiso   1.00
C222   C     0.76356   0.97841   0.30658   0.00000  Uiso   1.00
C223   C     0.73799   0.97363   0.44488   0.00000  Uiso   1.00
C224   C     0.71360   0.00028   0.48660   0.00000  Uiso   1.00
C225   C     0.71418   0.03221   0.38354   0.00000  Uiso   1.00
C226   C     0.74004   0.03724   0.24160   0.00000  Uiso   1.00
C227   C     0.74002   0.06893   0.13795   0.00000  Uiso   1.00
C228   C     0.71503   0.09534   0.17424   0.00000  Uiso   1.00
C229   C     0.68967   0.09039   0.31437   0.00000  Uiso   1.00
C230   C     0.68920   0.05902   0.41772   0.00000  Uiso   1.00
C231   C     0.87935   0.02287   0.67175   0.00000  Uiso   1.00
N232   N     0.88092   0.00176   0.52878   0.00000  Uiso   1.00
C233   C     0.90975   0.00239   0.39901   0.00000  Uiso   1.00
C234   C     0.68908   0.99453   0.64394   0.00000  Uiso   1.00
C235   C     0.91158   0.97638   0.26023   0.00000  Uiso   1.00
C236   C     0.94017   0.97561   0.13624   0.00000  Uiso   1.00
C237   C     0.96733   0.00105   0.14739   0.00000  Uiso   1.00
C238   C     0.96503   0.02727   0.28715   0.00000  Uiso   1.00
C239   C     0.93663   0.02791   0.41189   0.00000  Uiso   1.00
Cl240  Cl    0.91516   0.11320   0.21692   0.00000  Uiso   1.00
Cl241  Cl    0.65859   0.12360   0.36238   0.00000  Uiso   1.00
O242   O     0.76653   0.97263   0.86227   0.00000  Uiso   1.00
O243   O     0.78766   0.95198   0.27488   0.00000  Uiso   1.00
C244   C     0.68852   0.01849   0.79396   0.00000  Uiso   1.00
C245   C     0.66545   0.01320   0.94387   0.00000  Uiso   1.00
C246   C     0.64273   0.98389   0.94516   0.00000  Uiso   1.00
C247   C     0.64356   0.95965   0.79685   0.00000  Uiso   1.00
C248   C     0.66686   0.96481   0.64694   0.00000  Uiso   1.00
C249   C     0.61670   0.97932   0.09471   0.00000  Uiso   1.00
N250   N     0.61462   0.00170   0.23216   0.00000  Uiso   1.00
C251   C     0.58813   0.99928   0.37466   0.00000  Uiso   1.00
C252   C     0.58611   0.02585   0.51060   0.00000  Uiso   1.00
C253   C     0.55855   0.02579   0.64128   0.00000  Uiso   1.00
C254   C     0.53256   0.99905   0.63900   0.00000  Uiso   1.00
C255   C     0.53521   0.97221   0.50260   0.00000  Uiso   1.00
C256   C     0.56264   0.97227   0.37206   0.00000  Uiso   1.00
H257   H     0.80178   0.05618   0.37741   0.00000  Uiso   1.00
H258   H     0.85309   0.09764   0.43954   0.00000  Uiso   1.00
H259   H     0.90133   0.06748   0.90254   0.00000  Uiso   1.00
H260   H     0.82066   0.98202   0.63823   0.00000  Uiso   1.00
H261   H     0.73681   0.94754   0.52601   0.00000  Uiso   1.00
H262   H     0.76070   0.07296   0.02322   0.00000  Uiso   1.00
H263   H     0.71525   0.12103   0.08947   0.00000  Uiso   1.00
H264   H     0.66832   0.05500   0.53144   0.00000  Uiso   1.00
H265   H     0.90128   0.04331   0.69608   0.00000  Uiso   1.00
H266   H     0.88951   0.95568   0.24857   0.00000  Uiso   1.00
H267   H     0.94164   0.95410   0.02406   0.00000  Uiso   1.00
H268   H     0.98664   0.04844   0.29949   0.00000  Uiso   1.00
H269   H     0.93530   0.04930   0.52478   0.00000  Uiso   1.00
H270   H     0.76975   0.94818   0.94778   0.00000  Uiso   1.00
H271   H     0.77990   0.92791   0.35508   0.00000  Uiso   1.00
H272   H     0.70712   0.04246   0.79282   0.00000  Uiso   1.00
H273   H     0.66515   0.03283   0.06540   0.00000  Uiso   1.00
H274   H     0.62516   0.93553   0.79780   0.00000  Uiso   1.00
H275   H     0.66769   0.94474   0.52746   0.00000  Uiso   1.00
H276   H     0.59797   0.95548   0.08896   0.00000  Uiso   1.00
H277   H     0.60715   0.04769   0.51442   0.00000  Uiso   1.00
H278   H     0.55700   0.04766   0.75150   0.00000  Uiso   1.00
H279   H     0.51465   0.94992   0.49779   0.00000  Uiso   1.00
H280   H     0.56432   0.95025   0.26277   0.00000  Uiso   1.00
C281   C     0.04186   0.64954   0.22081   0.00000  Uiso   1.00
C282   C     0.03880   0.67750   0.35279   0.00000  Uiso   1.00
C283   C     0.05871   0.67604   0.51946   0.00000  Uiso   1.00
C284   C     0.08157   0.64772   0.55437   0.00000  Uiso   1.00
C285   C     0.08472   0.62040   0.42354   0.00000  Uiso   1.00
C286   C     0.06492   0.62122   0.25832   0.00000  Uiso   1.00
C287   C     0.02140   0.65016   0.05573   0.00000  Uiso   1.00
C288   C     0.99854   0.67861   0.02191   0.00000  Uiso   1.00
C289   C     0.99557   0.70631   0.14990   0.00000  Uiso   1.00
C290   C     0.01548   0.70600   0.31665   0.00000  Uiso   1.00
C291   C     0.01040   0.73475   0.45586   0.00000  Uiso   1.00
C292   C     0.97841   0.73644   0.55658   0.00000  Uiso   1.00
C293   C     0.97363   0.76201   0.69488   0.00000  Uiso   1.00
C294   C     0.00028   0.78640   0.73660   0.00000  Uiso   1.00
C295   C     0.03221   0.78582   0.63354   0.00000  Uiso   1.00
C296   C     0.03724   0.75996   0.49160   0.00000  Uiso   1.00
C297   C     0.06893   0.75998   0.38795   0.00000  Uiso   1.00
C298   C     0.09534   0.78497   0.42424   0.00000  Uiso   1.00
C299   C     0.09039   0.81033   0.56437   0.00000  Uiso   1.00
C300   C     0.05902   0.81080   0.66772   0.00000  Uiso   1.00
C301   C     0.02287   0.62065   0.92175   0.00000  Uiso   1.00
N302   N     0.00176   0.61908   0.77878   0.00000  Uiso   1.00
C303   C     0.00239   0.59025   0.64901   0.00000  Uiso   1.00
C304   C     0.99453   0.81092   0.89394   0.00000  Uiso   1.00
C305   C     0.97638   0.58842   0.51023   0.00000  Uiso   1.00
C306   C     0.97561   0.55983   0.38624   0.00000  Uiso   1.00
C307   C     0.00105   0.53267   0.39739   0.00000  Uiso   1.00
C308   C     0.02727   0.53497   0.53715   0.00000  Uiso   1.00
C309   C     0.02791   0.56337   0.66189   0.00000  Uiso   1.00
Cl310  Cl    0.11320   0.58484   0.46692   0.00000  Uiso   1.00
Cl311  Cl    0.12360   0.84141   0.61238   0.00000  Uiso   1.00
O312   O     0.97263   0.73347   0.11227   0.00000  Uiso   1.00
O313   O     0.95198   0.71234   0.52488   0.00000  Uiso   1.00
C314   C     0.01849   0.81148   0.04396   0.00000  Uiso   1.00
C315   C     0.01320   0.83455   0.19387   0.00000  Uiso   1.00
C316   C     0.98389   0.85727   0.19516   0.00000  Uiso   1.00
C317   C     0.95965   0.85644   0.04685   0.00000  Uiso   1.00
C318   C     0.96481   0.83314   0.89694   0.00000  Uiso   1.00
C319   C     0.97932   0.88330   0.34471   0.00000  Uiso   1.00
N320   N     0.00170   0.88538   0.48216   0.00000  Uiso   1.00
C321   C     0.99928   0.91187   0.62466   0.00000  Uiso   1.00
C322   C     0.02585   0.91389   0.76060   0.00000  Uiso   1.00
C323   C     0.02579   0.94145   0.89128   0.00000  Uiso   1.00
C324   C     0.99905   0.96744   0.88900   0.00000  Uiso   1.00
C325   C     0.97221   0.96479   0.75260   0.00000  Uiso   1.00
C326   C     0.97227   0.93736   0.62206   0.00000  Uiso   1.00
H327   H     0.05618   0.69822   0.62741   0.00000  Uiso   1.00
H328   H     0.09764   0.64691   0.68954   0.00000  Uiso   1.00
H329   H     0.06748   0.59867   0.15254   0.00000  Uiso   1.00
H330   H     0.98202   0.67934   0.88823   0.00000  Uiso   1.00
H331   H     0.94754   0.76319   0.77601   0.00000  Uiso   1.00
H332   H     0.07296   0.73930   0.27322   0.00000  Uiso   1.00
H333   H     0.12103   0.78475   0.33947   0.00000  Uiso   1.00
H334   H     0.05500   0.83168   0.78144   0.00000  Uiso   1.00
H335   H     0.04331   0.59872   0.94608   0.00000  Uiso   1.00
H336   H     0.95568   0.61049   0.49857   0.00000  Uiso   1.00
H337   H     0.95410   0.55836   0.27406   0.00000  Uiso   1.00
H338   H     0.04844   0.51336   0.54949   0.00000  Uiso   1.00
H339   H     0.04930   0.56470   0.77478   0.00000  Uiso   1.00
H340   H     0.94818   0.73025   0.19778   0.00000  Uiso   1.00
H341   H     0.92791   0.72010   0.60508   0.00000  Uiso   1.00
H342   H     0.04246   0.79288   0.04282   0.00000  Uiso   1.00
H343   H     0.03283   0.83485   0.31540   0.00000  Uiso   1.00
H344   H     0.93553   0.87484   0.04780   0.00000  Uiso   1.00
H345   H     0.94474   0.83231   0.77746   0.00000  Uiso   1.00
H346   H     0.95548   0.90203   0.33896   0.00000  Uiso   1.00
H347   H     0.04769   0.89285   0.76442   0.00000  Uiso   1.00
H348   H     0.04766   0.94300   0.00150   0.00000  Uiso   1.00
H349   H     0.94992   0.98535   0.74779   0.00000  Uiso   1.00
H350   H     0.95025   0.93568   0.51277   0.00000  Uiso   1.00
C351   C     0.54186   0.14954   0.72081   0.00000  Uiso   1.00
C352   C     0.53880   0.17750   0.85279   0.00000  Uiso   1.00
C353   C     0.55871   0.17604   0.01946   0.00000  Uiso   1.00
C354   C     0.58157   0.14772   0.05437   0.00000  Uiso   1.00
C355   C     0.58472   0.12040   0.92354   0.00000  Uiso   1.00
C356   C     0.56492   0.12122   0.75832   0.00000  Uiso   1.00
C357   C     0.52140   0.15016   0.55573   0.00000  Uiso   1.00
C358   C     0.49854   0.17861   0.52191   0.00000  Uiso   1.00
C359   C     0.49557   0.20631   0.64990   0.00000  Uiso   1.00
C360   C     0.51548   0.20600   0.81665   0.00000  Uiso   1.00
C361   C     0.51040   0.23475   0.95586   0.00000  Uiso   1.00
C362   C     0.47841   0.23644   0.05658   0.00000  Uiso   1.00
C363   C     0.47363   0.26201   0.19488   0.00000  Uiso   1.00
C364   C     0.50028   0.28640   0.23660   0.00000  Uiso   1.00
C365   C     0.53221   0.28582   0.13354   0.00000  Uiso   1.00
C366   C     0.53724   0.25996   0.99160   0.00000  Uiso   1.00
C367   C     0.56893   0.25998   0.88795   0.00000  Uiso   1.00
C368   C     0.59534   0.28497   0.92424   0.00000  Uiso   1.00
C369   C     0.59039   0.31033   0.06437   0.00000  Uiso   1.00
C370   C     0.55902   0.31080   0.16772   0.00000  Uiso   1.00
C371   C     0.52287   0.12065   0.42175   0.00000  Uiso   1.00
N372   N     0.50176   0.11908   0.27878   0.00000  Uiso   1.00
C373   C     0.50239   0.09025   0.14901   0.00000  Uiso   1.00
C374   C     0.49453   0.31092   0.39394   0.00000  Uiso   1.00
C375   C     0.47638   0.08842   0.01023   0.00000  Uiso   1.00
C376   C     0.47561   0.05983   0.88624   0.00000  Uiso   1.00
C377   C     0.50105   0.03267   0.89739   0.00000  Uiso   1.00
C378   C     0.52727   0.03497   0.03715   0.00000  Uiso   1.00
C379   C     0.52791   0.06337   0.16189   0.00000  Uiso   1.00
Cl380  Cl    0.61320   0.08484   0.96692   0.00000  Uiso   1.00
Cl381  Cl    0.62360   0.34141   0.11238   0.00000  Uiso   1.00
O382   O     0.47263   0.23347   0.61227   0.00000  Uiso   1.00
O383   O     0.45198   0.21234   0.02488   0.00000  Uiso   1.00
C384   C     0.51849   0.31148   0.54396   0.00000  Uiso   1.00
C385   C     0.51320   0.33455   0.69387   0.00000  Uiso   1.00
C386   C     0.48389   0.35727   0.69516   0.00000  Uiso   1.00
C387   C     0.45965   0.35644   0.54685   0.00000  Uiso   1.00
C388   C     0.46481   0.33314   0.39694   0.00000  Uiso   1.00
C389   C     0.47932   0.38330   0.84471   0.00000  Uiso   1.00
N390   N     0.50170   0.38538   0.98216   0.00000  Uiso   1.00
C391   C     0.49928   0.41187   0.12466   0.00000  Uiso   1.00
C392   C     0.52585   0.41389   0.26060   0.00000  Uiso   1.00
C393   C     0.52579   0.44145   0.39128   0.00000  Uiso   1.00
C394   C     0.49905   0.46744   0.38900   0.00000  Uiso   1.00
C395   C     0.47221   0.46479   0.25260   0.00000  Uiso   1.00
C396   C     0.47227   0.43736   0.12206   0.00000  Uiso   1.00
H397   H     0.55618   0.19822   0.12741   0.00000  Uiso   1.00
H398   H     0.59764   0.14691   0.18954   0.00000  Uiso   1.00
H399   H     0.56748   0.09867   0.65254   0.00000  Uiso   1.00
H400   H     0.48202   0.17934   0.38823   0.00000  Uiso   1.00
H401   H     0.44754   0.26319   0.27601   0.00000  Uiso   1.00
H402   H     0.57296   0.23930   0.77322   0.00000  Uiso   1.00
H403   H     0.62103   0.28475   0.83947   0.00000  Uiso   1.00
H404   H     0.55500   0.33168   0.28144   0.00000  Uiso   1.00
H405   H     0.54331   0.09872   0.44608   0.00000  Uiso   1.00
H406   H     0.45568   0.11049   0.99857   0.00000  Uiso   1.00
H407   H     0.45410   0.05836   0.77406   0.00000  Uiso   1.00
H408   H     0.54844   0.01336   0.04949   0.00000  Uiso   1.00
H409   H     0.54930   0.06470   0.27478   0.00000  Uiso   1.00
H410   H     0.44818   0.23025   0.69778   0.00000  Uiso   1.00
H411   H     0.42791   0.22010   0.10508   0.00000  Uiso   1.00
H412   H     0.54246   0.29288   0.54282   0.00000  Uiso   1.00
H413   H     0.53283   0.33485   0.81540   0.00000  Uiso   1.00
H414   H     0.43553   0.37484   0.54780   0.00000  Uiso   1.00
H415   H     0.44474   0.33231   0.27746   0.00000  Uiso   1.00
H416   H     0.45548   0.40203   0.83896   0.00000  Uiso   1.00
H417   H     0.54769   0.39285   0.26442   0.00000  Uiso   1.00
H418   H     0.54766   0.44300   0.50150   0.00000  Uiso   1.00
H419   H     0.44992   0.48535   0.24779   0.00000  Uiso   1.00
H420   H     0.45025   0.43568   0.01277   0.00000  Uiso   1.00
C421   C     0.45814   0.85046   0.72081   0.00000  Uiso   1.00
C422   C     0.46120   0.82250   0.85279   0.00000  Uiso   1.00
C423   C     0.44129   0.82396   0.01946   0.00000  Uiso   1.00
C424   C     0.41843   0.85228   0.05437   0.00000  Uiso   1.00
C425   C     0.41528   0.87960   0.92354   0.00000  Uiso   1.00
C426   C     0.43508   0.87878   0.75832   0.00000  Uiso   1.00
C427   C     0.47860   0.84984   0.55573   0.00000  Uiso   1.00
C428   C     0.50146   0.82139   0.52191   0.00000  Uiso   1.00
C429   C     0.50443   0.79369   0.64990   0.00000  Uiso   1.00
C430   C     0.48452   0.79400   0.81665   0.00000  Uiso   1.00
C431   C     0.48960   0.76525   0.95586   0.00000  Uiso   1.00
C432   C     0.52159   0.76356   0.05658   0.00000  Uiso   1.00
C433   C     0.52637   0.73799   0.19488   0.00000  Uiso   1.00
C434   C     0.49972   0.71360   0.23660   0.00000  Uiso   1.00
C435   C     0.46779   0.71418   0.13354   0.00000  Uiso   1.00
C436   C     0.46276   0.74004   0.99160   0.00000  Uiso   1.00
C437   C     0.43107   0.74002   0.88795   0.00000  Uiso   1.00
C438   C     0.40466   0.71503   0.92424   0.00000  Uiso   1.00
C439   C     0.40961   0.68967   0.06437   0.00000  Uiso   1.00
C440   C     0.44098   0.68920   0.16772   0.00000  Uiso   1.00
C441   C     0.47713   0.87935   0.42175   0.00000  Uiso   1.00
N442   N     0.49824   0.88092   0.27878   0.00000  Uiso   1.00
C443   C     0.49761   0.90975   0.14901   0.00000  Uiso   1.00
C444   C     0.50547   0.68908   0.39394   0.00000  Uiso   1.00
C445   C     0.52362   0.91158   0.01023   0.00000  Uiso   1.00
C446   C     0.52439   0.94017   0.88624   0.00000  Uiso   1.00
C447   C     0.49895   0.96733   0.89739   0.00000  Uiso   1.00
C448   C     0.47273   0.96503   0.03715   0.00000  Uiso   1.00
C449   C     0.47209   0.93663   0.16189   0.00000  Uiso   1.00
Cl450  Cl    0.38680   0.91516   0.96692   0.00000  Uiso   1.00
Cl451  Cl    0.37640   0.65859   0.11238   0.00000  Uiso   1.00
O452   O     0.52737   0.76653   0.61227   0.00000  Uiso   1.00
O453   O     0.54802   0.78766   0.02488   0.00000  Uiso   1.00
C454   C     0.48151   0.68852   0.54396   0.00000  Uiso   1.00
C455   C     0.48680   0.66545   0.69387   0.00000  Uiso   1.00
C456   C     0.51611   0.64273   0.69516   0.00000  Uiso   1.00
C457   C     0.54035   0.64356   0.54685   0.00000  Uiso   1.00
C458   C     0.53519   0.66686   0.39694   0.00000  Uiso   1.00
C459   C     0.52068   0.61670   0.84471   0.00000  Uiso   1.00
N460   N     0.49830   0.61462   0.98216   0.00000  Uiso   1.00
C461   C     0.50072   0.58813   0.12466   0.00000  Uiso   1.00
C462   C     0.47415   0.58611   0.26060   0.00000  Uiso   1.00
C463   C     0.47421   0.55855   0.39128   0.00000  Uiso   1.00
C464   C     0.50095   0.53256   0.38900   0.00000  Uiso   1.00
C465   C     0.52779   0.53521   0.25260   0.00000  Uiso   1.00
C466   C     0.52773   0.56264   0.12206   0.00000  Uiso   1.00
H467   H     0.44382   0.80178   0.12741   0.00000  Uiso   1.00
H468   H     0.40236   0.85309   0.18954   0.00000  Uiso   1.00
H469   H     0.43252   0.90133   0.65254   0.00000  Uiso   1.00
H470   H     0.51798   0.82066   0.38823   0.00000  Uiso   1.00
H471   H     0.55246   0.73681   0.27601   0.00000  Uiso   1.00
H472   H     0.42704   0.76070   0.77322   0.00000  Uiso   1.00
H473   H     0.37897   0.71525   0.83947   0.00000  Uiso   1.00
H474   H     0.44500   0.66832   0.28144   0.00000  Uiso   1.00
H475   H     0.45669   0.90128   0.44608   0.00000  Uiso   1.00
H476   H     0.54432   0.88951   0.99857   0.00000  Uiso   1.00
H477   H     0.54590   0.94164   0.77406   0.00000  Uiso   1.00
H478   H     0.45156   0.98664   0.04949   0.00000  Uiso   1.00
H479   H     0.45070   0.93530   0.27478   0.00000  Uiso   1.00
H480   H     0.55182   0.76975   0.69778   0.00000  Uiso   1.00
H481   H     0.57209   0.77990   0.10508   0.00000  Uiso   1.00
H482   H     0.45754   0.70712   0.54282   0.00000  Uiso   1.00
H483   H     0.46717   0.66515   0.81540   0.00000  Uiso   1.00
H484   H     0.56447   0.62516   0.54780   0.00000  Uiso   1.00
H485   H     0.55526   0.66769   0.27746   0.00000  Uiso   1.00
H486   H     0.54452   0.59797   0.83896   0.00000  Uiso   1.00
H487   H     0.45231   0.60715   0.26442   0.00000  Uiso   1.00
H488   H     0.45234   0.55700   0.50150   0.00000  Uiso   1.00
H489   H     0.55008   0.51465   0.24779   0.00000  Uiso   1.00
H490   H     0.54975   0.56432   0.01277   0.00000  Uiso   1.00
C491   C     0.95814   0.35046   0.22081   0.00000  Uiso   1.00
C492   C     0.96120   0.32250   0.35279   0.00000  Uiso   1.00
C493   C     0.94129   0.32396   0.51946   0.00000  Uiso   1.00
C494   C     0.91843   0.35228   0.55437   0.00000  Uiso   1.00
C495   C     0.91528   0.37960   0.42354   0.00000  Uiso   1.00
C496   C     0.93508   0.37878   0.25832   0.00000  Uiso   1.00
C497   C     0.97860   0.34984   0.05573   0.00000  Uiso   1.00
C498   C     0.00146   0.32139   0.02191   0.00000  Uiso   1.00
C499   C     0.00443   0.29369   0.14990   0.00000  Uiso   1.00
C500   C     0.98452   0.29400   0.31665   0.00000  Uiso   1.00
C501   C     0.98960   0.26525   0.45586   0.00000  Uiso   1.00
C502   C     0.02159   0.26356   0.55658   0.00000  Uiso   1.00
C503   C     0.02637   0.23799   0.69488   0.00000  Uiso   1.00
C504   C     0.99972   0.21360   0.73660   0.00000  Uiso   1.00
C505   C     0.96779   0.21418   0.63354   0.00000  Uiso   1.00
C506   C     0.96276   0.24004   0.49160   0.00000  Uiso   1.00
C507   C     0.93107   0.24002   0.38795   0.00000  Uiso   1.00
C508   C     0.90466   0.21503   0.42424   0.00000  Uiso   1.00
C509   C     0.90961   0.18967   0.56437   0.00000  Uiso   1.00
C510   C     0.94098   0.18920   0.66772   0.00000  Uiso   1.00
C511   C     0.97713   0.37935   0.92175   0.00000  Uiso   1.00
N512   N     0.99824   0.38092   0.77878   0.00000  Uiso   1.00
C513   C     0.99761   0.40975   0.64901   0.00000  Uiso   1.00
C514   C     0.00547   0.18908   0.89394   0.00000  Uiso   1.00
C515   C     0.02362   0.41158   0.51023   0.00000  Uiso   1.00
C516   C     0.02439   0.44017   0.38624   0.00000  Uiso   1.00
C517   C     0.99895   0.46733   0.39739   0.00000  Uiso   1.00
C518   C     0.97273   0.46503   0.53715   0.00000  Uiso   1.00
C519   C     0.97209   0.43663   0.66189   0.00000  Uiso   1.00
Cl520  Cl    0.88680   0.41516   0.46692   0.00000  Uiso   1.00
Cl521  Cl    0.87640   0.15859   0.61238   0.00000  Uiso   1.00
O522   O     0.02737   0.26653   0.11227   0.00000  Uiso   1.00
O523   O     0.04802   0.28766   0.52488   0.00000  Uiso   1.00
C524   C     0.98151   0.18852   0.04396   0.00000  Uiso   1.00
C525   C     0.98680   0.16545   0.19387   0.00000  Uiso   1.00
C526   C     0.01611   0.14273   0.19516   0.00000  Uiso   1.00
C527   C     0.04035   0.14356   0.04685   0.00000  Uiso   1.00
C528   C     0.03519   0.16686   0.89694   0.00000  Uiso   1.00
C529   C     0.02068   0.11670   0.34471   0.00000  Uiso   1.00
N530   N     0.99830   0.11462   0.48216   0.00000  Uiso   1.00
C531   C     0.00072   0.08813   0.62466   0.00000  Uiso   1.00
C532   C     0.97415   0.08611   0.76060   0.00000  Uiso   1.00
C533   C     0.97421   0.05855   0.89128   0.00000  Uiso   1.00
C534   C     0.00095   0.03256   0.88900   0.00000  Uiso   1.00
C535   C     0.02779   0.03521   0.75260   0.00000  Uiso   1.00
C536   C     0.02773   0.06264   0.62206   0.00000  Uiso   1.00
H537   H     0.94382   0.30178   0.62741   0.00000  Uiso   1.00
H538   H     0.90236   0.35309   0.68954   0.00000  Uiso   1.00
H539   H     0.93252   0.40133   0.15254   0.00000  Uiso   1.00
H540   H     0.01798   0.32066   0.88823   0.00000  Uiso   1.00
H541   H     0.05246   0.23681   0.77601   0.00000  Uiso   1.00
H542   H     0.92704   0.26070   0.27322   0.00000  Uiso   1.00
H543   H     0.87897   0.21525   0.33947   0.00000  Uiso   1.00
H544   H     0.94500   0.16832   0.78144   0.00000  Uiso   1.00
H545   H     0.95669   0.40128   0.94608   0.00000  Uiso   1.00
H546   H     0.04432   0.38951   0.49857   0.00000  Uiso   1.00
H547   H     0.04590   0.44164   0.27406   0.00000  Uiso   1.00
H548   H     0.95156   0.48664   0.54949   0.00000  Uiso   1.00
H549   H     0.95070   0.43530   0.77478   0.00000  Uiso   1.00
H550   H     0.05182   0.26975   0.19778   0.00000  Uiso   1.00
H551   H     0.07209   0.27990   0.60508   0.00000  Uiso   1.00
H552   H     0.95754   0.20712   0.04282   0.00000  Uiso   1.00
H553   H     0.96717   0.16515   0.31540   0.00000  Uiso   1.00
H554   H     0.06447   0.12516   0.04780   0.00000  Uiso   1.00
H555   H     0.05526   0.16769   0.77746   0.00000  Uiso   1.00
H556   H     0.04452   0.09797   0.33896   0.00000  Uiso   1.00
H557   H     0.95231   0.10715   0.76442   0.00000  Uiso   1.00
H558   H     0.95234   0.05700   0.00150   0.00000  Uiso   1.00
H559   H     0.05008   0.01465   0.74779   0.00000  Uiso   1.00
H560   H     0.04975   0.06432   0.51277   0.00000  Uiso   1.00
C561   C     0.00000   0.00000   0.01862   0.00000  Uiso   1.00
C562   C     0.50000   0.50000   0.51862   0.00000  Uiso   1.00
C563   C     0.00000   0.50000   0.26862   0.00000  Uiso   1.00
C564   C     0.50000   0.00000   0.76862   0.00000  Uiso   1.00
loop_
_geom_bond_atom_site_label_1
_geom_bond_atom_site_label_2
_geom_bond_distance
_geom_bond_site_symmetry_2
_ccdc_geom_bond_type
C1     C7      1.409   .     D
C1     C2      1.417   1_556 S
C1     C6      1.398   1_556 S
C2     C3      1.408   .     S
C2     C10     1.408   .     D
C2     C1      1.417   1_554 S
C3     C4      1.390   .     D
C3     H47     1.140   .     S
C4     C5      1.394   .     S
C4     H48     1.140   .     S
C5     C6      1.396   .     D
C5     Cl30    1.740   .     S
C6     C1      1.398   1_554 S
C6     H49     1.140   1_554 S
C7     C21     1.466   .     S
C7     C8      1.393   1_565 S
C8     C9      1.391   .     D
C8     H50     1.140   .     S
C8     C7      1.393   1_545 S
C9     O32     1.363   .     S
C9     C10     1.408   1_546 S
C10    C11     1.481   .     S
C10    C9      1.408   1_564 S
C11    C16     1.407   .     D
C11    C12     1.403   1_565 S
C12    C13     1.390   .     D
C12    O33     1.363   .     S
C12    C11     1.403   1_545 S
C13    H51     1.140   .     S
C13    C14     1.390   1_545 S
C14    C15     1.408   .     D
C14    C13     1.390   1_565 S
C14    C24     1.470   1_565 S
C15    C16     1.418   .     S
C15    C20     1.399   .     S
C16    C17     1.403   .     S
C17    C18     1.391   .     D
C17    H52     1.140   .     S
C18    C19     1.395   .     S
C18    H53     1.140   .     S
C19    C20     1.391   .     D
C19    Cl31    1.743   .     S
C20    H54     1.140   .     S
C21    N22     1.295   .     D
C21    H55     1.140   .     S
N22    C23     1.427   .     S
C23    C29     1.396   .     D
C23    C25     1.395   1_565 S
C24    C38     1.395   .     D
C24    C14     1.470   1_545 S
C24    C34     1.401   1_545 S
C25    C26     1.393   .     D
C25    H56     1.140   .     S
C25    C23     1.395   1_545 S
C26    H57     1.140   .     S
C26    C27     1.401   1_545 S
C27    C28     1.406   .     D
C27    C26     1.401   1_565 S
C27    C561    1.535   1_565 S
C28    C29     1.391   .     S
C28    H58     1.140   .     S
C29    H59     1.140   .     S
O32    H60     1.110   .     S
O33    H61     1.110   .     S
C34    C35     1.393   .     D
C34    H62     1.140   .     S
C34    C24     1.401   1_565 S
C35    C36     1.394   1_565 S
C35    H63     1.140   1_556 S
C36    C37     1.398   .     D
C36    C35     1.394   1_545 S
C36    C39     1.459   1_556 S
C37    C38     1.398   .     S
C37    H64     1.140   .     S
C38    H65     1.140   .     S
C39    H66     1.140   .     S
C39    C36     1.459   1_554 S
C39    N40     1.296   1_545 D
N40    C39     1.296   1_565 D
N40    C41     1.427   1_565 S
C41    C46     1.396   .     D
C41    N40     1.427   1_545 S
C41    C42     1.396   1_545 S
C42    C43     1.395   .     D
C42    H67     1.140   .     S
C42    C41     1.396   1_565 S
C43    H68     1.140   .     S
C43    C44     1.401   1_565 S
C44    C45     1.407   .     D
C44    C564    1.535   .     S
C44    C43     1.401   1_545 S
C45    C46     1.391   .     S
C45    H69     1.140   .     S
C46    H70     1.140   .     S
H49    C6      1.140   1_556 S
H63    C35     1.140   1_554 S
C71    C72     1.417   .     S
C71    C76     1.398   .     S
C71    C77     1.409   .     D
C72    C73     1.408   .     S
C72    C80     1.408   .     D
C73    C74     1.390   .     D
C73    H117    1.140   .     S
C74    C75     1.394   .     S
C74    H118    1.140   .     S
C75    C76     1.396   .     D
C75    Cl100   1.740   .     S
C76    H119    1.140   .     S
C77    C78     1.393   .     S
C77    C91     1.466   .     S
C78    C79     1.391   .     D
C78    H120    1.140   .     S
C79    C80     1.408   .     S
C79    O102    1.363   .     S
C80    C81     1.481   .     S
C81    C82     1.403   .     D
C81    C86     1.407   .     S
C82    C83     1.390   .     S
C82    O103    1.363   .     S
C83    C84     1.390   .     D
C83    H121    1.140   1_556 S
C84    C85     1.408   .     S
C84    C94     1.470   1_556 S
C85    C86     1.418   .     D
C85    C90     1.399   .     S
C86    C87     1.403   .     S
C87    C88     1.391   .     D
C87    H122    1.140   .     S
C88    C89     1.395   .     S
C88    H123    1.140   .     S
C89    C90     1.391   .     D
C89    Cl101   1.743   .     S
C90    H124    1.140   1_556 S
C91    N92     1.295   .     D
C91    H125    1.140   .     S
N92    C93     1.427   1_554 S
C93    C95     1.395   .     S
C93    C99     1.396   .     D
C93    N92     1.427   1_556 S
C94    C104    1.401   .     D
C94    C108    1.395   .     S
C94    C84     1.470   1_554 S
C95    C96     1.393   .     D
C95    H126    1.140   .     S
C96    C97     1.401   .     S
C96    H127    1.140   .     S
C97    C98     1.406   .     D
C97    C562    1.535   .     S
C98    C99     1.391   .     S
C98    H128    1.140   .     S
C99    H129    1.140   1_556 S
O102   H130    1.110   .     S
O103   H131    1.110   .     S
C104   C105    1.393   .     S
C104   H132    1.140   .     S
C105   C106    1.394   .     D
C105   H133    1.140   .     S
C106   C107    1.398   .     S
C106   C109    1.459   .     S
C107   C108    1.398   .     D
C107   H134    1.140   .     S
C108   H135    1.140   .     S
C109   N110    1.296   .     D
C109   H136    1.140   .     S
N110   C111    1.427   .     S
C111   C116    1.396   .     D
C111   C112    1.396   1_556 S
C112   C113    1.395   .     D
C112   H137    1.140   .     S
C112   C111    1.396   1_554 S
C113   C114    1.401   .     S
C113   H138    1.140   .     S
C114   C115    1.407   .     D
C114   C563    1.535   1_655 S
C115   C116    1.391   1_554 S
C115   H139    1.140   1_554 S
C116   H140    1.140   .     S
C116   C115    1.391   1_556 S
H121   C83     1.140   1_554 S
H124   C90     1.140   1_554 S
H129   C99     1.140   1_554 S
H139   C115    1.140   1_556 S
C141   C142    1.417   .     S
C141   C146    1.398   .     S
C141   C147    1.409   .     D
C142   C143    1.408   .     S
C142   C150    1.408   .     D
C143   C144    1.390   .     D
C143   H187    1.140   .     S
C144   C145    1.394   .     S
C144   H188    1.140   .     S
C145   C146    1.396   .     D
C145   Cl170   1.740   .     S
C146   H189    1.140   .     S
C147   C148    1.393   .     S
C147   C161    1.466   .     S
C148   C149    1.391   .     D
C148   H190    1.140   .     S
C149   C150    1.408   .     S
C149   O172    1.363   .     S
C150   C151    1.481   .     S
C151   C152    1.403   .     D
C151   C156    1.407   .     S
C152   C153    1.390   .     S
C152   O173    1.363   .     S
C153   C154    1.390   .     D
C153   H191    1.140   1_556 S
C154   C155    1.408   .     S
C154   C164    1.470   1_556 S
C155   C156    1.418   .     D
C155   C160    1.399   .     S
C156   C157    1.403   .     S
C157   C158    1.391   .     D
C157   H192    1.140   .     S
C158   C159    1.395   .     S
C158   H193    1.140   .     S
C159   C160    1.391   .     D
C159   Cl171   1.743   .     S
C160   H194    1.140   1_556 S
C161   N162    1.295   .     D
C161   H195    1.140   .     S
N162   C163    1.427   1_554 S
C163   C165    1.395   .     S
C163   C169    1.396   .     D
C163   N162    1.427   1_556 S
C164   C174    1.401   .     D
C164   C178    1.395   .     S
C164   C154    1.470   1_554 S
C165   C166    1.393   .     D
C165   H196    1.140   .     S
C166   C167    1.401   .     S
C166   H197    1.140   .     S
C167   C168    1.406   .     D
C167   C562    1.535   .     S
C168   C169    1.391   .     S
C168   H198    1.140   .     S
C169   H199    1.140   1_556 S
O172   H200    1.110   .     S
O173   H201    1.110   .     S
C174   C175    1.393   .     S
C174   H202    1.140   .     S
C175   C176    1.394   .     D
C175   H203    1.140   .     S
C176   C177    1.398   .     S
C176   C179    1.459   .     S
C177   C178    1.398   .     D
C177   H204    1.140   .     S
C178   H205    1.140   .     S
C179   N180    1.296   .     D
C179   H206    1.140   .     S
N180   C181    1.427   .     S
C181   C186    1.396   .     D
C181   C182    1.396   1_556 S
C182   C183    1.395   .     D
C182   H207    1.140   .     S
C182   C181    1.396   1_554 S
C183   C184    1.401   .     S
C183   H208    1.140   .     S
C184   C185    1.407   .     D
C184   C563    1.535   .     S
C185   C186    1.391   1_554 S
C185   H209    1.140   1_554 S
C186   H210    1.140   .     S
C186   C185    1.391   1_556 S
H191   C153    1.140   1_554 S
H194   C160    1.140   1_554 S
H199   C169    1.140   1_554 S
H209   C185    1.140   1_556 S
C211   C217    1.409   .     D
C211   C212    1.417   1_556 S
C211   C216    1.398   1_556 S
C212   C213    1.408   .     S
C212   C220    1.408   .     D
C212   C211    1.417   1_554 S
C213   C214    1.390   .     D
C213   H257    1.140   .     S
C214   C215    1.394   .     S
C214   H258    1.140   .     S
C215   C216    1.396   .     D
C215   Cl240   1.740   .     S
C216   C211    1.398   1_554 S
C216   H259    1.140   1_554 S
C217   C231    1.466   .     S
C217   C218    1.393   1_545 S
C218   C219    1.391   .     D
C218   H260    1.140   .     S
C218   C217    1.393   1_565 S
C219   O242    1.363   .     S
C219   C220    1.408   1_566 S
C220   C221    1.481   .     S
C220   C219    1.408   1_544 S
C221   C226    1.407   .     D
C221   C222    1.403   1_545 S
C222   C223    1.390   .     D
C222   O243    1.363   .     S
C222   C221    1.403   1_565 S
C223   H261    1.140   .     S
C223   C224    1.390   1_565 S
C224   C225    1.408   .     D
C224   C223    1.390   1_545 S
C224   C234    1.470   1_545 S
C225   C226    1.418   .     S
C225   C230    1.399   .     S
C226   C227    1.403   .     S
C227   C228    1.391   .     D
C227   H262    1.140   .     S
C228   C229    1.395   .     S
C228   H263    1.140   .     S
C229   C230    1.391   .     D
C229   Cl241   1.743   .     S
C230   H264    1.140   .     S
C231   N232    1.295   .     D
C231   H265    1.140   .     S
N232   C233    1.427   .     S
C233   C239    1.396   .     D
C233   C235    1.395   1_545 S
C234   C248    1.395   .     D
C234   C224    1.470   1_565 S
C234   C244    1.401   1_565 S
C235   C236    1.393   .     D
C235   H266    1.140   .     S
C235   C233    1.395   1_565 S
C236   H267    1.140   .     S
C236   C237    1.401   1_565 S
C237   C238    1.406   .     D
C237   C236    1.401   1_545 S
C237   C561    1.535   1_655 S
C238   C239    1.391   .     S
C238   H268    1.140   .     S
C239   H269    1.140   .     S
O242   H270    1.110   .     S
O243   H271    1.110   .     S
C244   C245    1.393   .     D
C244   H272    1.140   .     S
C244   C234    1.401   1_545 S
C245   C246    1.394   1_545 S
C245   H273    1.140   1_556 S
C246   C247    1.398   .     D
C246   C245    1.394   1_565 S
C246   C249    1.459   1_556 S
C247   C248    1.398   .     S
C247   H274    1.140   .     S
C248   H275    1.140   .     S
C249   H276    1.140   .     S
C249   C246    1.459   1_554 S
C249   N250    1.296   1_565 D
N250   C249    1.296   1_545 D
N250   C251    1.427   1_545 S
C251   C256    1.396   .     D
C251   N250    1.427   1_565 S
C251   C252    1.396   1_565 S
C252   C253    1.395   .     D
C252   H277    1.140   .     S
C252   C251    1.396   1_545 S
C253   H278    1.140   .     S
C253   C254    1.401   1_545 S
C254   C255    1.407   .     D
C254   C253    1.401   1_565 S
C254   C564    1.535   1_565 S
C255   C256    1.391   .     S
C255   H279    1.140   .     S
C256   H280    1.140   .     S
H259   C216    1.140   1_556 S
H273   C245    1.140   1_554 S
C281   C282    1.417   .     S
C281   C286    1.398   .     S
C281   C287    1.409   .     D
C282   C283    1.408   .     S
C282   C290    1.408   .     D
C283   C284    1.390   .     D
C283   H327    1.140   .     S
C284   C285    1.394   .     S
C284   H328    1.140   .     S
C285   C286    1.396   .     D
C285   Cl310   1.740   .     S
C286   H329    1.140   .     S
C287   C288    1.393   1_455 S
C287   C301    1.466   1_554 S
C288   C289    1.391   .     D
C288   C287    1.393   1_655 S
C288   H330    1.140   1_554 S
C289   O312    1.363   .     S
C289   C290    1.408   1_655 S
C290   C291    1.481   .     S
C290   C289    1.408   1_455 S
C291   C296    1.407   .     D
C291   C292    1.403   1_455 S
C292   C293    1.390   .     D
C292   O313    1.363   .     S
C292   C291    1.403   1_655 S
C293   H331    1.140   .     S
C293   C294    1.390   1_655 S
C294   C295    1.408   .     D
C294   C293    1.390   1_455 S
C294   C304    1.470   1_455 S
C295   C296    1.418   .     S
C295   C300    1.399   .     S
C296   C297    1.403   .     S
C297   C298    1.391   .     D
C297   H332    1.140   .     S
C298   C299    1.395   .     S
C298   H333    1.140   .     S
C299   C300    1.391   .     D
C299   Cl311   1.743   .     S
C300   H334    1.140   .     S
C301   N302    1.295   .     D
C301   H335    1.140   .     S
C301   C287    1.466   1_556 S
N302   C303    1.427   .     S
C303   C309    1.396   .     S
C303   C305    1.395   1_455 D
C304   C318    1.395   .     D
C304   C294    1.470   1_655 S
C304   C314    1.401   1_656 S
C305   C306    1.393   .     S
C305   H336    1.140   .     S
C305   C303    1.395   1_655 D
C306   H337    1.140   .     S
C306   C307    1.401   1_655 D
C307   C308    1.406   .     S
C307   C563    1.535   .     S
C307   C306    1.401   1_455 D
C308   C309    1.391   .     D
C308   H338    1.140   .     S
C309   H339    1.140   .     S
O312   H340    1.110   .     S
O313   H341    1.110   .     S
C314   C315    1.393   .     D
C314   H342    1.140   .     S
C314   C304    1.401   1_454 S
C315   H343    1.140   .     S
C315   C316    1.394   1_455 S
C316   C317    1.398   .     D
C316   C319    1.459   .     S
C316   C315    1.394   1_655 S
C317   H344    1.140   .     S
C317   C318    1.398   1_554 S
C318   H345    1.140   .     S
C318   C317    1.398   1_556 S
C319   H346    1.140   .     S
C319   N320    1.296   1_655 D
N320   C319    1.296   1_455 D
N320   C321    1.427   1_455 S
C321   C326    1.396   .     D
C321   N320    1.427   1_655 S
C321   C322    1.396   1_655 S
C322   C323    1.395   .     D
C322   H347    1.140   .     S
C322   C321    1.396   1_455 S
C323   C324    1.401   1_455 S
C323   H348    1.140   1_556 S
C324   C325    1.407   .     D
C324   C323    1.401   1_655 S
C324   C561    1.535   1_666 S
C325   C326    1.391   .     S
C325   H349    1.140   .     S
C326   H350    1.140   .     S
H330   C288    1.140   1_556 S
H348   C323    1.140   1_554 S
C351   C352    1.417   .     S
C351   C356    1.398   .     D
C351   C357    1.409   .     S
C352   C360    1.408   .     S
C352   C353    1.408   1_556 D
C353   C354    1.390   .     S
C353   H397    1.140   .     S
C353   C352    1.408   1_554 D
C354   H398    1.140   .     S
C354   C355    1.394   1_554 D
C355   C356    1.396   .     S
C355   Cl380   1.740   .     S
C355   C354    1.394   1_556 D
C356   H399    1.140   .     S
C357   C358    1.393   .     D
C357   C371    1.466   .     S
C358   C359    1.391   .     S
C358   H400    1.140   .     S
C359   C360    1.408   .     D
C359   O382    1.363   .     S
C360   C361    1.481   .     S
C361   C366    1.407   .     S
C361   C362    1.403   1_556 D
C362   C363    1.390   .     S
C362   O383    1.363   .     S
C362   C361    1.403   1_554 D
C363   C364    1.390   .     D
C363   H401    1.140   .     S
C364   C365    1.408   .     S
C364   C374    1.470   .     S
C365   C370    1.399   .     D
C365   C366    1.418   1_554 S
C366   C367    1.403   .     D
C366   C365    1.418   1_556 S
C367   C368    1.391   .     S
C367   H402    1.140   .     S
C368   H403    1.140   .     S
C368   C369    1.395   1_556 D
C369   C370    1.391   .     S
C369   Cl381   1.743   .     S
C369   C368    1.395   1_554 D
C370   H404    1.140   .     S
C371   N372    1.295   .     D
C371   H405    1.140   .     S
N372   C373    1.427   .     S
C373   C375    1.395   .     S
C373   C379    1.396   .     D
C374   C384    1.401   .     D
C374   C388    1.395   .     S
C375   C376    1.393   1_554 D
C375   H406    1.140   1_554 S
C376   C377    1.401   .     S
C376   H407    1.140   .     S
C376   C375    1.393   1_556 D
C377   C564    1.535   .     S
C377   C378    1.406   1_556 D
C378   C379    1.391   .     S
C378   H408    1.140   .     S
C378   C377    1.406   1_554 D
C379   H409    1.140   .     S
O382   H410    1.110   .     S
O383   H411    1.110   .     S
C384   C385    1.393   .     S
C384   H412    1.140   .     S
C385   C386    1.394   .     D
C385   H413    1.140   .     S
C386   C387    1.398   .     S
C386   C389    1.459   .     S
C387   C388    1.398   .     D
C387   H414    1.140   .     S
C388   H415    1.140   .     S
C389   N390    1.296   .     D
C389   H416    1.140   .     S
N390   C391    1.427   1_556 S
C391   C392    1.396   .     S
C391   C396    1.396   .     D
C391   N390    1.427   1_554 S
C392   C393    1.395   .     D
C392   H417    1.140   .     S
C393   C394    1.401   .     S
C393   H418    1.140   .     S
C394   C395    1.407   .     D
C394   C562    1.535   .     S
C395   C396    1.391   .     S
C395   H419    1.140   .     S
C396   H420    1.140   .     S
H406   C375    1.140   1_556 S
C421   C422    1.417   .     S
C421   C426    1.398   .     D
C421   C427    1.409   .     S
C422   C430    1.408   .     S
C422   C423    1.408   1_556 D
C423   C424    1.390   .     S
C423   H467    1.140   .     S
C423   C422    1.408   1_554 D
C424   H468    1.140   .     S
C424   C425    1.394   1_554 D
C425   C426    1.396   .     S
C425   Cl450   1.740   .     S
C425   C424    1.394   1_556 D
C426   H469    1.140   .     S
C427   C428    1.393   .     D
C427   C441    1.466   .     S
C428   C429    1.391   .     S
C428   H470    1.140   .     S
C429   C430    1.408   .     D
C429   O452    1.363   .     S
C430   C431    1.481   .     S
C431   C436    1.407   .     S
C431   C432    1.403   1_556 D
C432   C433    1.390   .     S
C432   O453    1.363   .     S
C432   C431    1.403   1_554 D
C433   C434    1.390   .     D
C433   H471    1.140   .     S
C434   C435    1.408   .     S
C434   C444    1.470   .     S
C435   C440    1.399   .     D
C435   C436    1.418   1_554 S
C436   C437    1.403   .     D
C436   C435    1.418   1_556 S
C437   C438    1.391   .     S
C437   H472    1.140   .     S
C438   H473    1.140   .     S
C438   C439    1.395   1_556 D
C439   C440    1.391   .     S
C439   Cl451   1.743   .     S
C439   C438    1.395   1_554 D
C440   H474    1.140   .     S
C441   N442    1.295   .     D
C441   H475    1.140   .     S
N442   C443    1.427   .     S
C443   C445    1.395   .     S
C443   C449    1.396   .     D
C444   C454    1.401   .     D
C444   C458    1.395   .     S
C445   C446    1.393   1_554 D
C445   H476    1.140   1_554 S
C446   C447    1.401   .     S
C446   H477    1.140   .     S
C446   C445    1.393   1_556 D
C447   C448    1.406   1_556 D
C447   C564    1.535   1_565 S
C448   C449    1.391   .     S
C448   H478    1.140   .     S
C448   C447    1.406   1_554 D
C449   H479    1.140   .     S
O452   H480    1.110   .     S
O453   H481    1.110   .     S
C454   C455    1.393   .     S
C454   H482    1.140   .     S
C455   C456    1.394   .     D
C455   H483    1.140   .     S
C456   C457    1.398   .     S
C456   C459    1.459   .     S
C457   C458    1.398   .     D
C457   H484    1.140   .     S
C458   H485    1.140   .     S
C459   N460    1.296   .     D
C459   H486    1.140   .     S
N460   C461    1.427   1_556 S
C461   C462    1.396   .     S
C461   C466    1.396   .     D
C461   N460    1.427   1_554 S
C462   C463    1.395   .     D
C462   H487    1.140   .     S
C463   C464    1.401   .     S
C463   H488    1.140   .     S
C464   C465    1.407   .     D
C464   C562    1.535   .     S
C465   C466    1.391   .     S
C465   H489    1.140   .     S
C466   H490    1.140   .     S
H476   C445    1.140   1_556 S
C491   C492    1.417   .     S
C491   C496    1.398   .     S
C491   C497    1.409   .     D
C492   C493    1.408   .     S
C492   C500    1.408   .     D
C493   C494    1.390   .     D
C493   H537    1.140   .     S
C494   C495    1.394   .     S
C494   H538    1.140   .     S
C495   C496    1.396   .     D
C495   Cl520   1.740   .     S
C496   H539    1.140   .     S
C497   C498    1.393   1_655 S
C497   C511    1.466   1_554 S
C498   C499    1.391   .     D
C498   C497    1.393   1_455 S
C498   H540    1.140   1_554 S
C499   O522    1.363   .     S
C499   C500    1.408   1_455 S
C500   C501    1.481   .     S
C500   C499    1.408   1_655 S
C501   C506    1.407   .     D
C501   C502    1.403   1_655 S
C502   C503    1.390   .     D
C502   O523    1.363   .     S
C502   C501    1.403   1_455 S
C503   H541    1.140   .     S
C503   C504    1.390   1_455 S
C504   C505    1.408   .     D
C504   C503    1.390   1_655 S
C504   C514    1.470   1_655 S
C505   C506    1.418   .     S
C505   C510    1.399   .     S
C506   C507    1.403   .     S
C507   C508    1.391   .     D
C507   H542    1.140   .     S
C508   C509    1.395   .     S
C508   H543    1.140   .     S
C509   C510    1.391   .     D
C509   Cl521   1.743   .     S
C510   H544    1.140   .     S
C511   N512    1.295   .     D
C511   H545    1.140   .     S
C511   C497    1.466   1_556 S
N512   C513    1.427   .     S
C513   C519    1.396   .     S
C513   C515    1.395   1_655 D
C514   C528    1.395   .     D
C514   C504    1.470   1_455 S
C514   C524    1.401   1_456 S
C515   C516    1.393   .     S
C515   H546    1.140   .     S
C515   C513    1.395   1_455 D
C516   H547    1.140   .     S
C516   C517    1.401   1_455 D
C517   C518    1.406   .     S
C517   C516    1.401   1_655 D
C517   C563    1.535   1_655 S
C518   C519    1.391   .     D
C518   H548    1.140   .     S
C519   H549    1.140   .     S
O522   H550    1.110   .     S
O523   H551    1.110   .     S
C524   C525    1.393   .     D
C524   H552    1.140   .     S
C524   C514    1.401   1_654 S
C525   H553    1.140   .     S
C525   C526    1.394   1_655 S
C526   C527    1.398   .     D
C526   C529    1.459   .     S
C526   C525    1.394   1_455 S
C527   H554    1.140   .     S
C527   C528    1.398   1_554 S
C528   H555    1.140   .     S
C528   C527    1.398   1_556 S
C529   H556    1.140   .     S
C529   N530    1.296   1_455 D
N530   C529    1.296   1_655 D
N530   C531    1.427   1_655 S
C531   C536    1.396   .     D
C531   N530    1.427   1_455 S
C531   C532    1.396   1_455 S
C532   C533    1.395   .     D
C532   H557    1.140   .     S
C532   C531    1.396   1_655 S
C533   C534    1.401   1_655 S
C533   H558    1.140   1_556 S
C534   C535    1.407   .     D
C534   C533    1.401   1_455 S
C534   C561    1.535   1_556 S
C535   C536    1.391   .     S
C535   H559    1.140   .     S
C536   H560    1.140   .     S
H540   C498    1.140   1_556 S
H558   C533    1.140   1_554 S
C561   C27     1.535   1_545 S
C561   C237    1.535   1_455 S
C561   C324    1.535   1_444 S
C561   C534    1.535   1_554 S
C563   C114    1.535   1_455 S
C563   C517    1.535   1_455 S
C564   C254    1.535   1_545 S
C564   C447    1.535   1_545 S
