data_761
_audit_creation_date              2023-09-08
_audit_creation_method            'Materials Studio'
_symmetry_space_group_name_H-M    'P1'
_symmetry_Int_Tables_number       1
_symmetry_cell_setting            triclinic
loop_
_symmetry_equiv_pos_as_xyz
  x,y,z
_cell_length_a                    55.8584
_cell_length_b                    55.9452
_cell_length_c                    20.5310
_cell_angle_alpha                 90.0000
_cell_angle_beta                  90.0000
_cell_angle_gamma                 120.0000
loop_
_atom_site_label
_atom_site_type_symbol
_atom_site_fract_x
_atom_site_fract_y
_atom_site_fract_z
_atom_site_U_iso_or_equiv
_atom_site_adp_type
_atom_site_occupancy
N1     N     0.22501   0.74912  -0.03954   0.00000  Uiso   1.00
C2     C     0.18548   0.74661   0.01750   0.00000  Uiso   1.00
C3     C     0.21375   0.76118   0.00329   0.00000  Uiso   1.00
C4     C     0.23063   0.78691   0.03291   0.00000  Uiso   1.00
C5     C     0.21937   0.79770   0.07658   0.00000  Uiso   1.00
C6     C     0.19112   0.78295   0.09120   0.00000  Uiso   1.00
C7     C     0.17416   0.75740   0.06132   0.00000  Uiso   1.00
N8     N     0.23893   0.76930   0.56164   0.00000  Uiso   1.00
C9     C     0.20119   0.75801   0.48288   0.00000  Uiso   1.00
C10    C     0.22424   0.77754   0.51827   0.00000  Uiso   1.00
C11    C     0.23380   0.80566   0.50862   0.00000  Uiso   1.00
C12    C     0.22091   0.81421   0.46325   0.00000  Uiso   1.00
C13    C     0.19817   0.79467   0.42732   0.00000  Uiso   1.00
C14    C     0.18829   0.76651   0.43781   0.00000  Uiso   1.00
C15    C     0.18593   0.80350   0.37489   0.00000  Uiso   1.00
C16    C     0.18619   0.79296   0.20621   0.00000  Uiso   1.00
C17    C     0.20191   0.78155   0.22670   0.00000  Uiso   1.00
C18    C     0.17243   0.81805   0.39226   0.00000  Uiso   1.00
C19    C     0.17031   0.82566   0.45924   0.00000  Uiso   1.00
C20    C     0.17964   0.79379   0.14037   0.00000  Uiso   1.00
C21    C     0.18870   0.79694   0.31011   0.00000  Uiso   1.00
C22    C     0.20356   0.78414   0.29313   0.00000  Uiso   1.00
C23    C     0.16297   0.80435   0.11850   0.00000  Uiso   1.00
C24    C     0.15601   0.80467   0.04996   0.00000  Uiso   1.00
N25    N     0.17797   0.80247   0.25699   0.00000  Uiso   1.00
C26    C     0.12334   0.83688   0.13255   0.00000  Uiso   1.00
C27    C     0.12682   0.85143   0.29989   0.00000  Uiso   1.00
C28    C     0.11055   0.86225   0.27950   0.00000  Uiso   1.00
C29    C     0.13784   0.82334   0.11503   0.00000  Uiso   1.00
C30    C     0.14052   0.81632   0.04780   0.00000  Uiso   1.00
C31    C     0.13427   0.85155   0.36549   0.00000  Uiso   1.00
C32    C     0.12184   0.84483   0.19679   0.00000  Uiso   1.00
C33    C     0.10739   0.85804   0.21355   0.00000  Uiso   1.00
C34    C     0.14945   0.83935   0.38799   0.00000  Uiso   1.00
C35    C     0.15629   0.83885   0.45660   0.00000  Uiso   1.00
N36    N     0.09346   0.90198   0.54139   0.00000  Uiso   1.00
C37    C     0.09482   0.86153   0.50237   0.00000  Uiso   1.00
C38    C     0.10501   0.88998   0.49931   0.00000  Uiso   1.00
C39    C     0.12561   0.90597   0.45378   0.00000  Uiso   1.00
C40    C     0.13557   0.89351   0.41122   0.00000  Uiso   1.00
C41    C     0.12510   0.86496   0.41383   0.00000  Uiso   1.00
C42    C     0.10474   0.84903   0.45971   0.00000  Uiso   1.00
N43    N     0.06774   0.86159  -0.06672   0.00000  Uiso   1.00
C44    C     0.10437   0.87684   0.01473   0.00000  Uiso   1.00
C45    C     0.08171   0.85544  -0.01739   0.00000  Uiso   1.00
C46    C     0.07270   0.82798  -0.00082   0.00000  Uiso   1.00
C47    C     0.08634   0.82191   0.04787   0.00000  Uiso   1.00
C48    C     0.10905   0.84329   0.08037   0.00000  Uiso   1.00
C49    C     0.11803   0.87080   0.06342   0.00000  Uiso   1.00
N50    N     0.13376   0.84057   0.24951   0.00000  Uiso   1.00
N51    N     0.15174   0.81588   0.15643   0.00000  Uiso   1.00
N52    N     0.15958   0.82663   0.35043   0.00000  Uiso   1.00
C53    C     0.44044   0.72313  -0.33287   0.00000  Uiso   1.00
C54    C     0.46146   0.71648  -0.32702   0.00000  Uiso   1.00
C55    C     0.48492   0.72946  -0.36674   0.00000  Uiso   1.00
C56    C     0.48748   0.74916  -0.41264   0.00000  Uiso   1.00
C57    C     0.46646   0.75563  -0.41878   0.00000  Uiso   1.00
C58    C     0.44305   0.74265  -0.37929   0.00000  Uiso   1.00
C59    C     0.51151   0.76306  -0.45566   0.00000  Uiso   1.00
C60    C     0.41538   0.70959  -0.29195   0.00000  Uiso   1.00
C61    C     0.38956   0.69773  -0.32365   0.00000  Uiso   1.00
C62    C     0.36527   0.68509  -0.28725   0.00000  Uiso   1.00
C63    C     0.28012   0.56665  -0.31904   0.00000  Uiso   1.00
C64    C     0.25850   0.56341  -0.35940   0.00000  Uiso   1.00
C65    C     0.24417   0.53981  -0.39759   0.00000  Uiso   1.00
C66    C     0.25137   0.51926  -0.39618   0.00000  Uiso   1.00
C67    C     0.27306   0.52238  -0.35606   0.00000  Uiso   1.00
C68    C     0.28741   0.54604  -0.31758   0.00000  Uiso   1.00
C69    C     0.23651   0.49543  -0.43920   0.00000  Uiso   1.00
C70    C     0.29559   0.59226  -0.28120   0.00000  Uiso   1.00
C71    C     0.30770   0.61721  -0.31615   0.00000  Uiso   1.00
C72    C     0.32205   0.64215  -0.28321   0.00000  Uiso   1.00
C73    C     0.27869   0.71724  -0.31630   0.00000  Uiso   1.00
C74    C     0.28430   0.74461  -0.31139   0.00000  Uiso   1.00
C75    C     0.26936   0.75361  -0.34890   0.00000  Uiso   1.00
C76    C     0.24863   0.73524  -0.39141   0.00000  Uiso   1.00
C77    C     0.24301   0.70799  -0.39599   0.00000  Uiso   1.00
C78    C     0.25799   0.69906  -0.35894   0.00000  Uiso   1.00
C79    C     0.23320   0.74387  -0.43376   0.00000  Uiso   1.00
C80    C     0.29489   0.70747  -0.27942   0.00000  Uiso   1.00
C81    C     0.30736   0.69512  -0.31489   0.00000  Uiso   1.00
C82    C     0.32214   0.68483  -0.28239   0.00000  Uiso   1.00
C83    C     0.33863   0.67140  -0.18433   0.00000  Uiso   1.00
C84    C     0.44236   0.71828  -0.18550   0.00000  Uiso   1.00
C85    C     0.46411   0.74562  -0.19142   0.00000  Uiso   1.00
C86    C     0.48779   0.75514  -0.15264   0.00000  Uiso   1.00
C87    C     0.48981   0.73736  -0.10763   0.00000  Uiso   1.00
C88    C     0.46816   0.71020  -0.10185   0.00000  Uiso   1.00
C89    C     0.44458   0.70074  -0.14030   0.00000  Uiso   1.00
C90    C     0.51348   0.74649  -0.06376   0.00000  Uiso   1.00
C91    C     0.41641   0.70801  -0.22274   0.00000  Uiso   1.00
C92    C     0.39174   0.69590  -0.18670   0.00000  Uiso   1.00
C93    C     0.36651   0.68507  -0.21848   0.00000  Uiso   1.00
C94    C     0.28715   0.56726  -0.17208   0.00000  Uiso   1.00
C95    C     0.25985   0.54560  -0.17987   0.00000  Uiso   1.00
C96    C     0.24943   0.52219  -0.14007   0.00000  Uiso   1.00
C97    C     0.26624   0.52029  -0.09199   0.00000  Uiso   1.00
C98    C     0.29332   0.54193  -0.08385   0.00000  Uiso   1.00
C99    C     0.30369   0.56528  -0.12345   0.00000  Uiso   1.00
C100   C     0.25611   0.49648  -0.04830   0.00000  Uiso   1.00
C101   C     0.29847   0.59262  -0.21210   0.00000  Uiso   1.00
C102   C     0.31245   0.61810  -0.17933   0.00000  Uiso   1.00
C103   C     0.32371   0.64261  -0.21439   0.00000  Uiso   1.00
C104   C     0.28564   0.72269  -0.17045   0.00000  Uiso   1.00
C105   C     0.25702   0.71233  -0.17055   0.00000  Uiso   1.00
C106   C     0.24555   0.72438  -0.13107   0.00000  Uiso   1.00
C107   C     0.26268   0.74694  -0.09138   0.00000  Uiso   1.00
C108   C     0.29119   0.75728  -0.09144   0.00000  Uiso   1.00
C109   C     0.30263   0.74515  -0.13052   0.00000  Uiso   1.00
C110   C     0.25138   0.75972  -0.04828   0.00000  Uiso   1.00
C111   C     0.29789   0.70972  -0.21041   0.00000  Uiso   1.00
C112   C     0.31220   0.69847  -0.17791   0.00000  Uiso   1.00
C113   C     0.32388   0.68573  -0.21358   0.00000  Uiso   1.00
C114   C     0.33596   0.67053  -0.31547   0.00000  Uiso   1.00
N115   N     0.89775   0.09231   0.45292   0.00000  Uiso   1.00
C116   C     0.86025   0.09579   0.50470   0.00000  Uiso   1.00
C117   C     0.88859   0.10648   0.49532   0.00000  Uiso   1.00
C118   C     0.90751   0.13032   0.52937   0.00000  Uiso   1.00
C119   C     0.89812   0.14293   0.57301   0.00000  Uiso   1.00
C120   C     0.86972   0.13192   0.58308   0.00000  Uiso   1.00
C121   C     0.85081   0.10839   0.54851   0.00000  Uiso   1.00
N122   N     0.90914   0.10534   1.05573   0.00000  Uiso   1.00
C123   C     0.87342   0.09657   0.97285   0.00000  Uiso   1.00
C124   C     0.89588   0.11496   1.01163   0.00000  Uiso   1.00
C125   C     0.90628   0.14336   1.00490   0.00000  Uiso   1.00
C126   C     0.89468   0.15334   0.95958   0.00000  Uiso   1.00
C127   C     0.87247   0.13496   0.92051   0.00000  Uiso   1.00
C128   C     0.86181   0.10650   0.92772   0.00000  Uiso   1.00
C129   C     0.86132   0.14550   0.86933   0.00000  Uiso   1.00
C130   C     0.86457   0.14027   0.69927   0.00000  Uiso   1.00
C131   C     0.87823   0.12649   0.71824   0.00000  Uiso   1.00
C132   C     0.84744   0.15941   0.88887   0.00000  Uiso   1.00
C133   C     0.84287   0.16361   0.95705   0.00000  Uiso   1.00
C134   C     0.85987   0.14389   0.63352   0.00000  Uiso   1.00
C135   C     0.86510   0.14084   0.80367   0.00000  Uiso   1.00
C136   C     0.87868   0.12698   0.78494   0.00000  Uiso   1.00
C137   C     0.84635   0.15803   0.61293   0.00000  Uiso   1.00
C138   C     0.84229   0.16227   0.54440   0.00000  Uiso   1.00
N139   N     0.85639   0.14916   0.75138   0.00000  Uiso   1.00
C140   C     0.81184   0.19559   0.63156   0.00000  Uiso   1.00
C141   C     0.80680   0.19904   0.80162   0.00000  Uiso   1.00
C142   C     0.79321   0.21289   0.78268   0.00000  Uiso   1.00
C143   C     0.82547   0.18142   0.61198   0.00000  Uiso   1.00
C144   C     0.82945   0.17664   0.54381   0.00000  Uiso   1.00
C145   C     0.81050   0.19443   0.86736   0.00000  Uiso   1.00
C146   C     0.80726   0.19946   0.69722   0.00000  Uiso   1.00
C147   C     0.79362   0.21327   0.71597   0.00000  Uiso   1.00
C148   C     0.82447   0.18073   0.88792   0.00000  Uiso   1.00
C149   C     0.82878   0.17675   0.95647   0.00000  Uiso   1.00
N150   N     0.76043   0.23342   1.04935   0.00000  Uiso   1.00
C151   C     0.76356   0.19569   0.99828   0.00000  Uiso   1.00
C152   C     0.77430   0.22406   1.00659   0.00000  Uiso   1.00
C153   C     0.79771   0.24272   0.97085   0.00000  Uiso   1.00
C154   C     0.80992   0.23305   0.92678   0.00000  Uiso   1.00
C155   C     0.79890   0.20464   0.91790   0.00000  Uiso   1.00
C156   C     0.77575   0.18599   0.95403   0.00000  Uiso   1.00
N157   N     0.77274   0.24480   0.44622   0.00000  Uiso   1.00
C158   C     0.76347   0.20824   0.52704   0.00000  Uiso   1.00
C159   C     0.78214   0.23124   0.49007   0.00000  Uiso   1.00
C160   C     0.81055   0.24173   0.49805   0.00000  Uiso   1.00
C161   C     0.82027   0.22975   0.54301   0.00000  Uiso   1.00
C162   C     0.80161   0.20704   0.58039   0.00000  Uiso   1.00
C163   C     0.77315   0.19626   0.57185   0.00000  Uiso   1.00
N164   N     0.81547   0.19065   0.74949   0.00000  Uiso   1.00
N165   N     0.83594   0.16989   0.65243   0.00000  Uiso   1.00
N166   N     0.83605   0.17004   0.84843   0.00000  Uiso   1.00
N167   N     0.08981   0.19899  -0.04627   0.00000  Uiso   1.00
C168   C     0.09520   0.24193  -0.00150   0.00000  Uiso   1.00
C169   C     0.10338   0.22202  -0.00284   0.00000  Uiso   1.00
C170   C     0.12415   0.22453   0.03993   0.00000  Uiso   1.00
C171   C     0.13619   0.24638   0.08401   0.00000  Uiso   1.00
C172   C     0.12764   0.26606   0.08631   0.00000  Uiso   1.00
C173   C     0.10721   0.26381   0.04291   0.00000  Uiso   1.00
N174   N     0.10299   0.20086   0.56059   0.00000  Uiso   1.00
C175   C     0.09358   0.22637   0.47539   0.00000  Uiso   1.00
C176   C     0.11222   0.22351   0.51607   0.00000  Uiso   1.00
C177   C     0.14051   0.24261   0.51119   0.00000  Uiso   1.00
C178   C     0.15014   0.26399   0.46548   0.00000  Uiso   1.00
C179   C     0.13153   0.26660   0.42426   0.00000  Uiso   1.00
C180   C     0.10317   0.24775   0.42994   0.00000  Uiso   1.00
C181   C     0.14179   0.28828   0.37298   0.00000  Uiso   1.00
C182   C     0.13518   0.27974   0.20290   0.00000  Uiso   1.00
C183   C     0.12095   0.25235   0.22211   0.00000  Uiso   1.00
C184   C     0.15644   0.31605   0.39258   0.00000  Uiso   1.00
C185   C     0.16129   0.32474   0.46080   0.00000  Uiso   1.00
C186   C     0.13892   0.28796   0.13699   0.00000  Uiso   1.00
C187   C     0.13633   0.27985   0.30735   0.00000  Uiso   1.00
C188   C     0.12184   0.25241   0.28872   0.00000  Uiso   1.00
C189   C     0.15280   0.31568   0.11656   0.00000  Uiso   1.00
C190   C     0.15764   0.32406   0.04813   0.00000  Uiso   1.00
N191   N     0.14464   0.29681   0.25499   0.00000  Uiso   1.00
C192   C     0.18932   0.38776   0.13565   0.00000  Uiso   1.00
C193   C     0.19485   0.39626   0.30592   0.00000  Uiso   1.00
C194   C     0.20801   0.42365   0.28691   0.00000  Uiso   1.00
C195   C     0.17519   0.35997   0.11591   0.00000  Uiso   1.00
C196   C     0.17141   0.35126   0.04772   0.00000  Uiso   1.00
C197   C     0.19196   0.38801   0.37170   0.00000  Uiso   1.00
C198   C     0.19378   0.39615   0.20148   0.00000  Uiso   1.00
C199   C     0.20718   0.42359   0.22028   0.00000  Uiso   1.00
C200   C     0.17871   0.36031   0.39197   0.00000  Uiso   1.00
C201   C     0.17498   0.35193   0.46040   0.00000  Uiso   1.00
N202   N     0.24269   0.47602   0.55687   0.00000  Uiso   1.00
C203   C     0.23755   0.43392   0.50791   0.00000  Uiso   1.00
C204   C     0.22870   0.45323   0.51301   0.00000  Uiso   1.00
C205   C     0.20702   0.45049   0.47320   0.00000  Uiso   1.00
C206   C     0.19464   0.42892   0.42841   0.00000  Uiso   1.00
C207   C     0.20380   0.40982   0.42252   0.00000  Uiso   1.00
C208   C     0.22521   0.41233   0.46292   0.00000  Uiso   1.00
N209   N     0.23082   0.47616  -0.04983   0.00000  Uiso   1.00
C210   C     0.23890   0.45060   0.03767   0.00000  Uiso   1.00
C211   C     0.22095   0.45326  -0.00584   0.00000  Uiso   1.00
C212   C     0.19273   0.43363  -0.00461   0.00000  Uiso   1.00
C213   C     0.18244   0.41193   0.04039   0.00000  Uiso   1.00
C214   C     0.20034   0.40954   0.08450   0.00000  Uiso   1.00
C215   C     0.22867   0.42892   0.08234   0.00000  Uiso   1.00
N216   N     0.18603   0.37918   0.25378   0.00000  Uiso   1.00
N217   N     0.16380   0.33792   0.15616   0.00000  Uiso   1.00
N218   N     0.16713   0.33809   0.35231   0.00000  Uiso   1.00
N219   N     0.53401   0.77164  -0.06271   0.00000  Uiso   1.00
C220   C     0.57727   0.80811  -0.01595   0.00000  Uiso   1.00
C221   C     0.55647   0.78031  -0.01764   0.00000  Uiso   1.00
C222   C     0.55754   0.76166   0.02644   0.00000  Uiso   1.00
C223   C     0.57887   0.77077   0.07198   0.00000  Uiso   1.00
C224   C     0.59947   0.79869   0.07456   0.00000  Uiso   1.00
C225   C     0.59860   0.81727   0.02992   0.00000  Uiso   1.00
N226   N     0.53119   0.75716   0.54425   0.00000  Uiso   1.00
C227   C     0.55838   0.79258   0.46141   0.00000  Uiso   1.00
C228   C     0.55445   0.77052   0.50129   0.00000  Uiso   1.00
C229   C     0.57308   0.76076   0.49742   0.00000  Uiso   1.00
C230   C     0.59508   0.77247   0.45321   0.00000  Uiso   1.00
C231   C     0.59874   0.79422   0.41265   0.00000  Uiso   1.00
C232   C     0.58037   0.80434   0.41748   0.00000  Uiso   1.00
C233   C     0.62073   0.80528   0.36214   0.00000  Uiso   1.00
C234   C     0.61270   0.80349   0.19187   0.00000  Uiso   1.00
C235   C     0.58523   0.79001   0.21062   0.00000  Uiso   1.00
C236   C     0.64843   0.81833   0.38277   0.00000  Uiso   1.00
C237   C     0.65670   0.82261   0.45130   0.00000  Uiso   1.00
C238   C     0.62116   0.80859   0.12612   0.00000  Uiso   1.00
C239   C     0.61255   0.80213   0.29627   0.00000  Uiso   1.00
C240   C     0.58511   0.78897   0.27720   0.00000  Uiso   1.00
C241   C     0.64905   0.82258   0.10676   0.00000  Uiso   1.00
C242   C     0.65791   0.82715   0.03865   0.00000  Uiso   1.00
N243   N     0.62968   0.81109   0.24424   0.00000  Uiso   1.00
C244   C     0.72106   0.85696   0.12840   0.00000  Uiso   1.00
C245   C     0.72908   0.85833   0.29860   0.00000  Uiso   1.00
C246   C     0.75655   0.87145   0.27980   0.00000  Uiso   1.00
C247   C     0.69338   0.84407   0.10785   0.00000  Uiso   1.00
C248   C     0.68514   0.84036   0.03930   0.00000  Uiso   1.00
C249   C     0.72066   0.85379   0.36442   0.00000  Uiso   1.00
C250   C     0.72925   0.85966   0.19419   0.00000  Uiso   1.00
C251   C     0.75667   0.87245   0.21322   0.00000  Uiso   1.00
C252   C     0.69278   0.83987   0.38387   0.00000  Uiso   1.00
C253   C     0.68393   0.83588   0.45198   0.00000  Uiso   1.00
N254   N     0.80866   0.89460   0.55164   0.00000  Uiso   1.00
C255   C     0.76546   0.85696   0.50732   0.00000  Uiso   1.00
C256   C     0.78594   0.88490   0.50705   0.00000  Uiso   1.00
C257   C     0.78425   0.90276   0.46151   0.00000  Uiso   1.00
C258   C     0.76267   0.89271   0.41651   0.00000  Uiso   1.00
C259   C     0.74243   0.86463   0.41581   0.00000  Uiso   1.00
C260   C     0.74388   0.84685   0.46196   0.00000  Uiso   1.00
N261   N     0.80982   0.90733  -0.05512   0.00000  Uiso   1.00
C262   C     0.78335   0.87116   0.02684   0.00000  Uiso   1.00
C263   C     0.78682   0.89341  -0.01173   0.00000  Uiso   1.00
C264   C     0.76801   0.90288  -0.00592   0.00000  Uiso   1.00
C265   C     0.74624   0.89064   0.03873   0.00000  Uiso   1.00
C266   C     0.74299   0.86867   0.07786   0.00000  Uiso   1.00
C267   C     0.76156   0.85887   0.07123   0.00000  Uiso   1.00
N268   N     0.71211   0.85088   0.24628   0.00000  Uiso   1.00
N269   N     0.67104   0.83294   0.14726   0.00000  Uiso   1.00
N270   N     0.67077   0.82912   0.34336   0.00000  Uiso   1.00
N271   N     0.75378   0.52761   0.45345   0.00000  Uiso   1.00
C272   C     0.75911   0.57037   0.49943   0.00000  Uiso   1.00
C273   C     0.76759   0.55070   0.49675   0.00000  Uiso   1.00
C274   C     0.78894   0.55353   0.53792   0.00000  Uiso   1.00
C275   C     0.80121   0.57543   0.58191   0.00000  Uiso   1.00
C276   C     0.79236   0.59485   0.58555   0.00000  Uiso   1.00
C277   C     0.77134   0.59228   0.54371   0.00000  Uiso   1.00
N278   N     0.76753   0.52986   1.06084   0.00000  Uiso   1.00
C279   C     0.75829   0.55426   0.97238   0.00000  Uiso   1.00
C280   C     0.77669   0.55246   1.01615   0.00000  Uiso   1.00
C281   C     0.80475   0.57259   1.01410   0.00000  Uiso   1.00
C282   C     0.81441   0.59394   0.96827   0.00000  Uiso   1.00
C283   C     0.79607   0.59550   0.92393   0.00000  Uiso   1.00
C284   C     0.76790   0.57560   0.92684   0.00000  Uiso   1.00
C285   C     0.80652   0.61716   0.87245   0.00000  Uiso   1.00
C286   C     0.80061   0.60857   0.70219   0.00000  Uiso   1.00
C287   C     0.78713   0.58118   0.72136   0.00000  Uiso   1.00
C288   C     0.82064   0.64496   0.89200   0.00000  Uiso   1.00
C289   C     0.82413   0.65368   0.96022   0.00000  Uiso   1.00
C290   C     0.80391   0.61679   0.63630   0.00000  Uiso   1.00
C291   C     0.80173   0.60872   0.80665   0.00000  Uiso   1.00
C292   C     0.78800   0.58130   0.78795   0.00000  Uiso   1.00
C293   C     0.81749   0.64450   0.61592   0.00000  Uiso   1.00
C294   C     0.82167   0.65290   0.54751   0.00000  Uiso   1.00
N295   N     0.80962   0.62567   0.75430   0.00000  Uiso   1.00
C296   C     0.85495   0.71660   0.63492   0.00000  Uiso   1.00
C297   C     0.86097   0.72518   0.80509   0.00000  Uiso   1.00
C298   C     0.87523   0.75255   0.78593   0.00000  Uiso   1.00
C299   C     0.84020   0.68880   0.61526   0.00000  Uiso   1.00
C300   C     0.83561   0.68009   0.54711   0.00000  Uiso   1.00
C301   C     0.85705   0.71696   0.87100   0.00000  Uiso   1.00
C302   C     0.86012   0.72503   0.70063   0.00000  Uiso   1.00
C303   C     0.87457   0.75247   0.71930   0.00000  Uiso   1.00
C304   C     0.84300   0.68925   0.89136   0.00000  Uiso   1.00
C305   C     0.83785   0.68086   0.95984   0.00000  Uiso   1.00
N306   N     0.90529   0.80464   1.05787   0.00000  Uiso   1.00
C307   C     0.89997   0.76198   1.01166   0.00000  Uiso   1.00
C308   C     0.89191   0.78196   1.01348   0.00000  Uiso   1.00
C309   C     0.87172   0.78005   0.96961   0.00000  Uiso   1.00
C310   C     0.86001   0.75862   0.92431   0.00000  Uiso   1.00
C311   C     0.86834   0.73879   0.92185   0.00000  Uiso   1.00
C312   C     0.88829   0.74050   0.96616   0.00000  Uiso   1.00
N313   N     0.89468   0.80515   0.45013   0.00000  Uiso   1.00
C314   C     0.90370   0.77943   0.53551   0.00000  Uiso   1.00
C315   C     0.88531   0.78222   0.49381   0.00000  Uiso   1.00
C316   C     0.85709   0.76268   0.49666   0.00000  Uiso   1.00
C317   C     0.84725   0.74094   0.54144   0.00000  Uiso   1.00
C318   C     0.86558   0.73837   0.58366   0.00000  Uiso   1.00
C319   C     0.89391   0.75767   0.57995   0.00000  Uiso   1.00
N320   N     0.85163   0.70808   0.75309   0.00000  Uiso   1.00
N321   N     0.82908   0.66675   0.65558   0.00000  Uiso   1.00
N322   N     0.83217   0.66702   0.85164   0.00000  Uiso   1.00
N323   N     0.19533   0.10369   0.43570   0.00000  Uiso   1.00
C324   C     0.23812   0.14100   0.48205   0.00000  Uiso   1.00
C325   C     0.21783   0.11301   0.48078   0.00000  Uiso   1.00
C326   C     0.21938   0.09480   0.52545   0.00000  Uiso   1.00
C327   C     0.24072   0.10452   0.57107   0.00000  Uiso   1.00
C328   C     0.26080   0.13262   0.57315   0.00000  Uiso   1.00
C329   C     0.25946   0.15077   0.52797   0.00000  Uiso   1.00
N330   N     0.19356   0.09020   1.04330   0.00000  Uiso   1.00
C331   C     0.21964   0.12561   0.95950   0.00000  Uiso   1.00
C332   C     0.21672   0.10414   1.00023   0.00000  Uiso   1.00
C333   C     0.23631   0.09556   0.99711   0.00000  Uiso   1.00
C334   C     0.25825   0.10784   0.95279   0.00000  Uiso   1.00
C335   C     0.26092   0.12898   0.91138   0.00000  Uiso   1.00
C336   C     0.24158   0.13793   0.91553   0.00000  Uiso   1.00
C337   C     0.28281   0.14045   0.86048   0.00000  Uiso   1.00
C338   C     0.27432   0.13814   0.69022   0.00000  Uiso   1.00
C339   C     0.24689   0.12433   0.70930   0.00000  Uiso   1.00
C340   C     0.31059   0.15397   0.88060   0.00000  Uiso   1.00
C341   C     0.31908   0.15870   0.94895   0.00000  Uiso   1.00
C342   C     0.28262   0.14309   0.62437   0.00000  Uiso   1.00
C343   C     0.27443   0.13704   0.79468   0.00000  Uiso   1.00
C344   C     0.24694   0.12347   0.77589   0.00000  Uiso   1.00
C345   C     0.31045   0.15721   0.60451   0.00000  Uiso   1.00
C346   C     0.31910   0.16166   0.53623   0.00000  Uiso   1.00
N347   N     0.29143   0.14609   0.74240   0.00000  Uiso   1.00
C348   C     0.38253   0.19156   0.62479   0.00000  Uiso   1.00
C349   C     0.39106   0.19345   0.79493   0.00000  Uiso   1.00
C350   C     0.41845   0.20608   0.77561   0.00000  Uiso   1.00
C351   C     0.35478   0.17877   0.60479   0.00000  Uiso   1.00
C352   C     0.34632   0.17494   0.53637   0.00000  Uiso   1.00
C353   C     0.38281   0.18924   0.86091   0.00000  Uiso   1.00
C354   C     0.39091   0.19437   0.69048   0.00000  Uiso   1.00
C355   C     0.41838   0.20682   0.70899   0.00000  Uiso   1.00
C356   C     0.35497   0.17569   0.88086   0.00000  Uiso   1.00
C357   C     0.34633   0.17207   0.94911   0.00000  Uiso   1.00
N358   N     0.47109   0.22847   1.04718   0.00000  Uiso   1.00
C359   C     0.42722   0.19161   1.00393   0.00000  Uiso   1.00
C360   C     0.44834   0.21929   1.00287   0.00000  Uiso   1.00
C361   C     0.44726   0.23729   0.95675   0.00000  Uiso   1.00
C362   C     0.42564   0.22763   0.91193   0.00000  Uiso   1.00
C363   C     0.40473   0.19979   0.91202   0.00000  Uiso   1.00
C364   C     0.40559   0.18188   0.95871   0.00000  Uiso   1.00
N365   N     0.47085   0.24059   0.43964   0.00000  Uiso   1.00
C366   C     0.44388   0.20439   0.52122   0.00000  Uiso   1.00
C367   C     0.44786   0.22699   0.48332   0.00000  Uiso   1.00
C368   C     0.42966   0.23716   0.49025   0.00000  Uiso   1.00
C369   C     0.40801   0.22525   0.53529   0.00000  Uiso   1.00
C370   C     0.40429   0.20295   0.57379   0.00000  Uiso   1.00
C371   C     0.42224   0.19245   0.56609   0.00000  Uiso   1.00
N372   N     0.37395   0.18605   0.74287   0.00000  Uiso   1.00
N373   N     0.33257   0.16767   0.64462   0.00000  Uiso   1.00
N374   N     0.33282   0.16463   0.84075   0.00000  Uiso   1.00
C375   C     0.72413   0.28735   0.17395   0.00000  Uiso   1.00
C376   C     0.71732   0.25961   0.17688   0.00000  Uiso   1.00
C377   C     0.73150   0.25017   0.13823   0.00000  Uiso   1.00
C378   C     0.75260   0.26843   0.09644   0.00000  Uiso   1.00
C379   C     0.75934   0.29604   0.09350   0.00000  Uiso   1.00
C380   C     0.74513   0.30545   0.13186   0.00000  Uiso   1.00
C381   C     0.76736   0.25918   0.05381   0.00000  Uiso   1.00
C382   C     0.70893   0.29754   0.21290   0.00000  Uiso   1.00
C383   C     0.69654   0.31054   0.17935   0.00000  Uiso   1.00
C384   C     0.68216   0.32077   0.21381   0.00000  Uiso   1.00
C385   C     0.56290   0.28291   0.16891   0.00000  Uiso   1.00
C386   C     0.56122   0.29973   0.12066   0.00000  Uiso   1.00
C387   C     0.53788   0.28980   0.08110   0.00000  Uiso   1.00
C388   C     0.51591   0.26290   0.08886   0.00000  Uiso   1.00
C389   C     0.51746   0.24581   0.13662   0.00000  Uiso   1.00
C390   C     0.54089   0.25578   0.17638   0.00000  Uiso   1.00
C391   C     0.49214   0.25333   0.04509   0.00000  Uiso   1.00
C392   C     0.58813   0.29387   0.20940   0.00000  Uiso   1.00
C393   C     0.61378   0.30786   0.17713   0.00000  Uiso   1.00
C394   C     0.63822   0.31921   0.21272   0.00000  Uiso   1.00
C395   C     0.71326   0.43831   0.18296   0.00000  Uiso   1.00
C396   C     0.74060   0.46002   0.18954   0.00000  Uiso   1.00
C397   C     0.75035   0.48368   0.15071   0.00000  Uiso   1.00
C398   C     0.73281   0.48574   0.10492   0.00000  Uiso   1.00
C399   C     0.70564   0.46409   0.09840   0.00000  Uiso   1.00
C400   C     0.69595   0.44052   0.13692   0.00000  Uiso   1.00
C401   C     0.74226   0.50949   0.06124   0.00000  Uiso   1.00
C402   C     0.70276   0.41243   0.22059   0.00000  Uiso   1.00
C403   C     0.69087   0.38770   0.18488   0.00000  Uiso   1.00
C404   C     0.68007   0.36257   0.21708   0.00000  Uiso   1.00
C405   C     0.66576   0.33229   0.31453   0.00000  Uiso   1.00
C406   C     0.71714   0.27960   0.32018   0.00000  Uiso   1.00
C407   C     0.74510   0.28691   0.31697   0.00000  Uiso   1.00
C408   C     0.75514   0.27324   0.35579   0.00000  Uiso   1.00
C409   C     0.73724   0.25209   0.39802   0.00000  Uiso   1.00
C410   C     0.70943   0.24483   0.40108   0.00000  Uiso   1.00
C411   C     0.69946   0.25854   0.36269   0.00000  Uiso   1.00
C412   C     0.74689   0.23778   0.44130   0.00000  Uiso   1.00
C413   C     0.70619   0.29442   0.28187   0.00000  Uiso   1.00
C414   C     0.69235   0.30566   0.31617   0.00000  Uiso   1.00
C415   C     0.68093   0.31914   0.28261   0.00000  Uiso   1.00
C416   C     0.56166   0.27605   0.31612   0.00000  Uiso   1.00
C417   C     0.54104   0.28335   0.31274   0.00000  Uiso   1.00
C418   C     0.51719   0.26944   0.35094   0.00000  Uiso   1.00
C419   C     0.51385   0.24816   0.39277   0.00000  Uiso   1.00
C420   C     0.53443   0.24097   0.39619   0.00000  Uiso   1.00
C421   C     0.55823   0.25487   0.35829   0.00000  Uiso   1.00
C422   C     0.48982   0.23377   0.43562   0.00000  Uiso   1.00
C423   C     0.58750   0.29111   0.27858   0.00000  Uiso   1.00
C424   C     0.61238   0.30336   0.31401   0.00000  Uiso   1.00
C425   C     0.63749   0.31770   0.28152   0.00000  Uiso   1.00
C426   C     0.71810   0.43661   0.33058   0.00000  Uiso   1.00
C427   C     0.71178   0.45784   0.32488   0.00000  Uiso   1.00
C428   C     0.72509   0.48127   0.36456   0.00000  Uiso   1.00
C429   C     0.74480   0.48358   0.41025   0.00000  Uiso   1.00
C430   C     0.75093   0.46235   0.41615   0.00000  Uiso   1.00
C431   C     0.73764   0.43899   0.37674   0.00000  Uiso   1.00
C432   C     0.75907   0.50754   0.45331   0.00000  Uiso   1.00
C433   C     0.70424   0.41153   0.28988   0.00000  Uiso   1.00
C434   C     0.69239   0.38582   0.32196   0.00000  Uiso   1.00
C435   C     0.67986   0.36149   0.28592   0.00000  Uiso   1.00
C436   C     0.66717   0.33466   0.18336   0.00000  Uiso   1.00
C437   C    -0.05814   0.89549   0.18075   0.00000  Uiso   1.00
C438   C    -0.07944   0.89221   0.13921   0.00000  Uiso   1.00
C439   C    -0.09344   0.86859   0.10088   0.00000  Uiso   1.00
C440   C    -0.08622   0.84807   0.10337   0.00000  Uiso   1.00
C441   C    -0.06488   0.85121   0.14484   0.00000  Uiso   1.00
C442   C    -0.05086   0.87489   0.18348   0.00000  Uiso   1.00
C443   C    -0.10058   0.82430   0.05988   0.00000  Uiso   1.00
C444   C    -0.04290   0.92122   0.21848   0.00000  Uiso   1.00
C445   C    -0.03095   0.94611   0.18327   0.00000  Uiso   1.00
C446   C    -0.01654   0.97112   0.21596   0.00000  Uiso   1.00
C447   C    -0.05062   0.89638   0.32754   0.00000  Uiso   1.00
C448   C    -0.07800   0.87469   0.32107   0.00000  Uiso   1.00
C449   C    -0.08791   0.85124   0.36061   0.00000  Uiso   1.00
C450   C    -0.07051   0.84935   0.40709   0.00000  Uiso   1.00
C451   C    -0.04334   0.87100   0.41378   0.00000  Uiso   1.00
C452   C    -0.03347   0.89439   0.37441   0.00000  Uiso   1.00
C453   C    -0.08007   0.82552   0.45062   0.00000  Uiso   1.00
C454   C    -0.03980   0.92169   0.28755   0.00000  Uiso   1.00
C455   C    -0.02582   0.94722   0.32008   0.00000  Uiso   1.00
C456   C    -0.01475   0.97171   0.28480   0.00000  Uiso   1.00
C457   C     0.90008   0.95156   0.67368   0.00000  Uiso   1.00
C458   C     0.89734   0.96812   0.62646   0.00000  Uiso   1.00
C459   C     0.87387   0.95750   0.58721   0.00000  Uiso   1.00
C460   C     0.85282   0.93013   0.59418   0.00000  Uiso   1.00
C461   C     0.85539   0.91329   0.64093   0.00000  Uiso   1.00
C462   C     0.87898   0.92397   0.68042   0.00000  Uiso   1.00
C463   C     0.82899   0.91988   0.55041   0.00000  Uiso   1.00
C464   C     0.92571   0.96323   0.71289   0.00000  Uiso   1.00
C465   C     0.95086   0.97803   0.67913   0.00000  Uiso   1.00
C466   C     0.97570   0.99007   0.71301   0.00000  Uiso   1.00
C467   C     0.90057   0.94489   0.82086   0.00000  Uiso   1.00
C468   C     0.87920   0.95111   0.81728   0.00000  Uiso   1.00
C469   C     0.85568   0.93687   0.85629   0.00000  Uiso   1.00
C470   C     0.85341   0.91633   0.89918   0.00000  Uiso   1.00
C471   C     0.87477   0.91025   0.90296   0.00000  Uiso   1.00
C472   C     0.89826   0.92450   0.86417   0.00000  Uiso   1.00
C473   C     0.82954   0.90152   0.94224   0.00000  Uiso   1.00
C474   C     0.92597   0.96035   0.78189   0.00000  Uiso   1.00
C475   C     0.95129   0.97320   0.81575   0.00000  Uiso   1.00
C476   C     0.97594   0.98829   0.78170   0.00000  Uiso   1.00
C477   C     0.94388   0.04963   0.18094   0.00000  Uiso   1.00
C478   C     0.95088   0.07744   0.18514   0.00000  Uiso   1.00
C479   C     0.93718   0.08747   0.14640   0.00000  Uiso   1.00
C480   C     0.91637   0.06975   0.10321   0.00000  Uiso   1.00
C481   C     0.90940   0.04208   0.09921   0.00000  Uiso   1.00
C482   C     0.92312   0.03211   0.13754   0.00000  Uiso   1.00
C483   C     0.90225   0.07954   0.05970   0.00000  Uiso   1.00
C484   C     0.95890   0.03877   0.21871   0.00000  Uiso   1.00
C485   C     0.97029   0.02528   0.18363   0.00000  Uiso   1.00
C486   C     0.98418   0.01411   0.21632   0.00000  Uiso   1.00
C487   C     1.00049   0.00057   0.31448   0.00000  Uiso   1.00
C488   C     0.95185   0.05622   0.32743   0.00000  Uiso   1.00
C489   C     0.92411   0.04952   0.32425   0.00000  Uiso   1.00
C490   C     0.91457   0.06350   0.36330   0.00000  Uiso   1.00
C491   C     0.93276   0.08430   0.40584   0.00000  Uiso   1.00
C492   C     0.96035   0.09088   0.40915   0.00000  Uiso   1.00
C493   C     0.96985   0.07687   0.37042   0.00000  Uiso   1.00
C494   C     0.92352   0.09911   0.44835   0.00000  Uiso   1.00
C495   C     0.96224   0.04139   0.28773   0.00000  Uiso   1.00
C496   C     0.97567   0.02923   0.32039   0.00000  Uiso   1.00
C497   C     0.98608   0.01521   0.28510   0.00000  Uiso   1.00
C498   C     0.04869   0.11003   0.68444   0.00000  Uiso   1.00
C499   C     0.07644   0.13104   0.68822   0.00000  Uiso   1.00
C500   C     0.08607   0.15476   0.64977   0.00000  Uiso   1.00
C501   C     0.06799   0.15758   0.60720   0.00000  Uiso   1.00
C502   C     0.04037   0.13664   0.60356   0.00000  Uiso   1.00
C503   C     0.03078   0.11298   0.64173   0.00000  Uiso   1.00
C504   C     0.07737   0.18132   0.56354   0.00000  Uiso   1.00
C505   C     0.03845   0.08408   0.72118   0.00000  Uiso   1.00
C506   C     0.02658   0.05956   0.68472   0.00000  Uiso   1.00
C507   C     0.01648   0.03434   0.71614   0.00000  Uiso   1.00
C508   C     0.00464   0.00383   0.81267   0.00000  Uiso   1.00
C509   C     0.05432   0.10797   0.83139   0.00000  Uiso   1.00
C510   C     0.04818   0.12931   0.82525   0.00000  Uiso   1.00
C511   C     0.06136   0.15269   0.86503   0.00000  Uiso   1.00
C512   C     0.08075   0.15484   0.91142   0.00000  Uiso   1.00
C513   C     0.08668   0.13350   0.91800   0.00000  Uiso   1.00
C514   C     0.07351   0.11019   0.87838   0.00000  Uiso   1.00
C515   C     0.09484   0.17873   0.95460   0.00000  Uiso   1.00
C516   C     0.04063   0.08300   0.79021   0.00000  Uiso   1.00
C517   C     0.02964   0.05719   0.82146   0.00000  Uiso   1.00
C518   C     0.01722   0.03304   0.78487   0.00000  Uiso   1.00
C519   C     0.10211   0.05312   0.16534   0.00000  Uiso   1.00
C520   C     0.12380   0.04744   0.17141   0.00000  Uiso   1.00
C521   C     0.14726   0.06110   0.13190   0.00000  Uiso   1.00
C522   C     0.14918   0.08053   0.08597   0.00000  Uiso   1.00
C523   C     0.12748   0.08600   0.07950   0.00000  Uiso   1.00
C524   C     0.10407   0.07234   0.11881   0.00000  Uiso   1.00
C525   C     0.17318   0.09508   0.04301   0.00000  Uiso   1.00
C526   C     0.07707   0.03896   0.20628   0.00000  Uiso   1.00
C527   C     0.05121   0.02676   0.17475   0.00000  Uiso   1.00
C528   C     0.02696   0.01383   0.21128   0.00000  Uiso   1.00
C529   C     0.10417   0.04827   0.31280   0.00000  Uiso   1.00
C530   C     0.12535   0.07587   0.30702   0.00000  Uiso   1.00
C531   C     0.14902   0.08599   0.34603   0.00000  Uiso   1.00
C532   C     0.15156   0.06855   0.39113   0.00000  Uiso   1.00
C533   C     0.13046   0.04113   0.39682   0.00000  Uiso   1.00
C534   C     0.10691   0.03108   0.35812   0.00000  Uiso   1.00
C535   C     0.17522   0.07833   0.43517   0.00000  Uiso   1.00
C536   C     0.07819   0.03741   0.27554   0.00000  Uiso   1.00
C537   C     0.05357   0.02505   0.31171   0.00000  Uiso   1.00
C538   C     0.02829   0.01388   0.28007   0.00000  Uiso   1.00
C539   C    -0.00240  -0.00058   0.18336   0.00000  Uiso   1.00
C540   C     0.06232   0.96107   0.66103   0.00000  Uiso   1.00
C541   C     0.05656   0.93388   0.67027   0.00000  Uiso   1.00
C542   C     0.06877   0.92282   0.63021   0.00000  Uiso   1.00
C543   C     0.08684   0.93884   0.58039   0.00000  Uiso   1.00
C544   C     0.09246   0.96590   0.57078   0.00000  Uiso   1.00
C545   C     0.08019   0.97696   0.61075   0.00000  Uiso   1.00
C546   C     0.09952   0.92750   0.53704   0.00000  Uiso   1.00
C547   C     0.04915   0.97268   0.70274   0.00000  Uiso   1.00
C548   C     0.03458   0.98395   0.67184   0.00000  Uiso   1.00
C549   C     0.02039   0.99362   0.70906   0.00000  Uiso   1.00
C550   C     0.06621   0.96184   0.80798   0.00000  Uiso   1.00
C551   C     0.09357   0.97050   0.78964   0.00000  Uiso   1.00
C552   C     0.10921   0.96151   0.82406   0.00000  Uiso   1.00
C553   C     0.09769   0.94398   0.87750   0.00000  Uiso   1.00
C554   C     0.07062   0.93555   0.89676   0.00000  Uiso   1.00
C555   C     0.05498   0.94455   0.86233   0.00000  Uiso   1.00
C556   C     0.11420   0.93426   0.91375   0.00000  Uiso   1.00
C557   C     0.04972   0.97163   0.77222   0.00000  Uiso   1.00
C558   C     0.03513   0.98133   0.80915   0.00000  Uiso   1.00
C559   C     0.02057   0.99211   0.77793   0.00000  Uiso   1.00
C560   C     0.00408   1.00660   0.68161   0.00000  Uiso   1.00
H561   H     0.17154   0.72582  -0.00668   0.00000  Uiso   1.00
H562   H     0.25366   0.79908   0.02127   0.00000  Uiso   1.00
H563   H     0.23318   0.81859   0.10048   0.00000  Uiso   1.00
H564   H     0.15111   0.74539   0.07272   0.00000  Uiso   1.00
H565   H     0.19292   0.73502   0.49090   0.00000  Uiso   1.00
H566   H     0.25220   0.82175   0.53777   0.00000  Uiso   1.00
H567   H     0.22890   0.83716   0.45542   0.00000  Uiso   1.00
H568   H     0.16960   0.75042   0.40945   0.00000  Uiso   1.00
H569   H     0.21040   0.77255   0.18953   0.00000  Uiso   1.00
H570   H     0.17796   0.82242   0.50811   0.00000  Uiso   1.00
H571   H     0.21562   0.77626   0.32211   0.00000  Uiso   1.00
H572   H     0.16122   0.79730   0.00313   0.00000  Uiso   1.00
H573   H     0.16516   0.81223   0.24835   0.00000  Uiso   1.00
H574   H     0.10285   0.87211   0.31635   0.00000  Uiso   1.00
H575   H     0.13001   0.82127   0.00662   0.00000  Uiso   1.00
H576   H     0.09468   0.86523   0.18483   0.00000  Uiso   1.00
H577   H     0.14937   0.84885   0.49496   0.00000  Uiso   1.00
H578   H     0.07835   0.84844   0.53980   0.00000  Uiso   1.00
H579   H     0.13428   0.92923   0.45148   0.00000  Uiso   1.00
H580   H     0.15226   0.90657   0.37419   0.00000  Uiso   1.00
H581   H     0.09623   0.82580   0.46231   0.00000  Uiso   1.00
H582   H     0.06785   0.85511  -0.11776   0.00000  Uiso   1.00
H583   H     0.05673   0.87288  -0.05419   0.00000  Uiso   1.00
H584   H     0.11171   0.89922   0.00121   0.00000  Uiso   1.00
H585   H     0.05422   0.81054  -0.02701   0.00000  Uiso   1.00
H586   H     0.07901   0.79952   0.06129   0.00000  Uiso   1.00
H587   H     0.13653   0.88831   0.08938   0.00000  Uiso   1.00
H588   H     0.14601   0.83003   0.24398   0.00000  Uiso   1.00
H589   H     0.45946   0.70045  -0.28982   0.00000  Uiso   1.00
H590   H     0.50197   0.72402  -0.36179   0.00000  Uiso   1.00
H591   H     0.46840   0.77157  -0.45617   0.00000  Uiso   1.00
H592   H     0.42597   0.74800  -0.38495   0.00000  Uiso   1.00
H593   H     0.51339   0.77973  -0.49068   0.00000  Uiso   1.00
H594   H     0.38858   0.69849  -0.37902   0.00000  Uiso   1.00
H595   H     0.25254   0.58014  -0.36116   0.00000  Uiso   1.00
H596   H     0.22650   0.53725  -0.43012   0.00000  Uiso   1.00
H597   H     0.27901   0.50564  -0.35478   0.00000  Uiso   1.00
H598   H     0.30505   0.54855  -0.28501   0.00000  Uiso   1.00
H599   H     0.21883   0.49349  -0.47076   0.00000  Uiso   1.00
H600   H     0.30573   0.61695  -0.37145   0.00000  Uiso   1.00
H601   H     0.30107   0.75960  -0.27679   0.00000  Uiso   1.00
H602   H     0.27404   0.77586  -0.34488   0.00000  Uiso   1.00
H603   H     0.22609   0.69290  -0.43015   0.00000  Uiso   1.00
H604   H     0.25329   0.67682  -0.36351   0.00000  Uiso   1.00
H605   H     0.21530   0.72792  -0.46443   0.00000  Uiso   1.00
H606   H     0.30534   0.69355  -0.37019   0.00000  Uiso   1.00
H607   H     0.33971   0.67178  -0.12886   0.00000  Uiso   1.00
H608   H     0.46252   0.76014  -0.22786   0.00000  Uiso   1.00
H609   H     0.50543   0.77734  -0.15765   0.00000  Uiso   1.00
H610   H     0.46972   0.69562  -0.06551   0.00000  Uiso   1.00
H611   H     0.42701   0.67853  -0.13477   0.00000  Uiso   1.00
H612   H     0.51439   0.73123  -0.02849   0.00000  Uiso   1.00
H613   H     0.39243   0.69498  -0.13130   0.00000  Uiso   1.00
H614   H     0.24605   0.54703  -0.21876   0.00000  Uiso   1.00
H615   H     0.22726   0.50465  -0.14673   0.00000  Uiso   1.00
H616   H     0.30707   0.54056  -0.04472   0.00000  Uiso   1.00
H617   H     0.32580   0.58284  -0.11602   0.00000  Uiso   1.00
H618   H     0.27065   0.49531  -0.01113   0.00000  Uiso   1.00
H619   H     0.31455   0.61862  -0.12404   0.00000  Uiso   1.00
H620   H     0.24303   0.69403  -0.20289   0.00000  Uiso   1.00
H621   H     0.22226   0.71586  -0.13113   0.00000  Uiso   1.00
H622   H     0.30522   0.77570  -0.05946   0.00000  Uiso   1.00
H623   H     0.32591   0.75359  -0.12987   0.00000  Uiso   1.00
H624   H     0.26590   0.77958  -0.02124   0.00000  Uiso   1.00
H625   H     0.31418   0.69983  -0.12259   0.00000  Uiso   1.00
H626   H     0.33490   0.67016  -0.37094   0.00000  Uiso   1.00
H627   H     0.84471   0.07670   0.47659   0.00000  Uiso   1.00
H628   H     0.93067   0.13944   0.52140   0.00000  Uiso   1.00
H629   H     0.91356   0.16224   0.60057   0.00000  Uiso   1.00
H630   H     0.82766   0.09948   0.55606   0.00000  Uiso   1.00
H631   H     0.86457   0.07336   0.97815   0.00000  Uiso   1.00
H632   H     0.92431   0.15854   1.03644   0.00000  Uiso   1.00
H633   H     0.90330   0.17651   0.95432   0.00000  Uiso   1.00
H634   H     0.84358   0.09134   0.89665   0.00000  Uiso   1.00
H635   H     0.88635   0.11759   0.67992   0.00000  Uiso   1.00
H636   H     0.84885   0.15800   1.00538   0.00000  Uiso   1.00
H637   H     0.88906   0.11698   0.81276   0.00000  Uiso   1.00
H638   H     0.84783   0.15586   0.49657   0.00000  Uiso   1.00
H639   H     0.84509   0.16058   0.74416   0.00000  Uiso   1.00
H640   H     0.78448   0.22119   0.82103   0.00000  Uiso   1.00
H641   H     0.82176   0.18504   0.50328   0.00000  Uiso   1.00
H642   H     0.78375   0.22377   0.68817   0.00000  Uiso   1.00
H643   H     0.82032   0.18467   0.99635   0.00000  Uiso   1.00
H644   H     0.74479   0.18037   1.02767   0.00000  Uiso   1.00
H645   H     0.80681   0.26588   0.97779   0.00000  Uiso   1.00
H646   H     0.82892   0.24829   0.89791   0.00000  Uiso   1.00
H647   H     0.76681   0.16283   0.94737   0.00000  Uiso   1.00
H648   H     0.74026   0.19925   0.52054   0.00000  Uiso   1.00
H649   H     0.82594   0.26015   0.46785   0.00000  Uiso   1.00
H650   H     0.84345   0.23845   0.54933   0.00000  Uiso   1.00
H651   H     0.75779   0.17763   0.60154   0.00000  Uiso   1.00
H652   H     0.82675   0.17920   0.74242   0.00000  Uiso   1.00
H653   H     0.07869   0.24037  -0.03668   0.00000  Uiso   1.00
H654   H     0.13125   0.20864   0.03872   0.00000  Uiso   1.00
H655   H     0.15309   0.24834   0.11845   0.00000  Uiso   1.00
H656   H     0.10031   0.27985   0.04373   0.00000  Uiso   1.00
H657   H     0.07046   0.21117   0.47938   0.00000  Uiso   1.00
H658   H     0.15583   0.24079   0.54456   0.00000  Uiso   1.00
H659   H     0.17321   0.27940   0.46156   0.00000  Uiso   1.00
H660   H     0.08779   0.24983   0.39732   0.00000  Uiso   1.00
H661   H     0.11145   0.23529   0.18395   0.00000  Uiso   1.00
H662   H     0.15575   0.31310   0.50905   0.00000  Uiso   1.00
H663   H     0.11162   0.23206   0.31661   0.00000  Uiso   1.00
H664   H     0.15204   0.31216   0.00024   0.00000  Uiso   1.00
H665   H     0.15641   0.31951   0.24770   0.00000  Uiso   1.00
H666   H     0.21681   0.44069   0.32519   0.00000  Uiso   1.00
H667   H     0.17994   0.36737   0.00727   0.00000  Uiso   1.00
H668   H     0.21662   0.44393   0.19246   0.00000  Uiso   1.00
H669   H     0.18349   0.36823   0.50042   0.00000  Uiso   1.00
H670   H     0.25491   0.43574   0.54053   0.00000  Uiso   1.00
H671   H     0.19944   0.46595   0.47739   0.00000  Uiso   1.00
H672   H     0.17699   0.42676   0.39638   0.00000  Uiso   1.00
H673   H     0.23261   0.39673   0.45913   0.00000  Uiso   1.00
H674   H     0.26198   0.46622   0.03663   0.00000  Uiso   1.00
H675   H     0.17800   0.43526  -0.04038   0.00000  Uiso   1.00
H676   H     0.15942   0.39608   0.04134   0.00000  Uiso   1.00
H677   H     0.24350   0.42701   0.11722   0.00000  Uiso   1.00
H678   H     0.17491   0.35646   0.24675   0.00000  Uiso   1.00
H679   H     0.57687   0.82339  -0.05204   0.00000  Uiso   1.00
H680   H     0.54092   0.73893   0.02514   0.00000  Uiso   1.00
H681   H     0.57965   0.75550   0.10744   0.00000  Uiso   1.00
H682   H     0.61534   0.83997   0.03091   0.00000  Uiso   1.00
H683   H     0.54357   0.80098   0.46482   0.00000  Uiso   1.00
H684   H     0.57039   0.74318   0.53038   0.00000  Uiso   1.00
H685   H     0.61012   0.76433   0.45005   0.00000  Uiso   1.00
H686   H     0.58335   0.82226   0.38542   0.00000  Uiso   1.00
H687   H     0.56825   0.78241   0.17219   0.00000  Uiso   1.00
H688   H     0.64470   0.81696   0.49909   0.00000  Uiso   1.00
H689   H     0.56465   0.77855   0.30476   0.00000  Uiso   1.00
H690   H     0.64635   0.82171  -0.00972   0.00000  Uiso   1.00
H691   H     0.65243   0.82222   0.23730   0.00000  Uiso   1.00
H692   H     0.77353   0.87885   0.31821   0.00000  Uiso   1.00
H693   H     0.70156   0.84850  -0.00052   0.00000  Uiso   1.00
H694   H     0.77712   0.88258   0.18563   0.00000  Uiso   1.00
H695   H     0.69999   0.84389   0.49261   0.00000  Uiso   1.00
H696   H     0.76633   0.84232   0.54463   0.00000  Uiso   1.00
H697   H     0.80057   0.92560   0.46121   0.00000  Uiso   1.00
H698   H     0.76137   0.90734   0.37990   0.00000  Uiso   1.00
H699   H     0.72741   0.82405   0.46259   0.00000  Uiso   1.00
H700   H     0.79838   0.86307   0.02196   0.00000  Uiso   1.00
H701   H     0.77039   0.92066  -0.03766   0.00000  Uiso   1.00
H702   H     0.73103   0.89852   0.04343   0.00000  Uiso   1.00
H703   H     0.75890   0.84078   0.10217   0.00000  Uiso   1.00
H704   H     0.68939   0.84015   0.23900   0.00000  Uiso   1.00
H705   H     0.74215   0.56858   0.46543   0.00000  Uiso   1.00
H706   H     0.79633   0.53789   0.53550   0.00000  Uiso   1.00
H707   H     0.81854   0.57762   0.61518   0.00000  Uiso   1.00
H708   H     0.76416   0.60809   0.54568   0.00000  Uiso   1.00
H709   H     0.73534   0.53821   0.97394   0.00000  Uiso   1.00
H710   H     0.81986   0.57164   1.04988   0.00000  Uiso   1.00
H711   H     0.83729   0.61021   0.96674   0.00000  Uiso   1.00
H712   H     0.75269   0.57680   0.89185   0.00000  Uiso   1.00
H713   H     0.77810   0.56410   0.68318   0.00000  Uiso   1.00
H714   H     0.81761   0.64204   1.00844   0.00000  Uiso   1.00
H715   H     0.77834   0.56098   0.81589   0.00000  Uiso   1.00
H716   H     0.81548   0.64101   0.49960   0.00000  Uiso   1.00
H717   H     0.82082   0.64837   0.74702   0.00000  Uiso   1.00
H718   H     0.88459   0.76960   0.82413   0.00000  Uiso   1.00
H719   H     0.84380   0.69619   0.50664   0.00000  Uiso   1.00
H720   H     0.88490   0.77281   0.69138   0.00000  Uiso   1.00
H721   H     0.84555   0.69717   0.99984   0.00000  Uiso   1.00
H722   H     0.91615   0.76313   1.04738   0.00000  Uiso   1.00
H723   H     0.86481   0.79608   0.97089   0.00000  Uiso   1.00
H724   H     0.84356   0.75716   0.88903   0.00000  Uiso   1.00
H725   H     0.89504   0.72435   0.96519   0.00000  Uiso   1.00
H726   H     0.92678   0.79499   0.53318   0.00000  Uiso   1.00
H727   H     0.84199   0.76442   0.46237   0.00000  Uiso   1.00
H728   H     0.82422   0.72520   0.54374   0.00000  Uiso   1.00
H729   H     0.90910   0.75563   0.61336   0.00000  Uiso   1.00
H730   H     0.83969   0.68537   0.74622   0.00000  Uiso   1.00
H731   H     0.23729   0.15592   0.44556   0.00000  Uiso   1.00
H732   H     0.20314   0.07194   0.52455   0.00000  Uiso   1.00
H733   H     0.24192   0.08960   0.60695   0.00000  Uiso   1.00
H734   H     0.27582   0.17360   0.52859   0.00000  Uiso   1.00
H735   H     0.20404   0.13306   0.96225   0.00000  Uiso   1.00
H736   H     0.23445   0.07850   1.03076   0.00000  Uiso   1.00
H737   H     0.27407   0.10066   0.95021   0.00000  Uiso   1.00
H738   H     0.24373   0.15538   0.88287   0.00000  Uiso   1.00
H739   H     0.22981   0.11640   0.67108   0.00000  Uiso   1.00
H740   H     0.30726   0.15328   0.99696   0.00000  Uiso   1.00
H741   H     0.22655   0.11285   0.80371   0.00000  Uiso   1.00
H742   H     0.30737   0.15610   0.48808   0.00000  Uiso   1.00
H743   H     0.31417   0.15751   0.73519   0.00000  Uiso   1.00
H744   H     0.43554   0.21337   0.81369   0.00000  Uiso   1.00
H745   H     0.36262   0.18307   0.49627   0.00000  Uiso   1.00
H746   H     0.43873   0.21654   0.68105   0.00000  Uiso   1.00
H747   H     0.36252   0.18039   0.98945   0.00000  Uiso   1.00
H748   H     0.42759   0.17688   1.04176   0.00000  Uiso   1.00
H749   H     0.46413   0.25994   0.95582   0.00000  Uiso   1.00
H750   H     0.42485   0.24237   0.87481   0.00000  Uiso   1.00
H751   H     0.38862   0.15928   0.95993   0.00000  Uiso   1.00
H752   H     0.45837   0.19569   0.51543   0.00000  Uiso   1.00
H753   H     0.43243   0.25524   0.45909   0.00000  Uiso   1.00
H754   H     0.39329   0.23368   0.54084   0.00000  Uiso   1.00
H755   H     0.41920   0.17410   0.59654   0.00000  Uiso   1.00
H756   H     0.35122   0.17563   0.73600   0.00000  Uiso   1.00
H757   H     0.70018   0.24470   0.21083   0.00000  Uiso   1.00
H758   H     0.72590   0.22761   0.14069   0.00000  Uiso   1.00
H759   H     0.77652   0.31097   0.05967   0.00000  Uiso   1.00
H760   H     0.75068   0.32799   0.12883   0.00000  Uiso   1.00
H761   H     0.78553   0.27481   0.02331   0.00000  Uiso   1.00
H762   H     0.69831   0.31264   0.12409   0.00000  Uiso   1.00
H763   H     0.57903   0.32171   0.11352   0.00000  Uiso   1.00
H764   H     0.53665   0.30368   0.04216   0.00000  Uiso   1.00
H765   H     0.49964   0.22379   0.14308   0.00000  Uiso   1.00
H766   H     0.54204   0.24174   0.21499   0.00000  Uiso   1.00
H767   H     0.49163   0.26796   0.00718   0.00000  Uiso   1.00
H768   H     0.61452   0.30987   0.12181   0.00000  Uiso   1.00
H769   H     0.75496   0.45843   0.22656   0.00000  Uiso   1.00
H770   H     0.77255   0.50129   0.15631   0.00000  Uiso   1.00
H771   H     0.69124   0.46563   0.06143   0.00000  Uiso   1.00
H772   H     0.67376   0.42297   0.13074   0.00000  Uiso   1.00
H773   H     0.72716   0.51059   0.02568   0.00000  Uiso   1.00
H774   H     0.69007   0.38825   0.12945   0.00000  Uiso   1.00
H775   H     0.66515   0.33136   0.37001   0.00000  Uiso   1.00
H776   H     0.75975   0.30405   0.28268   0.00000  Uiso   1.00
H777   H     0.77787   0.27929   0.35308   0.00000  Uiso   1.00
H778   H     0.69472   0.22761   0.43510   0.00000  Uiso   1.00
H779   H     0.67675   0.25250   0.36611   0.00000  Uiso   1.00
H780   H     0.73143   0.21971   0.47231   0.00000  Uiso   1.00
H781   H     0.69050   0.30371   0.37146   0.00000  Uiso   1.00
H782   H     0.54370   0.30065   0.27882   0.00000  Uiso   1.00
H783   H     0.50046   0.27540   0.34806   0.00000  Uiso   1.00
H784   H     0.53181   0.22368   0.43008   0.00000  Uiso   1.00
H785   H     0.57495   0.24892   0.36176   0.00000  Uiso   1.00
H786   H     0.48728   0.21584   0.46703   0.00000  Uiso   1.00
H787   H     0.61194   0.30152   0.36935   0.00000  Uiso   1.00
H788   H     0.69575   0.45604   0.28785   0.00000  Uiso   1.00
H789   H     0.71992   0.49849   0.35973   0.00000  Uiso   1.00
H790   H     0.76688   0.46408   0.45333   0.00000  Uiso   1.00
H791   H     0.74276   0.42177   0.38228   0.00000  Uiso   1.00
H792   H     0.77556   0.50903   0.48849   0.00000  Uiso   1.00
H793   H     0.69307   0.38498   0.37737   0.00000  Uiso   1.00
H794   H     0.66778   0.33560   0.12788   0.00000  Uiso   1.00
H795   H    -0.08543   0.90890   0.13659   0.00000  Uiso   1.00
H796   H    -0.11084   0.86600   0.06734   0.00000  Uiso   1.00
H797   H    -0.05893   0.83448   0.14709   0.00000  Uiso   1.00
H798   H    -0.03353   0.87742   0.21718   0.00000  Uiso   1.00
H799   H    -0.11758   0.82263   0.02622   0.00000  Uiso   1.00
H800   H    -0.03309   0.94574   0.12801   0.00000  Uiso   1.00
H801   H    -0.09225   0.87613   0.28350   0.00000  Uiso   1.00
H802   H    -0.11013   0.83367   0.35506   0.00000  Uiso   1.00
H803   H    -0.02912   0.86962   0.45154   0.00000  Uiso   1.00
H804   H    -0.01128   0.91194   0.38058   0.00000  Uiso   1.00
H805   H    -0.06509   0.82444   0.48659   0.00000  Uiso   1.00
H806   H    -0.02356   0.94784   0.37534   0.00000  Uiso   1.00
H807   H     0.91440   0.99049   0.61989   0.00000  Uiso   1.00
H808   H     0.87180   0.97119   0.54915   0.00000  Uiso   1.00
H809   H     0.83830   0.89090   0.64683   0.00000  Uiso   1.00
H810   H     0.88100   0.91013   0.71817   0.00000  Uiso   1.00
H811   H     0.82773   0.93433   0.51316   0.00000  Uiso   1.00
H812   H     0.95087   0.98016   0.62391   0.00000  Uiso   1.00
H813   H     0.88097   0.96781   0.78250   0.00000  Uiso   1.00
H814   H     0.83833   0.94196   0.85325   0.00000  Uiso   1.00
H815   H     0.87303   0.89360   0.93783   0.00000  Uiso   1.00
H816   H     0.91563   0.91947   0.86784   0.00000  Uiso   1.00
H817   H     0.82787   0.88425   0.97484   0.00000  Uiso   1.00
H818   H     0.95156   0.97123   0.87097   0.00000  Uiso   1.00
H819   H     0.96776   0.09194   0.22017   0.00000  Uiso   1.00
H820   H     0.94294   0.11006   0.14994   0.00000  Uiso   1.00
H821   H     0.89242   0.02751   0.06447   0.00000  Uiso   1.00
H822   H     0.91734   0.00953   0.13338   0.00000  Uiso   1.00
H823   H     0.88449   0.06426   0.02768   0.00000  Uiso   1.00
H824   H     0.96812   0.02350   0.12837   0.00000  Uiso   1.00
H825   H     1.00167   0.00107   0.36994   0.00000  Uiso   1.00
H826   H     0.90925   0.03263   0.28975   0.00000  Uiso   1.00
H827   H     0.89200   0.05799   0.36057   0.00000  Uiso   1.00
H828   H     0.97523   0.10777   0.44363   0.00000  Uiso   1.00
H829   H     0.99238   0.08229   0.37387   0.00000  Uiso   1.00
H830   H     0.93920   0.11727   0.47878   0.00000  Uiso   1.00
H831   H     0.97797   0.03088   0.37563   0.00000  Uiso   1.00
H832   H     0.09122   0.12881   0.72267   0.00000  Uiso   1.00
H833   H     0.10862   0.17182   0.65304   0.00000  Uiso   1.00
H834   H     0.02554   0.13885   0.56926   0.00000  Uiso   1.00
H835   H     0.00823   0.09598   0.63802   0.00000  Uiso   1.00
H836   H     0.06193   0.18311   0.53052   0.00000  Uiso   1.00
H837   H     0.02524   0.06037   0.62943   0.00000  Uiso   1.00
H838   H     0.00483   0.00269   0.86809   0.00000  Uiso   1.00
H839   H     0.03238   0.12765   0.78770   0.00000  Uiso   1.00
H840   H     0.05633   0.16999   0.85972   0.00000  Uiso   1.00
H841   H     0.10233   0.13510   0.95587   0.00000  Uiso   1.00
H842   H     0.07846   0.09286   0.88443   0.00000  Uiso   1.00
H843   H     0.11093   0.18003   0.99078   0.00000  Uiso   1.00
H844   H     0.03094   0.05613   0.87670   0.00000  Uiso   1.00
H845   H     0.12234   0.03165   0.20864   0.00000  Uiso   1.00
H846   H     0.16484   0.05643   0.13705   0.00000  Uiso   1.00
H847   H     0.12887   0.10167   0.04199   0.00000  Uiso   1.00
H848   H     0.08645   0.07691   0.11289   0.00000  Uiso   1.00
H849   H     0.17440   0.11136   0.00764   0.00000  Uiso   1.00
H850   H     0.05014   0.02749   0.11938   0.00000  Uiso   1.00
H851   H     0.12330   0.09010   0.27052   0.00000  Uiso   1.00
H852   H     0.16622   0.10839   0.34113   0.00000  Uiso   1.00
H853   H     0.13247   0.02686   0.43327   0.00000  Uiso   1.00
H854   H     0.08978   0.00867   0.36352   0.00000  Uiso   1.00
H855   H     0.17650   0.06342   0.47095   0.00000  Uiso   1.00
H856   H     0.05434   0.02419   0.36711   0.00000  Uiso   1.00
H857   H    -0.00356  -0.00107   0.12790   0.00000  Uiso   1.00
H858   H     0.04185   0.92071   0.71065   0.00000  Uiso   1.00
H859   H     0.06404   0.90070   0.63797   0.00000  Uiso   1.00
H860   H     0.10710   0.97900   0.53024   0.00000  Uiso   1.00
H861   H     0.08475   0.99899   0.60237   0.00000  Uiso   1.00
H862   H     0.11505   0.94121   0.49855   0.00000  Uiso   1.00
H863   H     0.03441   0.98515   0.61642   0.00000  Uiso   1.00
H864   H     0.10321   0.98497   0.74636   0.00000  Uiso   1.00
H865   H     0.13134   0.96851   0.80848   0.00000  Uiso   1.00
H866   H     0.06127   0.92134   0.94059   0.00000  Uiso   1.00
H867   H     0.03298   0.93775   0.87866   0.00000  Uiso   1.00
H868   H     0.13157   0.93601   0.88130   0.00000  Uiso   1.00
H869   H     0.10031   0.91181   0.92871   0.00000  Uiso   1.00
H870   H     0.12342   0.94750   0.95911   0.00000  Uiso   1.00
H871   H     0.03528   0.98033   0.86460   0.00000  Uiso   1.00
H872   H     0.00386   1.00774   0.62619   0.00000  Uiso   1.00
loop_
_geom_bond_atom_site_label_1
_geom_bond_atom_site_label_2
_geom_bond_distance
_geom_bond_site_symmetry_2
_ccdc_geom_bond_type
N1     C3      1.431   .     D
N1     C110    1.296   .     S
C2     C3      1.399   .     S
C2     C7      1.398   .     D
C2     H561    1.140   .     S
C3     C4      1.405   .     S
C4     C5      1.394   .     D
C4     H562    1.140   .     S
C5     C6      1.400   .     S
C5     H563    1.140   .     S
C6     C7      1.401   .     S
C6     C20     1.479   .     D
C7     H564    1.140   .     S
N8     C10     1.434   .     D
N8     C79     1.296   1_556 S
C9     C10     1.405   .     S
C9     C14     1.394   .     D
C9     H565    1.140   .     S
C10    C11     1.400   .     S
C11    C12     1.400   .     D
C11    H566    1.140   .     S
C12    C13     1.401   .     S
C12    H567    1.140   .     S
C13    C14     1.401   .     S
C13    C15     1.486   .     D
C14    H568    1.140   .     S
C15    C18     1.404   .     S
C15    C21     1.409   .     S
C16    C17     1.384   .     D
C16    C20     1.407   .     S
C16    N25     1.351   .     S
C17    C22     1.370   .     S
C17    H569    1.140   .     S
C18    C19     1.462   .     S
C18    N52     1.352   .     D
C19    C35     1.319   .     D
C19    H570    1.140   .     S
C20    C23     1.403   .     S
C21    C22     1.385   .     D
C21    N25     1.353   .     S
C22    H571    1.140   .     S
C23    C24     1.462   .     S
C23    N51     1.349   .     D
C24    C30     1.319   .     D
C24    H572    1.140   .     S
N25    H573    1.110   .     S
C26    C29     1.405   .     D
C26    C32     1.408   .     S
C26    C48     1.483   .     S
C27    C28     1.385   .     D
C27    C31     1.409   .     S
C27    N50     1.351   .     S
C28    C33     1.371   .     S
C28    H574    1.140   .     S
C29    C30     1.463   .     S
C29    N51     1.350   .     S
C30    H575    1.140   .     S
C31    C34     1.406   .     D
C31    C41     1.481   .     S
C32    C33     1.383   .     D
C32    N50     1.353   .     S
C33    H576    1.140   .     S
C34    C35     1.463   .     S
C34    N52     1.351   .     S
C35    H577    1.140   .     S
N36    C38     1.431   .     S
N36    C546    1.295   .     D
C37    C38     1.398   .     S
C37    C42     1.397   .     D
C37    H578    1.140   .     S
C38    C39     1.403   .     D
C39    C40     1.395   .     S
C39    H579    1.140   .     S
C40    C41     1.401   .     D
C40    H580    1.140   .     S
C41    C42     1.400   .     S
C42    H581    1.140   .     S
N43    C45     1.422   .     S
N43    H582    1.110   .     S
N43    H583    1.110   .     S
C44    C45     1.398   .     D
C44    C49     1.398   .     S
C44    H584    1.140   .     S
C45    C46     1.399   .     S
C46    C47     1.398   .     D
C46    H585    1.140   .     S
C47    C48     1.403   .     S
C47    H586    1.140   .     S
C48    C49     1.403   .     D
C49    H587    1.140   .     S
N50    H588    1.110   .     S
C53    C54     1.403   .     S
C53    C58     1.401   .     D
C53    C60     1.476   .     S
C54    C55     1.399   .     D
C54    H589    1.140   .     S
C55    C56     1.402   .     S
C55    H590    1.140   .     S
C56    C57     1.397   .     D
C56    C59     1.464   .     S
C57    C58     1.395   .     S
C57    H591    1.140   .     S
C58    H592    1.140   .     S
C59    H593    1.140   .     S
C59    N226    1.296   1_554 D
C60    C61     1.410   .     S
C60    C91     1.427   .     D
C61    C62     1.393   .     D
C61    H594    1.140   .     S
C62    C93     1.414   .     S
C62    C114    1.532   .     S
C63    C64     1.400   .     D
C63    C68     1.402   .     S
C63    C70     1.471   .     S
C64    C65     1.394   .     S
C64    H595    1.140   .     S
C65    C66     1.395   .     D
C65    H596    1.140   .     S
C66    C67     1.402   .     S
C66    C69     1.463   .     S
C67    C68     1.399   .     D
C67    H597    1.140   .     S
C68    H598    1.140   .     S
C69    H599    1.140   .     S
C69    N202    1.296   1_554 D
C70    C71     1.406   .     S
C70    C101    1.427   .     D
C71    C72     1.389   .     D
C71    H600    1.140   .     S
C72    C103    1.415   .     S
C72    C114    1.526   .     S
C73    C74     1.405   .     S
C73    C78     1.401   .     S
C73    C80     1.478   .     D
C74    C75     1.401   .     D
C74    H601    1.140   .     S
C75    C76     1.403   .     S
C75    H602    1.140   .     S
C76    C77     1.397   .     S
C76    C79     1.466   .     D
C77    C78     1.395   .     D
C77    H603    1.140   .     S
C78    H604    1.140   .     S
C79    H605    1.140   .     S
C79    N8      1.296   1_554 S
C80    C81     1.405   .     S
C80    C111    1.425   .     S
C81    C82     1.391   .     D
C81    H606    1.140   .     S
C82    C113    1.415   .     S
C82    C114    1.521   .     S
C83    C93     1.520   .     S
C83    C103    1.526   .     S
C83    C113    1.531   .     S
C83    H607    1.140   .     S
C84    C85     1.404   .     S
C84    C89     1.400   .     D
C84    C91     1.477   .     S
C85    C86     1.401   .     D
C85    H608    1.140   .     S
C86    C87     1.403   .     S
C86    H609    1.140   .     S
C87    C88     1.396   .     D
C87    C90     1.465   .     S
C88    C89     1.393   .     S
C88    H610    1.140   .     S
C89    H611    1.140   .     S
C90    N219    1.297   .     D
C90    H612    1.140   .     S
C91    C92     1.404   .     S
C92    C93     1.387   .     D
C92    H613    1.140   .     S
C94    C95     1.404   .     D
C94    C99     1.402   .     S
C94    C101    1.480   .     S
C95    C96     1.400   .     S
C95    H614    1.140   .     S
C96    C97     1.403   .     D
C96    H615    1.140   .     S
C97    C98     1.397   .     S
C97    C100    1.465   .     S
C98    C99     1.395   .     D
C98    H616    1.140   .     S
C99    H617    1.140   .     S
C100   N209    1.297   .     D
C100   H618    1.140   .     S
C101   C102    1.408   .     S
C102   C103    1.390   .     D
C102   H619    1.140   .     S
C104   C105    1.402   .     S
C104   C109    1.400   .     S
C104   C111    1.471   .     D
C105   C106    1.398   .     D
C105   H620    1.140   .     S
C106   C107    1.402   .     S
C106   H621    1.140   .     S
C107   C108    1.396   .     S
C107   C110    1.464   .     D
C108   C109    1.395   .     D
C108   H622    1.140   .     S
C109   H623    1.140   .     S
C110   H624    1.140   .     S
C111   C112    1.408   .     S
C112   C113    1.391   .     D
C112   H625    1.140   .     S
C114   H626    1.140   .     S
N115   C117    1.433   .     S
N115   C494    1.295   .     D
C116   C117    1.398   .     S
C116   C121    1.398   .     D
C116   H627    1.140   .     S
C117   C118    1.405   .     D
C118   C119    1.395   .     S
C118   H628    1.140   .     S
C119   C120    1.401   .     D
C119   H629    1.140   .     S
C120   C121    1.401   .     S
C120   C134    1.481   .     S
C121   H630    1.140   .     S
N122   C124    1.434   .     S
N122   C483    1.297   1_556 D
C123   C124    1.406   .     D
C123   C128    1.396   .     S
C123   H631    1.140   .     S
C124   C125    1.399   .     S
C125   C126    1.400   .     D
C125   H632    1.140   .     S
C126   C127    1.402   .     S
C126   H633    1.140   .     S
C127   C128    1.401   .     D
C127   C129    1.486   .     S
C128   H634    1.140   .     S
C129   C132    1.404   .     D
C129   C135    1.409   .     S
C130   C131    1.384   .     D
C130   C134    1.409   .     S
C130   N139    1.352   .     S
C131   C136    1.370   .     S
C131   H635    1.139   .     S
C132   C133    1.463   .     S
C132   N166    1.351   .     S
C133   C149    1.319   .     D
C133   H636    1.140   .     S
C134   C137    1.404   .     D
C135   C136    1.383   .     D
C135   N139    1.354   .     S
C136   H637    1.140   .     S
C137   C138    1.463   .     S
C137   N165    1.350   .     S
C138   C144    1.318   .     D
C138   H638    1.140   .     S
N139   H639    1.110   .     S
C140   C143    1.405   .     S
C140   C146    1.409   .     S
C140   C162    1.485   .     D
C141   C142    1.384   .     D
C141   C145    1.409   .     S
C141   N164    1.352   .     S
C142   C147    1.370   .     S
C142   H640    1.140   .     S
C143   C144    1.463   .     S
C143   N165    1.351   .     D
C144   H641    1.140   .     S
C145   C148    1.405   .     S
C145   C155    1.481   .     D
C146   C147    1.384   .     D
C146   N164    1.353   .     S
C147   H642    1.140   .     S
C148   C149    1.464   .     S
C148   N166    1.349   .     D
C149   H643    1.140   .     S
N150   C152    1.432   .     D
N150   C381    1.295   1_556 S
C151   C152    1.399   .     S
C151   C156    1.398   .     D
C151   H644    1.140   .     S
C152   C153    1.405   .     S
C153   C154    1.395   .     D
C153   H645    1.140   .     S
C154   C155    1.400   .     S
C154   H646    1.140   .     S
C155   C156    1.401   .     S
C156   H647    1.140   .     S
N157   C159    1.435   .     D
N157   C412    1.297   .     S
C158   C159    1.406   .     S
C158   C163    1.397   .     D
C158   H648    1.140   .     S
C159   C160    1.399   .     S
C160   C161    1.400   .     D
C160   H649    1.140   .     S
C161   C162    1.402   .     S
C161   H650    1.140   .     S
C162   C163    1.401   .     S
C163   H651    1.140   .     S
N164   H652    1.110   .     S
N167   C169    1.433   .     D
N167   C515    1.297   1_554 S
C168   C169    1.400   .     S
C168   C173    1.399   .     D
C168   H653    1.140   .     S
C169   C170    1.405   .     S
C170   C171    1.394   .     D
C170   H654    1.140   .     S
C171   C172    1.403   .     S
C171   H655    1.140   .     S
C172   C173    1.403   .     S
C172   C186    1.486   .     D
C173   H656    1.140   .     S
N174   C176    1.433   .     D
N174   C504    1.297   .     S
C175   C176    1.405   .     S
C175   C180    1.396   .     D
C175   H657    1.140   .     S
C176   C177    1.400   .     S
C177   C178    1.399   .     D
C177   H658    1.140   .     S
C178   C179    1.404   .     S
C178   H659    1.140   .     S
C179   C180    1.402   .     S
C179   C181    1.488   .     D
C180   H660    1.140   .     S
C181   C184    1.405   .     S
C181   C187    1.410   .     S
C182   C183    1.385   .     D
C182   C186    1.411   .     S
C182   N191    1.353   .     S
C183   C188    1.368   .     S
C183   H661    1.140   .     S
C184   C185    1.463   .     S
C184   N218    1.351   .     D
C185   C201    1.317   .     D
C185   H662    1.140   .     S
C186   C189    1.407   .     S
C187   C188    1.384   .     D
C187   N191    1.353   .     S
C188   H663    1.140   .     S
C189   C190    1.463   .     S
C189   N217    1.350   .     D
C190   C196    1.318   .     D
C190   H664    1.140   .     S
N191   H665    1.110   .     S
C192   C195    1.406   .     D
C192   C198    1.411   .     S
C192   C214    1.489   .     S
C193   C194    1.384   .     D
C193   C197    1.410   .     S
C193   N216    1.353   .     S
C194   C199    1.369   .     S
C194   H666    1.140   .     S
C195   C196    1.463   .     S
C195   N217    1.351   .     S
C196   H667    1.140   .     S
C197   C200    1.406   .     D
C197   C207    1.486   .     S
C198   C199    1.384   .     D
C198   N216    1.353   .     S
C199   H668    1.140   .     S
C200   C201    1.463   .     S
C200   N218    1.350   .     S
C201   H669    1.140   .     S
N202   C204    1.432   .     S
N202   C69     1.296   1_556 D
C203   C204    1.399   .     S
C203   C208    1.398   .     D
C203   H670    1.140   .     S
C204   C205    1.404   .     D
C205   C206    1.395   .     S
C205   H671    1.141   .     S
C206   C207    1.402   .     D
C206   H672    1.140   .     S
C207   C208    1.404   .     S
C208   H673    1.140   .     S
N209   C211    1.433   .     S
C210   C211    1.405   .     S
C210   C215    1.395   .     D
C210   H674    1.140   .     S
C211   C212    1.400   .     D
C212   C213    1.400   .     S
C212   H675    1.140   .     S
C213   C214    1.404   .     D
C213   H676    1.140   .     S
C214   C215    1.402   .     S
C215   H677    1.140   .     S
N216   H678    1.110   .     S
N219   C221    1.434   .     S
C220   C221    1.401   .     S
C220   C225    1.399   .     D
C220   H679    1.140   .     S
C221   C222    1.405   .     D
C222   C223    1.395   .     S
C222   H680    1.140   .     S
C223   C224    1.403   .     D
C223   H681    1.140   .     S
C224   C225    1.405   .     S
C224   C238    1.491   .     S
C225   H682    1.140   .     S
N226   C228    1.433   .     S
N226   C59     1.296   1_556 D
C227   C228    1.404   .     D
C227   C232    1.395   .     S
C227   H683    1.140   .     S
C228   C229    1.398   .     S
C229   C230    1.399   .     D
C229   H684    1.140   .     S
C230   C231    1.403   .     S
C230   H685    1.140   .     S
C231   C232    1.402   .     D
C231   C233    1.486   .     S
C232   H686    1.140   .     S
C233   C236    1.406   .     D
C233   C239    1.410   .     S
C234   C235    1.384   .     D
C234   C238    1.411   .     S
C234   N243    1.354   .     S
C235   C240    1.368   .     S
C235   H687    1.140   .     S
C236   C237    1.463   .     S
C236   N270    1.350   .     S
C237   C253    1.317   .     D
C237   H688    1.140   .     S
C238   C241    1.407   .     D
C239   C240    1.384   .     D
C239   N243    1.352   .     S
C240   H689    1.140   .     S
C241   C242    1.463   .     S
C241   N269    1.351   .     S
C242   C248    1.317   .     D
C242   H690    1.140   .     S
N243   H691    1.110   .     S
C244   C247    1.405   .     S
C244   C250    1.410   .     S
C244   C266    1.485   .     D
C245   C246    1.384   .     D
C245   C249    1.412   .     S
C245   N268    1.353   .     S
C246   C251    1.368   .     S
C246   H692    1.140   .     S
C247   C248    1.463   .     S
C247   N269    1.350   .     D
C248   H693    1.140   .     S
C249   C252    1.407   .     S
C249   C259    1.491   .     D
C250   C251    1.384   .     D
C250   N268    1.353   .     S
C251   H694    1.140   .     S
C252   C253    1.463   .     S
C252   N270    1.351   .     D
C253   H695    1.140   .     S
N254   C256    1.433   .     D
N254   C463    1.298   .     S
C255   C256    1.401   .     S
C255   C260    1.399   .     D
C255   H696    1.140   .     S
C256   C257    1.406   .     S
C257   C258    1.395   .     D
C257   H697    1.140   .     S
C258   C259    1.404   .     S
C258   H698    1.140   .     S
C259   C260    1.405   .     S
C260   H699    1.140   .     S
N261   C263    1.432   .     D
N261   C473    1.296   1_554 S
C262   C263    1.405   .     S
C262   C267    1.396   .     D
C262   H700    1.140   .     S
C263   C264    1.398   .     S
C264   C265    1.398   .     D
C264   H701    1.140   .     S
C265   C266    1.402   .     S
C265   H702    1.140   .     S
C266   C267    1.401   .     S
C267   H703    1.140   .     S
N268   H704    1.110   .     S
N271   C273    1.434   .     S
N271   C432    1.296   .     D
C272   C273    1.400   .     S
C272   C277    1.399   .     D
C272   H705    1.140   .     S
C273   C274    1.405   .     D
C274   C275    1.395   .     S
C274   H706    1.140   .     S
C275   C276    1.403   .     D
C275   H707    1.140   .     S
C276   C277    1.403   .     S
C276   C290    1.489   .     S
C277   H708    1.140   .     S
N278   C280    1.434   .     S
N278   C401    1.297   1_556 D
C279   C280    1.406   .     D
C279   C284    1.395   .     S
C279   H709    1.140   .     S
C280   C281    1.401   .     S
C281   C282    1.400   .     D
C281   H710    1.140   .     S
C282   C283    1.405   .     S
C282   H711    1.140   .     S
C283   C284    1.403   .     D
C283   C285    1.490   .     S
C284   H712    1.140   .     S
C285   C288    1.405   .     D
C285   C291    1.412   .     S
C286   C287    1.384   .     D
C286   C290    1.411   .     S
C286   N295    1.353   .     S
C287   C292    1.368   .     S
C287   H713    1.140   .     S
C288   C289    1.464   .     S
C288   N322    1.353   .     S
C289   C305    1.317   .     D
C289   H714    1.140   .     S
C290   C293    1.406   .     D
C291   C292    1.383   .     D
C291   N295    1.353   .     S
C292   H715    1.140   .     S
C293   C294    1.462   .     S
C293   N321    1.351   .     S
C294   C300    1.318   .     D
C294   H716    1.140   .     S
N295   H717    1.110   .     S
C296   C299    1.407   .     S
C296   C302    1.411   .     S
C296   C318    1.490   .     D
C297   C298    1.384   .     D
C297   C301    1.411   .     S
C297   N320    1.352   .     S
C298   C303    1.368   .     S
C298   H718    1.140   .     S
C299   C300    1.461   .     S
C299   N321    1.352   .     D
C300   H719    1.140   .     S
C301   C304    1.406   .     S
C301   C311    1.486   .     D
C302   C303    1.384   .     D
C302   N320    1.354   .     S
C303   H720    1.140   .     S
C304   C305    1.465   .     S
C304   N322    1.351   .     D
C305   H721    1.140   .     S
N306   C308    1.432   .     D
N306   C443    1.296   1_656 S
C307   C308    1.399   .     S
C307   C312    1.399   .     D
C307   H722    1.140   .     S
C308   C309    1.405   .     S
C309   C310    1.395   .     D
C309   H723    1.140   .     S
C310   C311    1.402   .     S
C310   H724    1.140   .     S
C311   C312    1.404   .     S
C312   H725    1.140   .     S
N313   C315    1.433   .     D
N313   C453    1.296   1_655 S
C314   C315    1.405   .     S
C314   C319    1.396   .     D
C314   H726    1.140   .     S
C315   C316    1.400   .     S
C316   C317    1.399   .     D
C316   H727    1.140   .     S
C317   C318    1.403   .     S
C317   H728    1.140   .     S
C318   C319    1.403   .     S
C319   H729    1.140   .     S
N320   H730    1.110   .     S
N323   C325    1.433   .     S
N323   C535    1.297   .     D
C324   C325    1.401   .     S
C324   C329    1.399   .     D
C324   H731    1.140   .     S
C325   C326    1.405   .     D
C326   C327    1.395   .     S
C326   H732    1.140   .     S
C327   C328    1.403   .     D
C327   H733    1.140   .     S
C328   C329    1.405   .     S
C328   C342    1.490   .     S
C329   H734    1.140   .     S
N330   C332    1.433   .     S
N330   C525    1.297   1_556 D
C331   C332    1.405   .     D
C331   C336    1.395   .     S
C331   H735    1.140   .     S
C332   C333    1.399   .     S
C333   C334    1.400   .     D
C333   H736    1.140   .     S
C334   C335    1.403   .     S
C334   H737    1.140   .     S
C335   C336    1.402   .     D
C335   C337    1.488   .     S
C336   H738    1.140   .     S
C337   C340    1.406   .     D
C337   C343    1.411   .     S
C338   C339    1.384   .     D
C338   C342    1.411   .     S
C338   N347    1.354   .     S
C339   C344    1.368   .     S
C339   H739    1.140   .     S
C340   C341    1.462   .     S
C340   N374    1.351   .     S
C341   C357    1.318   .     D
C341   H740    1.140   .     S
C342   C345    1.407   .     D
C343   C344    1.385   .     D
C343   N347    1.353   .     S
C344   H741    1.140   .     S
C345   C346    1.463   .     S
C345   N373    1.351   .     S
C346   C352    1.317   .     D
C346   H742    1.140   .     S
N347   H743    1.110   .     S
C348   C351    1.405   .     S
C348   C354    1.410   .     S
C348   C370    1.485   .     D
C349   C350    1.384   .     D
C349   C353    1.412   .     S
C349   N372    1.353   .     S
C350   C355    1.368   .     S
C350   H744    1.140   .     S
C351   C352    1.463   .     S
C351   N373    1.350   .     D
C352   H745    1.140   .     S
C353   C356    1.408   .     S
C353   C363    1.492   .     D
C354   C355    1.384   .     D
C354   N372    1.353   .     S
C355   H746    1.140   .     S
C356   C357    1.463   .     S
C356   N374    1.351   .     D
C357   H747    1.140   .     S
N358   C360    1.433   .     D
N358   C391    1.297   1_556 S
C359   C360    1.401   .     S
C359   C364    1.400   .     D
C359   H748    1.140   .     S
C360   C361    1.405   .     S
C361   C362    1.394   .     D
C361   H749    1.140   .     S
C362   C363    1.404   .     S
C362   H750    1.140   .     S
C363   C364    1.405   .     S
C364   H751    1.140   .     S
N365   C367    1.434   .     D
N365   C422    1.296   .     S
C366   C367    1.404   .     S
C366   C371    1.396   .     D
C366   H752    1.140   .     S
C367   C368    1.399   .     S
C368   C369    1.398   .     D
C368   H753    1.140   .     S
C369   C370    1.402   .     S
C369   H754    1.140   .     S
C370   C371    1.402   .     S
C371   H755    1.140   .     S
N372   H756    1.110   .     S
C375   C376    1.402   .     S
C375   C380    1.400   .     S
C375   C382    1.473   .     D
C376   C377    1.398   .     D
C376   H757    1.140   .     S
C377   C378    1.402   .     S
C377   H758    1.140   .     S
C378   C379    1.396   .     S
C378   C381    1.463   .     D
C379   C380    1.395   .     D
C379   H759    1.140   .     S
C380   H760    1.140   .     S
C381   H761    1.140   .     S
C381   N150    1.295   1_554 S
C382   C383    1.409   .     S
C382   C413    1.426   .     S
C383   C384    1.390   .     D
C383   H762    1.140   .     S
C384   C415    1.415   .     S
C384   C436    1.532   .     S
C385   C386    1.401   .     S
C385   C390    1.405   .     S
C385   C392    1.480   .     D
C386   C387    1.394   .     D
C386   H763    1.140   .     S
C387   C388    1.396   .     S
C387   H764    1.140   .     S
C388   C389    1.402   .     S
C388   C391    1.465   .     D
C389   C390    1.400   .     D
C389   H765    1.140   .     S
C390   H766    1.140   .     S
C391   H767    1.140   .     S
C391   N358    1.297   1_554 S
C392   C393    1.408   .     S
C392   C423    1.427   .     S
C393   C394    1.391   .     D
C393   H768    1.140   .     S
C394   C425    1.414   .     S
C394   C436    1.526   .     S
C395   C396    1.404   .     S
C395   C400    1.401   .     D
C395   C402    1.479   .     S
C396   C397    1.401   .     D
C396   H769    1.140   .     S
C397   C398    1.404   .     S
C397   H770    1.140   .     S
C398   C399    1.396   .     D
C398   C401    1.465   .     S
C399   C400    1.394   .     S
C399   H771    1.140   .     S
C400   H772    1.140   .     S
C401   H773    1.140   .     S
C401   N278    1.297   1_554 D
C402   C403    1.405   .     S
C402   C433    1.427   .     D
C403   C404    1.389   .     D
C403   H774    1.140   .     S
C404   C435    1.414   .     S
C404   C436    1.520   .     S
C405   C415    1.521   .     S
C405   C425    1.527   .     S
C405   C435    1.532   .     S
C405   H775    1.140   .     S
C406   C407    1.404   .     S
C406   C411    1.401   .     S
C406   C413    1.479   .     D
C407   C408    1.401   .     D
C407   H776    1.140   .     S
C408   C409    1.403   .     S
C408   H777    1.140   .     S
C409   C410    1.397   .     S
C409   C412    1.467   .     D
C410   C411    1.395   .     D
C410   H778    1.140   .     S
C411   H779    1.140   .     S
C412   H780    1.140   .     S
C413   C414    1.405   .     S
C414   C415    1.390   .     D
C414   H781    1.140   .     S
C416   C417    1.403   .     S
C416   C421    1.401   .     S
C416   C423    1.473   .     D
C417   C418    1.400   .     D
C417   H782    1.140   .     S
C418   C419    1.403   .     S
C418   H783    1.140   .     S
C419   C420    1.397   .     S
C419   C422    1.464   .     D
C420   C421    1.394   .     D
C420   H784    1.140   .     S
C421   H785    1.140   .     S
C422   H786    1.140   .     S
C423   C424    1.406   .     S
C424   C425    1.389   .     D
C424   H787    1.140   .     S
C426   C427    1.403   .     S
C426   C431    1.401   .     D
C426   C433    1.477   .     S
C427   C428    1.400   .     D
C427   H788    1.140   .     S
C428   C429    1.402   .     S
C428   H789    1.140   .     S
C429   C430    1.396   .     D
C429   C432    1.465   .     S
C430   C431    1.394   .     S
C430   H790    1.140   .     S
C431   H791    1.139   .     S
C432   H792    1.140   .     S
C433   C434    1.410   .     S
C434   C435    1.392   .     D
C434   H793    1.140   .     S
C436   H794    1.140   .     S
C437   C438    1.399   .     S
C437   C442    1.402   .     S
C437   C444    1.474   .     D
C438   C439    1.394   .     D
C438   H795    1.140   .     S
C439   C440    1.395   .     S
C439   H796    1.140   .     S
C440   C441    1.403   .     S
C440   C443    1.464   .     D
C441   C442    1.400   .     D
C441   H797    1.140   .     S
C442   H798    1.140   .     S
C443   H799    1.140   .     S
C443   N306    1.296   1_454 S
C444   C445    1.406   .     S
C444   C454    1.427   .     S
C445   C446    1.389   .     D
C445   H800    1.140   .     S
C446   C456    1.416   .     S
C446   C539    1.526   1_565 S
C447   C448    1.405   .     S
C447   C452    1.401   .     S
C447   C454    1.479   .     D
C448   C449    1.400   .     D
C448   H801    1.140   .     S
C449   C450    1.403   .     S
C449   H802    1.140   .     S
C450   C451    1.397   .     S
C450   C453    1.466   .     D
C451   C452    1.396   .     D
C451   H803    1.140   .     S
C452   H804    1.140   .     S
C453   H805    1.140   .     S
C453   N313    1.296   1_455 S
C454   C455    1.407   .     S
C455   C456    1.392   .     D
C455   H806    1.140   .     S
C456   C487    1.526   1_465 S
C457   C458    1.401   .     S
C457   C462    1.404   .     S
C457   C464    1.480   .     D
C458   C459    1.394   .     D
C458   H807    1.140   .     S
C459   C460    1.395   .     S
C459   H808    1.140   .     S
C460   C461    1.402   .     S
C460   C463    1.465   .     D
C461   C462    1.401   .     D
C461   H809    1.140   .     S
C462   H810    1.140   .     S
C463   H811    1.140   .     S
C464   C465    1.406   .     S
C464   C474    1.427   .     S
C465   C466    1.389   .     D
C465   H812    1.140   .     S
C466   C476    1.414   .     S
C466   C560    1.522   1_655 S
C467   C468    1.402   .     S
C467   C472    1.400   .     S
C467   C474    1.474   .     D
C468   C469    1.398   .     D
C468   H813    1.140   .     S
C469   C470    1.402   .     S
C469   H814    1.140   .     S
C470   C471    1.397   .     S
C470   C473    1.463   .     D
C471   C472    1.395   .     D
C471   H815    1.140   .     S
C472   H816    1.140   .     S
C473   H817    1.140   .     S
C473   N261    1.296   1_556 S
C474   C475    1.408   .     S
C475   C476    1.391   .     D
C475   H818    1.140   .     S
C476   C508    1.529   1_665 S
C477   C478    1.404   .     S
C477   C482    1.401   .     D
C477   C484    1.478   .     S
C478   C479    1.401   .     D
C478   H819    1.140   .     S
C479   C480    1.403   .     S
C479   H820    1.140   .     S
C480   C481    1.397   .     D
C480   C483    1.467   .     S
C481   C482    1.395   .     S
C481   H821    1.140   .     S
C482   H822    1.140   .     S
C483   H823    1.140   .     S
C483   N122    1.297   1_554 D
C484   C485    1.405   .     S
C484   C495    1.427   .     D
C485   C486    1.388   .     D
C485   H824    1.140   .     S
C486   C497    1.415   .     S
C486   C539    1.520   1_655 S
C487   C497    1.530   .     S
C487   H825    1.140   .     S
C487   C456    1.526   1_645 S
C487   C538    1.519   1_655 S
C488   C489    1.402   .     S
C488   C493    1.401   .     D
C488   C495    1.473   .     S
C489   C490    1.398   .     D
C489   H826    1.140   .     S
C490   C491    1.402   .     S
C490   H827    1.140   .     S
C491   C492    1.396   .     D
C491   C494    1.464   .     S
C492   C493    1.394   .     S
C492   H828    1.140   .     S
C493   H829    1.140   .     S
C494   H830    1.140   .     S
C495   C496    1.409   .     S
C496   C497    1.391   .     D
C496   H831    1.140   .     S
C498   C499    1.403   .     S
C498   C503    1.401   .     S
C498   C505    1.474   .     D
C499   C500    1.400   .     D
C499   H832    1.140   .     S
C500   C501    1.403   .     S
C500   H833    1.140   .     S
C501   C502    1.397   .     S
C501   C504    1.465   .     D
C502   C503    1.394   .     D
C502   H834    1.140   .     S
C503   H835    1.140   .     S
C504   H836    1.140   .     S
C505   C506    1.404   .     S
C505   C516    1.426   .     S
C506   C507    1.389   .     D
C506   H837    1.140   .     S
C507   C518    1.415   .     S
C507   C560    1.522   1_545 S
C508   C518    1.530   .     S
C508   H838    1.140   .     S
C508   C476    1.529   1_445 S
C508   C559    1.521   1_545 S
C509   C510    1.403   .     S
C509   C514    1.401   .     S
C509   C516    1.477   .     D
C510   C511    1.399   .     D
C510   H839    1.140   .     S
C511   C512    1.402   .     S
C511   H840    1.140   .     S
C512   C513    1.396   .     S
C512   C515    1.463   .     D
C513   C514    1.394   .     D
C513   H841    1.140   .     S
C514   H842    1.140   .     S
C515   H843    1.140   .     S
C515   N167    1.297   1_556 S
C516   C517    1.410   .     S
C517   C518    1.391   .     D
C517   H844    1.140   .     S
C519   C520    1.403   .     S
C519   C524    1.401   .     D
C519   C526    1.477   .     S
C520   C521    1.399   .     D
C520   H845    1.140   .     S
C521   C522    1.402   .     S
C521   H846    1.140   .     S
C522   C523    1.397   .     D
C522   C525    1.465   .     S
C523   C524    1.395   .     S
C523   H847    1.140   .     S
C524   H848    1.140   .     S
C525   H849    1.140   .     S
C525   N330    1.297   1_554 D
C526   C527    1.409   .     S
C526   C536    1.428   .     D
C527   C528    1.393   .     D
C527   H850    1.140   .     S
C528   C538    1.414   .     S
C528   C539    1.532   .     S
C529   C530    1.404   .     S
C529   C534    1.400   .     D
C529   C536    1.476   .     S
C530   C531    1.401   .     D
C530   H851    1.140   .     S
C531   C532    1.403   .     S
C531   H852    1.140   .     S
C532   C533    1.396   .     D
C532   C535    1.463   .     S
C533   C534    1.392   .     S
C533   H853    1.140   .     S
C534   H854    1.140   .     S
C535   H855    1.140   .     S
C536   C537    1.404   .     S
C537   C538    1.387   .     D
C537   H856    1.140   .     S
C538   C487    1.519   1_455 S
C539   H857    1.140   .     S
C539   C446    1.526   1_545 S
C539   C486    1.520   1_455 S
C540   C541    1.401   .     D
C540   C545    1.402   .     S
C540   C547    1.475   .     S
C541   C542    1.395   .     S
C541   H858    1.140   .     S
C542   C543    1.401   .     D
C542   H859    1.140   .     S
C543   C544    1.398   .     S
C543   C546    1.465   .     S
C544   C545    1.396   .     D
C544   H860    1.140   .     S
C545   H861    1.140   .     S
C546   H862    1.140   .     S
C547   C548    1.406   .     S
C547   C557    1.429   .     D
C548   C549    1.391   .     D
C548   H863    1.140   .     S
C549   C559    1.417   .     S
C549   C560    1.529   .     S
C550   C551    1.404   .     S
C550   C555    1.403   .     D
C550   C557    1.481   .     S
C551   C552    1.398   .     D
C551   H864    1.140   .     S
C552   C553    1.396   .     S
C552   H865    1.140   .     S
C553   C554    1.397   .     D
C553   C556    1.484   .     S
C554   C555    1.399   .     S
C554   H866    1.140   .     S
C555   H867    1.140   .     S
C556   H868    1.140   .     S
C556   H869    1.140   .     S
C556   H870    1.140   .     S
C557   C558    1.406   .     S
C558   C559    1.388   .     D
C558   H871    1.140   .     S
C559   C508    1.521   1_565 S
C560   H872    1.140   .     S
C560   C466    1.522   1_455 S
C560   C507    1.522   1_565 S
