data_763
_audit_creation_date              2023-09-08
_audit_creation_method            'Materials Studio'
_symmetry_space_group_name_H-M    'P1'
_symmetry_Int_Tables_number       1
_symmetry_cell_setting            triclinic
loop_
_symmetry_equiv_pos_as_xyz
  x,y,z
_cell_length_a                    37.7657
_cell_length_b                    37.7657
_cell_length_c                    8.5357
_cell_angle_alpha                 90.0000
_cell_angle_beta                  90.0000
_cell_angle_gamma                 120.0000
loop_
_atom_site_label
_atom_site_type_symbol
_atom_site_fract_x
_atom_site_fract_y
_atom_site_fract_z
_atom_site_U_iso_or_equiv
_atom_site_adp_type
_atom_site_occupancy
C1     C     0.54880   0.46001  -0.02525   0.00000  Uiso   1.00
N2     N     0.54852   0.43481   0.07917   0.00000  Uiso   1.00
C3     C     0.57264   0.41493   0.06966   0.00000  Uiso   1.00
C4     C     0.56063   0.38088  -0.03072   0.00000  Uiso   1.00
C5     C     0.58515   0.36238  -0.03939   0.00000  Uiso   1.00
C6     C     0.61945   0.37503   0.05745   0.00000  Uiso   1.00
C7     C     0.63010   0.40780   0.16079   0.00000  Uiso   1.00
C8     C     0.60739   0.42837   0.16770   0.00000  Uiso   1.00
C9     C     0.64359   0.35333   0.05372   0.00000  Uiso   1.00
C10    C     0.68671   0.37556   0.05360   0.00000  Uiso   1.00
C11    C     0.52331   0.47984  -0.00924   0.00000  Uiso   1.00
C12    C     0.52653   0.50771  -0.12507   0.00000  Uiso   1.00
C13    C     0.50287   0.52739  -0.11676   0.00000  Uiso   1.00
C14    C     0.47763   0.63486   0.12728   0.00000  Uiso   1.00
C15    C     0.50316   0.68159   0.12718   0.00000  Uiso   1.00
C16    C     0.46757   0.62002   0.29568   0.00000  Uiso   1.00
C17    C     0.37932   0.53373  -0.27505   0.00000  Uiso   1.00
C18    C     0.41094   0.54417  -0.40564   0.00000  Uiso   1.00
C19    C     0.33723   0.51668  -0.35306   0.00000  Uiso   1.00
F20    F     0.50621   0.55437  -0.23024   0.00000  Uiso   1.00
F21    F     0.55340   0.51539  -0.24501   0.00000  Uiso   1.00
H22    H     0.56846   0.46737  -0.12670   0.00000  Uiso   1.00
H23    H     0.57722   0.33755  -0.12054   0.00000  Uiso   1.00
H24    H     0.65597   0.41663   0.23735   0.00000  Uiso   1.00
H25    H     0.70242   0.40865   0.05454   0.00000  Uiso   1.00
H26    H     0.49757   0.62356   0.07675   0.00000  Uiso   1.00
H27    H     0.48824   0.69554   0.19484   0.00000  Uiso   1.00
H28    H     0.50821   0.69350   0.00638   0.00000  Uiso   1.00
H29    H     0.53365   0.69155   0.18004   0.00000  Uiso   1.00
H30    H     0.49596   0.63286   0.36730   0.00000  Uiso   1.00
H31    H     0.45332   0.58631   0.29959   0.00000  Uiso   1.00
H32    H     0.44622   0.62905   0.34688   0.00000  Uiso   1.00
H33    H     0.37835   0.50877  -0.20111   0.00000  Uiso   1.00
H34    H     0.41142   0.56808  -0.48184   0.00000  Uiso   1.00
H35    H     0.40366   0.51658  -0.47626   0.00000  Uiso   1.00
H36    H     0.44243   0.55540  -0.36011   0.00000  Uiso   1.00
H37    H     0.32861   0.48763  -0.41592   0.00000  Uiso   1.00
H38    H     0.33737   0.53888  -0.43843   0.00000  Uiso   1.00
H39    H     0.31288   0.50962  -0.26651   0.00000  Uiso   1.00
C40    C     0.21547   0.79334   0.30808   0.00000  Uiso   1.00
N41    N     0.21519   0.76814   0.41250   0.00000  Uiso   1.00
C42    C     0.23931   0.74826   0.40299   0.00000  Uiso   1.00
C43    C     0.22730   0.71421   0.30261   0.00000  Uiso   1.00
C44    C     0.25182   0.69571   0.29394   0.00000  Uiso   1.00
C45    C     0.28612   0.70836   0.39078   0.00000  Uiso   1.00
C46    C     0.29677   0.74113   0.49412   0.00000  Uiso   1.00
C47    C     0.27406   0.76170   0.50103   0.00000  Uiso   1.00
C48    C     0.31026   0.68666   0.38705   0.00000  Uiso   1.00
C49    C     0.35338   0.70889   0.38693   0.00000  Uiso   1.00
C50    C     0.18998   0.81317   0.32409   0.00000  Uiso   1.00
C51    C     0.19320   0.84104   0.20826   0.00000  Uiso   1.00
C52    C     0.16954   0.86072   0.21657   0.00000  Uiso   1.00
C53    C     0.14430   0.96819   0.46061   0.00000  Uiso   1.00
C54    C     0.16983   0.01492   0.46051   0.00000  Uiso   1.00
C55    C     0.13424   0.95335   0.62901   0.00000  Uiso   1.00
C56    C     0.04599   0.86706   0.05828   0.00000  Uiso   1.00
C57    C     0.07761   0.87750  -0.07231   0.00000  Uiso   1.00
C58    C     0.00390   0.85001  -0.01973   0.00000  Uiso   1.00
F59    F     0.17288   0.88770   0.10309   0.00000  Uiso   1.00
F60    F     0.22007   0.84872   0.08832   0.00000  Uiso   1.00
H61    H     0.23513   0.80070   0.20663   0.00000  Uiso   1.00
H62    H     0.24389   0.67088   0.21279   0.00000  Uiso   1.00
H63    H     0.32264   0.74996   0.57068   0.00000  Uiso   1.00
H64    H     0.36909   0.74198   0.38787   0.00000  Uiso   1.00
H65    H     0.16424   0.95689   0.41008   0.00000  Uiso   1.00
H66    H     0.15491   0.02887   0.52817   0.00000  Uiso   1.00
H67    H     0.17488   0.02683   0.33971   0.00000  Uiso   1.00
H68    H     0.20032   0.02488   0.51337   0.00000  Uiso   1.00
H69    H     0.16263   0.96619   0.70063   0.00000  Uiso   1.00
H70    H     0.11999   0.91964   0.63292   0.00000  Uiso   1.00
H71    H     0.11289   0.96238   0.68021   0.00000  Uiso   1.00
H72    H     0.04502   0.84210   0.13222   0.00000  Uiso   1.00
H73    H     0.07809   0.90141  -0.14851   0.00000  Uiso   1.00
H74    H     0.07033   0.84991  -0.14293   0.00000  Uiso   1.00
H75    H     0.10910   0.88873  -0.02678   0.00000  Uiso   1.00
H76    H     0.99528   0.82096  -0.08259   0.00000  Uiso   1.00
H77    H     0.00404   0.87221  -0.10510   0.00000  Uiso   1.00
H78    H     0.97955   0.84295   0.06682   0.00000  Uiso   1.00
C79    C     0.88213   0.12668   0.64142   0.00000  Uiso   1.00
N80    N     0.88185   0.10148   0.74584   0.00000  Uiso   1.00
C81    C     0.90597   0.08160   0.73633   0.00000  Uiso   1.00
C82    C     0.89396   0.04755   0.63595   0.00000  Uiso   1.00
C83    C     0.91848   0.02905   0.62728   0.00000  Uiso   1.00
C84    C     0.95278   0.04170   0.72412   0.00000  Uiso   1.00
C85    C     0.96343   0.07447   0.82746   0.00000  Uiso   1.00
C86    C     0.94072   0.09504   0.83437   0.00000  Uiso   1.00
C87    C     0.97692   0.02000   0.72039   0.00000  Uiso   1.00
C88    C     0.02004   0.04223   0.72027   0.00000  Uiso   1.00
C89    C     0.85664   0.14651   0.65743   0.00000  Uiso   1.00
C90    C     0.85986   0.17438   0.54160   0.00000  Uiso   1.00
C91    C     0.83620   0.19406   0.54991   0.00000  Uiso   1.00
C92    C     0.81096   0.30153   0.79395   0.00000  Uiso   1.00
C93    C     0.83649   0.34826   0.79385   0.00000  Uiso   1.00
C94    C     0.80090   0.28669   0.96235   0.00000  Uiso   1.00
C95    C     0.71265   0.20040   0.39162   0.00000  Uiso   1.00
C96    C     0.74427   0.21084   0.26103   0.00000  Uiso   1.00
C97    C     0.67056   0.18335   0.31361   0.00000  Uiso   1.00
F98    F     0.83954   0.22104   0.43643   0.00000  Uiso   1.00
F99    F     0.88673   0.18206   0.42166   0.00000  Uiso   1.00
H100   H     0.90179   0.13404   0.53997   0.00000  Uiso   1.00
H101   H     0.91055   0.00422   0.54613   0.00000  Uiso   1.00
H102   H     0.98930   0.08330   0.90402   0.00000  Uiso   1.00
H103   H     0.03575   0.07532   0.72121   0.00000  Uiso   1.00
H104   H     0.83090   0.29023   0.74342   0.00000  Uiso   1.00
H105   H     0.82157   0.36221   0.86151   0.00000  Uiso   1.00
H106   H     0.84154   0.36017   0.67305   0.00000  Uiso   1.00
H107   H     0.86698   0.35822   0.84671   0.00000  Uiso   1.00
H108   H     0.82929   0.29953   1.03397   0.00000  Uiso   1.00
H109   H     0.78665   0.25298   0.96626   0.00000  Uiso   1.00
H110   H     0.77955   0.29572   1.01355   0.00000  Uiso   1.00
H111   H     0.71168   0.17544   0.46556   0.00000  Uiso   1.00
H112   H     0.74475   0.23475   0.18483   0.00000  Uiso   1.00
H113   H     0.73699   0.18325   0.19041   0.00000  Uiso   1.00
H114   H     0.77576   0.22207   0.30656   0.00000  Uiso   1.00
H115   H     0.66194   0.15430   0.25075   0.00000  Uiso   1.00
H116   H     0.67070   0.20555   0.22824   0.00000  Uiso   1.00
H117   H     0.64621   0.17629   0.40016   0.00000  Uiso   1.00
C118   C     0.53999   0.08879  -0.02525   0.00000  Uiso   1.00
N119   N     0.56519   0.11371   0.07917   0.00000  Uiso   1.00
C120   C     0.58507   0.15771   0.06966   0.00000  Uiso   1.00
C121   C     0.61912   0.17975  -0.03072   0.00000  Uiso   1.00
C122   C     0.63762   0.22277  -0.03939   0.00000  Uiso   1.00
C123   C     0.62497   0.24442   0.05745   0.00000  Uiso   1.00
C124   C     0.59220   0.22230   0.16079   0.00000  Uiso   1.00
C125   C     0.57163   0.17902   0.16770   0.00000  Uiso   1.00
C126   C     0.64667   0.29026   0.05372   0.00000  Uiso   1.00
C127   C     0.62444   0.31115   0.05360   0.00000  Uiso   1.00
C128   C     0.52016   0.04347  -0.00924   0.00000  Uiso   1.00
C129   C     0.49229   0.01882  -0.12507   0.00000  Uiso   1.00
C130   C     0.47261   0.97548  -0.11676   0.00000  Uiso   1.00
C131   C     0.36514   0.84277   0.12728   0.00000  Uiso   1.00
C132   C     0.31841   0.82157   0.12718   0.00000  Uiso   1.00
C133   C     0.37998   0.84755   0.29568   0.00000  Uiso   1.00
C134   C     0.46627   0.84559  -0.27505   0.00000  Uiso   1.00
C135   C     0.45583   0.86677  -0.40564   0.00000  Uiso   1.00
C136   C     0.48332   0.82055  -0.35306   0.00000  Uiso   1.00
F137   F     0.44563   0.95184  -0.23024   0.00000  Uiso   1.00
F138   F     0.48461   0.03801  -0.24501   0.00000  Uiso   1.00
H139   H     0.53263   0.10109  -0.12670   0.00000  Uiso   1.00
H140   H     0.66245   0.23967  -0.12054   0.00000  Uiso   1.00
H141   H     0.58337   0.23934   0.23735   0.00000  Uiso   1.00
H142   H     0.59135   0.29377   0.05454   0.00000  Uiso   1.00
H143   H     0.37644   0.87401   0.07675   0.00000  Uiso   1.00
H144   H     0.30446   0.79270   0.19484   0.00000  Uiso   1.00
H145   H     0.30650   0.81471   0.00638   0.00000  Uiso   1.00
H146   H     0.30845   0.84210   0.18004   0.00000  Uiso   1.00
H147   H     0.36714   0.86310   0.36730   0.00000  Uiso   1.00
H148   H     0.41369   0.86701   0.29959   0.00000  Uiso   1.00
H149   H     0.37095   0.81717   0.34688   0.00000  Uiso   1.00
H150   H     0.49123   0.86958  -0.20111   0.00000  Uiso   1.00
H151   H     0.43192   0.84334  -0.48184   0.00000  Uiso   1.00
H152   H     0.48342   0.88708  -0.47626   0.00000  Uiso   1.00
H153   H     0.44460   0.88703  -0.36011   0.00000  Uiso   1.00
H154   H     0.51237   0.84098  -0.41592   0.00000  Uiso   1.00
H155   H     0.46112   0.79849  -0.43843   0.00000  Uiso   1.00
H156   H     0.49038   0.80326  -0.26651   0.00000  Uiso   1.00
C157   C     0.20666   0.42212   0.30808   0.00000  Uiso   1.00
N158   N     0.23186   0.44704   0.41250   0.00000  Uiso   1.00
C159   C     0.25174   0.49104   0.40299   0.00000  Uiso   1.00
C160   C     0.28579   0.51308   0.30261   0.00000  Uiso   1.00
C161   C     0.30429   0.55610   0.29394   0.00000  Uiso   1.00
C162   C     0.29164   0.57775   0.39078   0.00000  Uiso   1.00
C163   C     0.25887   0.55563   0.49412   0.00000  Uiso   1.00
C164   C     0.23830   0.51235   0.50103   0.00000  Uiso   1.00
C165   C     0.31334   0.62359   0.38705   0.00000  Uiso   1.00
C166   C     0.29111   0.64448   0.38693   0.00000  Uiso   1.00
C167   C     0.18683   0.37680   0.32409   0.00000  Uiso   1.00
C168   C     0.15896   0.35215   0.20826   0.00000  Uiso   1.00
C169   C     0.13928   0.30881   0.21657   0.00000  Uiso   1.00
C170   C     0.03181   0.17610   0.46061   0.00000  Uiso   1.00
C171   C     0.98508   0.15490   0.46051   0.00000  Uiso   1.00
C172   C     0.04665   0.18088   0.62901   0.00000  Uiso   1.00
C173   C     0.13294   0.17892   0.05828   0.00000  Uiso   1.00
C174   C     0.12250   0.20010  -0.07231   0.00000  Uiso   1.00
C175   C     0.14999   0.15388  -0.01973   0.00000  Uiso   1.00
F176   F     0.11230   0.28517   0.10309   0.00000  Uiso   1.00
F177   F     0.15128   0.37134   0.08832   0.00000  Uiso   1.00
H178   H     0.19930   0.43442   0.20663   0.00000  Uiso   1.00
H179   H     0.32912   0.57300   0.21279   0.00000  Uiso   1.00
H180   H     0.25004   0.57267   0.57068   0.00000  Uiso   1.00
H181   H     0.25802   0.62710   0.38787   0.00000  Uiso   1.00
H182   H     0.04311   0.20734   0.41008   0.00000  Uiso   1.00
H183   H     0.97113   0.12603   0.52817   0.00000  Uiso   1.00
H184   H     0.97317   0.14804   0.33971   0.00000  Uiso   1.00
H185   H     0.97512   0.17543   0.51337   0.00000  Uiso   1.00
H186   H     0.03381   0.19643   0.70063   0.00000  Uiso   1.00
H187   H     0.08036   0.20034   0.63292   0.00000  Uiso   1.00
H188   H     0.03762   0.15050   0.68021   0.00000  Uiso   1.00
H189   H     0.15790   0.20291   0.13222   0.00000  Uiso   1.00
H190   H     0.09859   0.17667  -0.14851   0.00000  Uiso   1.00
H191   H     0.15009   0.22041  -0.14293   0.00000  Uiso   1.00
H192   H     0.11127   0.22036  -0.02678   0.00000  Uiso   1.00
H193   H     0.17904   0.17431  -0.08259   0.00000  Uiso   1.00
H194   H     0.12779   0.13182  -0.10510   0.00000  Uiso   1.00
H195   H     0.15705   0.13659   0.06682   0.00000  Uiso   1.00
C196   C     0.87332   0.75546   0.64142   0.00000  Uiso   1.00
N197   N     0.89852   0.78038   0.74584   0.00000  Uiso   1.00
C198   C     0.91840   0.82438   0.73633   0.00000  Uiso   1.00
C199   C     0.95245   0.84642   0.63595   0.00000  Uiso   1.00
C200   C     0.97095   0.88944   0.62728   0.00000  Uiso   1.00
C201   C     0.95830   0.91109   0.72412   0.00000  Uiso   1.00
C202   C     0.92553   0.88897   0.82746   0.00000  Uiso   1.00
C203   C     0.90496   0.84569   0.83437   0.00000  Uiso   1.00
C204   C     0.98000   0.95693   0.72039   0.00000  Uiso   1.00
C205   C     0.95777   0.97782   0.72027   0.00000  Uiso   1.00
C206   C     0.85349   0.71014   0.65743   0.00000  Uiso   1.00
C207   C     0.82562   0.68549   0.54160   0.00000  Uiso   1.00
C208   C     0.80594   0.64215   0.54991   0.00000  Uiso   1.00
C209   C     0.69847   0.50944   0.79395   0.00000  Uiso   1.00
C210   C     0.65174   0.48824   0.79385   0.00000  Uiso   1.00
C211   C     0.71331   0.51422   0.96235   0.00000  Uiso   1.00
C212   C     0.79960   0.51226   0.39162   0.00000  Uiso   1.00
C213   C     0.78916   0.53344   0.26103   0.00000  Uiso   1.00
C214   C     0.81665   0.48722   0.31361   0.00000  Uiso   1.00
F215   F     0.77896   0.61851   0.43643   0.00000  Uiso   1.00
F216   F     0.81794   0.70468   0.42166   0.00000  Uiso   1.00
H217   H     0.86596   0.76776   0.53997   0.00000  Uiso   1.00
H218   H     0.99578   0.90634   0.54613   0.00000  Uiso   1.00
H219   H     0.91670   0.90601   0.90402   0.00000  Uiso   1.00
H220   H     0.92468   0.96044   0.72121   0.00000  Uiso   1.00
H221   H     0.70977   0.54068   0.74342   0.00000  Uiso   1.00
H222   H     0.63779   0.45937   0.86151   0.00000  Uiso   1.00
H223   H     0.63983   0.48138   0.67305   0.00000  Uiso   1.00
H224   H     0.64178   0.50877   0.84671   0.00000  Uiso   1.00
H225   H     0.70047   0.52977   1.03397   0.00000  Uiso   1.00
H226   H     0.74702   0.53368   0.96626   0.00000  Uiso   1.00
H227   H     0.70428   0.48384   1.01355   0.00000  Uiso   1.00
H228   H     0.82456   0.53625   0.46556   0.00000  Uiso   1.00
H229   H     0.76525   0.51001   0.18483   0.00000  Uiso   1.00
H230   H     0.81675   0.55375   0.19041   0.00000  Uiso   1.00
H231   H     0.77793   0.55370   0.30656   0.00000  Uiso   1.00
H232   H     0.84570   0.50765   0.25075   0.00000  Uiso   1.00
H233   H     0.79445   0.46516   0.22824   0.00000  Uiso   1.00
H234   H     0.82371   0.46993   0.40016   0.00000  Uiso   1.00
C235   C     0.91121   0.45120  -0.02525   0.00000  Uiso   1.00
N236   N     0.88629   0.45148   0.07917   0.00000  Uiso   1.00
C237   C     0.84229   0.42736   0.06966   0.00000  Uiso   1.00
C238   C     0.82025   0.43937  -0.03072   0.00000  Uiso   1.00
C239   C     0.77723   0.41485  -0.03939   0.00000  Uiso   1.00
C240   C     0.75558   0.38055   0.05745   0.00000  Uiso   1.00
C241   C     0.77770   0.36990   0.16079   0.00000  Uiso   1.00
C242   C     0.82098   0.39261   0.16770   0.00000  Uiso   1.00
C243   C     0.70974   0.35641   0.05372   0.00000  Uiso   1.00
C244   C     0.68885   0.31329   0.05360   0.00000  Uiso   1.00
C245   C     0.95653   0.47669  -0.00924   0.00000  Uiso   1.00
C246   C     0.98118   0.47347  -0.12507   0.00000  Uiso   1.00
C247   C     0.02452   0.49713  -0.11676   0.00000  Uiso   1.00
C248   C     0.15723   0.52237   0.12728   0.00000  Uiso   1.00
C249   C     0.17843   0.49684   0.12718   0.00000  Uiso   1.00
C250   C     0.15245   0.53243   0.29568   0.00000  Uiso   1.00
C251   C     0.15441   0.62068  -0.27505   0.00000  Uiso   1.00
C252   C     0.13323   0.58906  -0.40564   0.00000  Uiso   1.00
C253   C     0.17945   0.66277  -0.35306   0.00000  Uiso   1.00
F254   F     0.04816   0.49379  -0.23024   0.00000  Uiso   1.00
F255   F     0.96199   0.44660  -0.24501   0.00000  Uiso   1.00
H256   H     0.89891   0.43154  -0.12670   0.00000  Uiso   1.00
H257   H     0.76033   0.42278  -0.12054   0.00000  Uiso   1.00
H258   H     0.76066   0.34403   0.23735   0.00000  Uiso   1.00
H259   H     0.70623   0.29758   0.05454   0.00000  Uiso   1.00
H260   H     0.12599   0.50243   0.07675   0.00000  Uiso   1.00
H261   H     0.20730   0.51176   0.19484   0.00000  Uiso   1.00
H262   H     0.18529   0.49179   0.00638   0.00000  Uiso   1.00
H263   H     0.15790   0.46635   0.18004   0.00000  Uiso   1.00
H264   H     0.13690   0.50404   0.36730   0.00000  Uiso   1.00
H265   H     0.13299   0.54668   0.29959   0.00000  Uiso   1.00
H266   H     0.18283   0.55378   0.34688   0.00000  Uiso   1.00
H267   H     0.13042   0.62165  -0.20111   0.00000  Uiso   1.00
H268   H     0.15666   0.58858  -0.48184   0.00000  Uiso   1.00
H269   H     0.11292   0.59634  -0.47626   0.00000  Uiso   1.00
H270   H     0.11297   0.55757  -0.36011   0.00000  Uiso   1.00
H271   H     0.15902   0.67139  -0.41592   0.00000  Uiso   1.00
H272   H     0.20151   0.66263  -0.43843   0.00000  Uiso   1.00
H273   H     0.19674   0.68712  -0.26651   0.00000  Uiso   1.00
C274   C     0.57788   0.78453   0.30808   0.00000  Uiso   1.00
N275   N     0.55296   0.78481   0.41250   0.00000  Uiso   1.00
C276   C     0.50896   0.76069   0.40299   0.00000  Uiso   1.00
C277   C     0.48692   0.77270   0.30261   0.00000  Uiso   1.00
C278   C     0.44390   0.74818   0.29394   0.00000  Uiso   1.00
C279   C     0.42225   0.71388   0.39078   0.00000  Uiso   1.00
C280   C     0.44437   0.70323   0.49412   0.00000  Uiso   1.00
C281   C     0.48765   0.72594   0.50103   0.00000  Uiso   1.00
C282   C     0.37641   0.68974   0.38705   0.00000  Uiso   1.00
C283   C     0.35552   0.64662   0.38693   0.00000  Uiso   1.00
C284   C     0.62320   0.81002   0.32409   0.00000  Uiso   1.00
C285   C     0.64785   0.80680   0.20826   0.00000  Uiso   1.00
C286   C     0.69119   0.83046   0.21657   0.00000  Uiso   1.00
C287   C     0.82390   0.85570   0.46061   0.00000  Uiso   1.00
C288   C     0.84510   0.83017   0.46051   0.00000  Uiso   1.00
C289   C     0.81912   0.86576   0.62901   0.00000  Uiso   1.00
C290   C     0.82108   0.95401   0.05828   0.00000  Uiso   1.00
C291   C     0.79990   0.92239  -0.07231   0.00000  Uiso   1.00
C292   C     0.84612   0.99610  -0.01973   0.00000  Uiso   1.00
F293   F     0.71483   0.82712   0.10309   0.00000  Uiso   1.00
F294   F     0.62866   0.77993   0.08832   0.00000  Uiso   1.00
H295   H     0.56558   0.76487   0.20663   0.00000  Uiso   1.00
H296   H     0.42700   0.75611   0.21279   0.00000  Uiso   1.00
H297   H     0.42733   0.67736   0.57068   0.00000  Uiso   1.00
H298   H     0.37290   0.63091   0.38787   0.00000  Uiso   1.00
H299   H     0.79266   0.83576   0.41008   0.00000  Uiso   1.00
H300   H     0.87397   0.84509   0.52817   0.00000  Uiso   1.00
H301   H     0.85196   0.82512   0.33971   0.00000  Uiso   1.00
H302   H     0.82457   0.79968   0.51337   0.00000  Uiso   1.00
H303   H     0.80357   0.83737   0.70063   0.00000  Uiso   1.00
H304   H     0.79966   0.88001   0.63292   0.00000  Uiso   1.00
H305   H     0.84950   0.88711   0.68021   0.00000  Uiso   1.00
H306   H     0.79709   0.95498   0.13222   0.00000  Uiso   1.00
H307   H     0.82333   0.92191  -0.14851   0.00000  Uiso   1.00
H308   H     0.77959   0.92967  -0.14293   0.00000  Uiso   1.00
H309   H     0.77964   0.89090  -0.02678   0.00000  Uiso   1.00
H310   H     0.82569   0.00472  -0.08259   0.00000  Uiso   1.00
H311   H     0.86818   0.99596  -0.10510   0.00000  Uiso   1.00
H312   H     0.86341   0.02045   0.06682   0.00000  Uiso   1.00
C313   C     0.24454   0.11787   0.64142   0.00000  Uiso   1.00
N314   N     0.21962   0.11815   0.74584   0.00000  Uiso   1.00
C315   C     0.17562   0.09403   0.73633   0.00000  Uiso   1.00
C316   C     0.15358   0.10604   0.63595   0.00000  Uiso   1.00
C317   C     0.11056   0.08152   0.62728   0.00000  Uiso   1.00
C318   C     0.08891   0.04722   0.72412   0.00000  Uiso   1.00
C319   C     0.11103   0.03657   0.82746   0.00000  Uiso   1.00
C320   C     0.15431   0.05928   0.83437   0.00000  Uiso   1.00
C321   C     0.04307   0.02308   0.72039   0.00000  Uiso   1.00
C322   C     0.02218   0.97996   0.72027   0.00000  Uiso   1.00
C323   C     0.28986   0.14336   0.65743   0.00000  Uiso   1.00
C324   C     0.31451   0.14014   0.54160   0.00000  Uiso   1.00
C325   C     0.35785   0.16380   0.54991   0.00000  Uiso   1.00
C326   C     0.49056   0.18904   0.79395   0.00000  Uiso   1.00
C327   C     0.51176   0.16351   0.79385   0.00000  Uiso   1.00
C328   C     0.48578   0.19910   0.96235   0.00000  Uiso   1.00
C329   C     0.48774   0.28735   0.39162   0.00000  Uiso   1.00
C330   C     0.46656   0.25573   0.26103   0.00000  Uiso   1.00
C331   C     0.51278   0.32944   0.31361   0.00000  Uiso   1.00
F332   F     0.38149   0.16046   0.43643   0.00000  Uiso   1.00
F333   F     0.29532   0.11327   0.42166   0.00000  Uiso   1.00
H334   H     0.23224   0.09821   0.53997   0.00000  Uiso   1.00
H335   H     0.09366   0.08945   0.54613   0.00000  Uiso   1.00
H336   H     0.09399   0.01070   0.90402   0.00000  Uiso   1.00
H337   H     0.03956   0.96425   0.72121   0.00000  Uiso   1.00
H338   H     0.45932   0.16910   0.74342   0.00000  Uiso   1.00
H339   H     0.54063   0.17843   0.86151   0.00000  Uiso   1.00
H340   H     0.51862   0.15846   0.67305   0.00000  Uiso   1.00
H341   H     0.49123   0.13302   0.84671   0.00000  Uiso   1.00
H342   H     0.47023   0.17071   1.03397   0.00000  Uiso   1.00
H343   H     0.46632   0.21335   0.96626   0.00000  Uiso   1.00
H344   H     0.51616   0.22045   1.01355   0.00000  Uiso   1.00
H345   H     0.46375   0.28832   0.46556   0.00000  Uiso   1.00
H346   H     0.48999   0.25525   0.18483   0.00000  Uiso   1.00
H347   H     0.44625   0.26301   0.19041   0.00000  Uiso   1.00
H348   H     0.44630   0.22424   0.30656   0.00000  Uiso   1.00
H349   H     0.49235   0.33806   0.25075   0.00000  Uiso   1.00
H350   H     0.53484   0.32930   0.22824   0.00000  Uiso   1.00
H351   H     0.53007   0.35379   0.40016   0.00000  Uiso   1.00
C352   C     0.45120   0.53999   0.02525   0.00000  Uiso   1.00
N353   N     0.45148   0.56519  -0.07917   0.00000  Uiso   1.00
C354   C     0.42736   0.58507  -0.06966   0.00000  Uiso   1.00
C355   C     0.43937   0.61912   0.03072   0.00000  Uiso   1.00
C356   C     0.41485   0.63762   0.03939   0.00000  Uiso   1.00
C357   C     0.38055   0.62497  -0.05745   0.00000  Uiso   1.00
C358   C     0.36990   0.59220  -0.16079   0.00000  Uiso   1.00
C359   C     0.39261   0.57163  -0.16770   0.00000  Uiso   1.00
C360   C     0.35641   0.64667  -0.05372   0.00000  Uiso   1.00
C361   C     0.31329   0.62444  -0.05360   0.00000  Uiso   1.00
C362   C     0.47669   0.52016   0.00924   0.00000  Uiso   1.00
C363   C     0.47347   0.49229   0.12507   0.00000  Uiso   1.00
C364   C     0.49713   0.47261   0.11676   0.00000  Uiso   1.00
C365   C     0.52237   0.36514  -0.12728   0.00000  Uiso   1.00
C366   C     0.49684   0.31841  -0.12718   0.00000  Uiso   1.00
C367   C     0.53243   0.37998  -0.29568   0.00000  Uiso   1.00
C368   C     0.62068   0.46627   0.27505   0.00000  Uiso   1.00
C369   C     0.58906   0.45583   0.40564   0.00000  Uiso   1.00
C370   C     0.66277   0.48332   0.35306   0.00000  Uiso   1.00
F371   F     0.49379   0.44563   0.23024   0.00000  Uiso   1.00
F372   F     0.44660   0.48461   0.24501   0.00000  Uiso   1.00
H373   H     0.43154   0.53263   0.12670   0.00000  Uiso   1.00
H374   H     0.42278   0.66245   0.12054   0.00000  Uiso   1.00
H375   H     0.34403   0.58337  -0.23735   0.00000  Uiso   1.00
H376   H     0.29758   0.59135  -0.05454   0.00000  Uiso   1.00
H377   H     0.50243   0.37644  -0.07675   0.00000  Uiso   1.00
H378   H     0.51176   0.30446  -0.19484   0.00000  Uiso   1.00
H379   H     0.49179   0.30650  -0.00638   0.00000  Uiso   1.00
H380   H     0.46635   0.30845  -0.18004   0.00000  Uiso   1.00
H381   H     0.50404   0.36714  -0.36730   0.00000  Uiso   1.00
H382   H     0.54668   0.41369  -0.29959   0.00000  Uiso   1.00
H383   H     0.55378   0.37095  -0.34688   0.00000  Uiso   1.00
H384   H     0.62165   0.49123   0.20111   0.00000  Uiso   1.00
H385   H     0.58858   0.43192   0.48184   0.00000  Uiso   1.00
H386   H     0.59634   0.48342   0.47626   0.00000  Uiso   1.00
H387   H     0.55757   0.44460   0.36011   0.00000  Uiso   1.00
H388   H     0.67139   0.51237   0.41592   0.00000  Uiso   1.00
H389   H     0.66263   0.46112   0.43843   0.00000  Uiso   1.00
H390   H     0.68712   0.49038   0.26651   0.00000  Uiso   1.00
C391   C     0.11787   0.87332   0.35858   0.00000  Uiso   1.00
N392   N     0.11815   0.89852   0.25416   0.00000  Uiso   1.00
C393   C     0.09403   0.91840   0.26367   0.00000  Uiso   1.00
C394   C     0.10604   0.95245   0.36405   0.00000  Uiso   1.00
C395   C     0.08152   0.97095   0.37272   0.00000  Uiso   1.00
C396   C     0.04722   0.95830   0.27588   0.00000  Uiso   1.00
C397   C     0.03657   0.92553   0.17254   0.00000  Uiso   1.00
C398   C     0.05928   0.90496   0.16563   0.00000  Uiso   1.00
C399   C     0.02308   0.98000   0.27961   0.00000  Uiso   1.00
C400   C     0.97996   0.95777   0.27973   0.00000  Uiso   1.00
C401   C     0.14336   0.85349   0.34257   0.00000  Uiso   1.00
C402   C     0.14014   0.82562   0.45840   0.00000  Uiso   1.00
C403   C     0.16380   0.80594   0.45009   0.00000  Uiso   1.00
C404   C     0.18904   0.69847   0.20605   0.00000  Uiso   1.00
C405   C     0.16351   0.65174   0.20615   0.00000  Uiso   1.00
C406   C     0.19910   0.71331   0.03765   0.00000  Uiso   1.00
C407   C     0.28735   0.79960   0.60838   0.00000  Uiso   1.00
C408   C     0.25573   0.78916   0.73897   0.00000  Uiso   1.00
C409   C     0.32944   0.81665   0.68639   0.00000  Uiso   1.00
F410   F     0.16046   0.77896   0.56357   0.00000  Uiso   1.00
F411   F     0.11327   0.81794   0.57834   0.00000  Uiso   1.00
H412   H     0.09821   0.86596   0.46003   0.00000  Uiso   1.00
H413   H     0.08945   0.99578   0.45387   0.00000  Uiso   1.00
H414   H     0.01070   0.91670   0.09598   0.00000  Uiso   1.00
H415   H     0.96425   0.92468   0.27879   0.00000  Uiso   1.00
H416   H     0.16910   0.70977   0.25658   0.00000  Uiso   1.00
H417   H     0.17843   0.63779   0.13849   0.00000  Uiso   1.00
H418   H     0.15846   0.63983   0.32695   0.00000  Uiso   1.00
H419   H     0.13302   0.64178   0.15329   0.00000  Uiso   1.00
H420   H     0.17071   0.70047  -0.03397   0.00000  Uiso   1.00
H421   H     0.21335   0.74702   0.03374   0.00000  Uiso   1.00
H422   H     0.22045   0.70428  -0.01355   0.00000  Uiso   1.00
H423   H     0.28832   0.82456   0.53444   0.00000  Uiso   1.00
H424   H     0.25525   0.76525   0.81517   0.00000  Uiso   1.00
H425   H     0.26301   0.81675   0.80959   0.00000  Uiso   1.00
H426   H     0.22424   0.77793   0.69344   0.00000  Uiso   1.00
H427   H     0.33806   0.84570   0.74925   0.00000  Uiso   1.00
H428   H     0.32930   0.79445   0.77176   0.00000  Uiso   1.00
H429   H     0.35379   0.82371   0.59984   0.00000  Uiso   1.00
C430   C     0.78453   0.20666   0.69192   0.00000  Uiso   1.00
N431   N     0.78481   0.23186   0.58750   0.00000  Uiso   1.00
C432   C     0.76069   0.25174   0.59701   0.00000  Uiso   1.00
C433   C     0.77270   0.28579   0.69739   0.00000  Uiso   1.00
C434   C     0.74818   0.30429   0.70606   0.00000  Uiso   1.00
C435   C     0.71388   0.29164   0.60922   0.00000  Uiso   1.00
C436   C     0.70323   0.25887   0.50588   0.00000  Uiso   1.00
C437   C     0.72594   0.23830   0.49897   0.00000  Uiso   1.00
C438   C     0.68974   0.31334   0.61295   0.00000  Uiso   1.00
C439   C     0.64662   0.29111   0.61307   0.00000  Uiso   1.00
C440   C     0.81002   0.18683   0.67591   0.00000  Uiso   1.00
C441   C     0.80680   0.15896   0.79174   0.00000  Uiso   1.00
C442   C     0.83046   0.13928   0.78343   0.00000  Uiso   1.00
C443   C     0.85570   0.03181   0.53939   0.00000  Uiso   1.00
C444   C     0.83017   0.98508   0.53949   0.00000  Uiso   1.00
C445   C     0.86576   0.04665   0.37099   0.00000  Uiso   1.00
C446   C     0.95401   0.13294   0.94172   0.00000  Uiso   1.00
C447   C     0.92239   0.12250   1.07231   0.00000  Uiso   1.00
C448   C     0.99610   0.14999   1.01973   0.00000  Uiso   1.00
F449   F     0.82712   0.11230   0.89691   0.00000  Uiso   1.00
F450   F     0.77993   0.15128   0.91168   0.00000  Uiso   1.00
H451   H     0.76487   0.19930   0.79337   0.00000  Uiso   1.00
H452   H     0.75611   0.32912   0.78721   0.00000  Uiso   1.00
H453   H     0.67736   0.25004   0.42932   0.00000  Uiso   1.00
H454   H     0.63091   0.25802   0.61213   0.00000  Uiso   1.00
H455   H     0.83576   0.04311   0.58992   0.00000  Uiso   1.00
H456   H     0.84509   0.97113   0.47183   0.00000  Uiso   1.00
H457   H     0.82512   0.97317   0.66029   0.00000  Uiso   1.00
H458   H     0.79968   0.97512   0.48663   0.00000  Uiso   1.00
H459   H     0.83737   0.03381   0.29937   0.00000  Uiso   1.00
H460   H     0.88001   0.08036   0.36708   0.00000  Uiso   1.00
H461   H     0.88711   0.03762   0.31979   0.00000  Uiso   1.00
H462   H     0.95498   0.15790   0.86778   0.00000  Uiso   1.00
H463   H     0.92191   0.09859   1.14851   0.00000  Uiso   1.00
H464   H     0.92967   0.15009   1.14293   0.00000  Uiso   1.00
H465   H     0.89090   0.11127   1.02678   0.00000  Uiso   1.00
H466   H     0.00472   0.17904   1.08259   0.00000  Uiso   1.00
H467   H     0.99596   0.12779   1.10510   0.00000  Uiso   1.00
H468   H     0.02045   0.15705   0.93318   0.00000  Uiso   1.00
C469   C     0.46001   0.91121   0.02525   0.00000  Uiso   1.00
N470   N     0.43481   0.88629  -0.07917   0.00000  Uiso   1.00
C471   C     0.41493   0.84229  -0.06966   0.00000  Uiso   1.00
C472   C     0.38088   0.82025   0.03072   0.00000  Uiso   1.00
C473   C     0.36238   0.77723   0.03939   0.00000  Uiso   1.00
C474   C     0.37503   0.75558  -0.05745   0.00000  Uiso   1.00
C475   C     0.40780   0.77770  -0.16079   0.00000  Uiso   1.00
C476   C     0.42837   0.82098  -0.16770   0.00000  Uiso   1.00
C477   C     0.35333   0.70974  -0.05372   0.00000  Uiso   1.00
C478   C     0.37556   0.68885  -0.05360   0.00000  Uiso   1.00
C479   C     0.47984   0.95653   0.00924   0.00000  Uiso   1.00
C480   C     0.50771   0.98118   0.12507   0.00000  Uiso   1.00
C481   C     0.52739   0.02452   0.11676   0.00000  Uiso   1.00
C482   C     0.63486   0.15723  -0.12728   0.00000  Uiso   1.00
C483   C     0.68159   0.17843  -0.12718   0.00000  Uiso   1.00
C484   C     0.62002   0.15245  -0.29568   0.00000  Uiso   1.00
C485   C     0.53373   0.15441   0.27505   0.00000  Uiso   1.00
C486   C     0.54417   0.13323   0.40564   0.00000  Uiso   1.00
C487   C     0.51668   0.17945   0.35306   0.00000  Uiso   1.00
F488   F     0.55437   0.04816   0.23024   0.00000  Uiso   1.00
F489   F     0.51539   0.96199   0.24501   0.00000  Uiso   1.00
H490   H     0.46737   0.89891   0.12670   0.00000  Uiso   1.00
H491   H     0.33755   0.76033   0.12054   0.00000  Uiso   1.00
H492   H     0.41663   0.76066  -0.23735   0.00000  Uiso   1.00
H493   H     0.40865   0.70623  -0.05454   0.00000  Uiso   1.00
H494   H     0.62356   0.12599  -0.07675   0.00000  Uiso   1.00
H495   H     0.69554   0.20730  -0.19484   0.00000  Uiso   1.00
H496   H     0.69350   0.18529  -0.00638   0.00000  Uiso   1.00
H497   H     0.69155   0.15790  -0.18004   0.00000  Uiso   1.00
H498   H     0.63286   0.13690  -0.36730   0.00000  Uiso   1.00
H499   H     0.58631   0.13299  -0.29959   0.00000  Uiso   1.00
H500   H     0.62905   0.18283  -0.34688   0.00000  Uiso   1.00
H501   H     0.50877   0.13042   0.20111   0.00000  Uiso   1.00
H502   H     0.56808   0.15666   0.48184   0.00000  Uiso   1.00
H503   H     0.51658   0.11292   0.47626   0.00000  Uiso   1.00
H504   H     0.55540   0.11297   0.36011   0.00000  Uiso   1.00
H505   H     0.48763   0.15902   0.41592   0.00000  Uiso   1.00
H506   H     0.53888   0.20151   0.43843   0.00000  Uiso   1.00
H507   H     0.50962   0.19674   0.26651   0.00000  Uiso   1.00
C508   C     0.12668   0.24454   0.35858   0.00000  Uiso   1.00
N509   N     0.10148   0.21962   0.25416   0.00000  Uiso   1.00
C510   C     0.08160   0.17562   0.26367   0.00000  Uiso   1.00
C511   C     0.04755   0.15358   0.36405   0.00000  Uiso   1.00
C512   C     0.02905   0.11056   0.37272   0.00000  Uiso   1.00
C513   C     0.04170   0.08891   0.27588   0.00000  Uiso   1.00
C514   C     0.07447   0.11103   0.17254   0.00000  Uiso   1.00
C515   C     0.09504   0.15431   0.16563   0.00000  Uiso   1.00
C516   C     0.02000   0.04307   0.27961   0.00000  Uiso   1.00
C517   C     0.04223   0.02218   0.27973   0.00000  Uiso   1.00
C518   C     0.14651   0.28986   0.34257   0.00000  Uiso   1.00
C519   C     0.17438   0.31451   0.45840   0.00000  Uiso   1.00
C520   C     0.19406   0.35785   0.45009   0.00000  Uiso   1.00
C521   C     0.30153   0.49056   0.20605   0.00000  Uiso   1.00
C522   C     0.34826   0.51176   0.20615   0.00000  Uiso   1.00
C523   C     0.28669   0.48578   0.03765   0.00000  Uiso   1.00
C524   C     0.20040   0.48774   0.60838   0.00000  Uiso   1.00
C525   C     0.21084   0.46656   0.73897   0.00000  Uiso   1.00
C526   C     0.18335   0.51278   0.68639   0.00000  Uiso   1.00
F527   F     0.22104   0.38149   0.56357   0.00000  Uiso   1.00
F528   F     0.18206   0.29532   0.57834   0.00000  Uiso   1.00
H529   H     0.13404   0.23224   0.46003   0.00000  Uiso   1.00
H530   H     0.00422   0.09366   0.45387   0.00000  Uiso   1.00
H531   H     0.08330   0.09399   0.09598   0.00000  Uiso   1.00
H532   H     0.07532   0.03956   0.27879   0.00000  Uiso   1.00
H533   H     0.29023   0.45932   0.25658   0.00000  Uiso   1.00
H534   H     0.36221   0.54063   0.13849   0.00000  Uiso   1.00
H535   H     0.36017   0.51862   0.32695   0.00000  Uiso   1.00
H536   H     0.35822   0.49123   0.15329   0.00000  Uiso   1.00
H537   H     0.29953   0.47023  -0.03397   0.00000  Uiso   1.00
H538   H     0.25298   0.46632   0.03374   0.00000  Uiso   1.00
H539   H     0.29572   0.51616  -0.01355   0.00000  Uiso   1.00
H540   H     0.17544   0.46375   0.53444   0.00000  Uiso   1.00
H541   H     0.23475   0.48999   0.81517   0.00000  Uiso   1.00
H542   H     0.18325   0.44625   0.80959   0.00000  Uiso   1.00
H543   H     0.22207   0.44630   0.69344   0.00000  Uiso   1.00
H544   H     0.15430   0.49235   0.74925   0.00000  Uiso   1.00
H545   H     0.20555   0.53484   0.77176   0.00000  Uiso   1.00
H546   H     0.17629   0.53007   0.59984   0.00000  Uiso   1.00
C547   C     0.79334   0.57788   0.69192   0.00000  Uiso   1.00
N548   N     0.76814   0.55296   0.58750   0.00000  Uiso   1.00
C549   C     0.74826   0.50896   0.59701   0.00000  Uiso   1.00
C550   C     0.71421   0.48692   0.69739   0.00000  Uiso   1.00
C551   C     0.69571   0.44390   0.70606   0.00000  Uiso   1.00
C552   C     0.70836   0.42225   0.60922   0.00000  Uiso   1.00
C553   C     0.74113   0.44437   0.50588   0.00000  Uiso   1.00
C554   C     0.76170   0.48765   0.49897   0.00000  Uiso   1.00
C555   C     0.68666   0.37641   0.61295   0.00000  Uiso   1.00
C556   C     0.70889   0.35552   0.61307   0.00000  Uiso   1.00
C557   C     0.81317   0.62320   0.67591   0.00000  Uiso   1.00
C558   C     0.84104   0.64785   0.79174   0.00000  Uiso   1.00
C559   C     0.86072   0.69119   0.78343   0.00000  Uiso   1.00
C560   C     0.96819   0.82390   0.53939   0.00000  Uiso   1.00
C561   C     0.01492   0.84510   0.53949   0.00000  Uiso   1.00
C562   C     0.95335   0.81912   0.37099   0.00000  Uiso   1.00
C563   C     0.86706   0.82108   0.94172   0.00000  Uiso   1.00
C564   C     0.87750   0.79990   1.07231   0.00000  Uiso   1.00
C565   C     0.85001   0.84612   1.01973   0.00000  Uiso   1.00
F566   F     0.88770   0.71483   0.89691   0.00000  Uiso   1.00
F567   F     0.84872   0.62866   0.91168   0.00000  Uiso   1.00
H568   H     0.80070   0.56558   0.79337   0.00000  Uiso   1.00
H569   H     0.67088   0.42700   0.78721   0.00000  Uiso   1.00
H570   H     0.74996   0.42733   0.42932   0.00000  Uiso   1.00
H571   H     0.74198   0.37290   0.61213   0.00000  Uiso   1.00
H572   H     0.95689   0.79266   0.58992   0.00000  Uiso   1.00
H573   H     0.02887   0.87397   0.47183   0.00000  Uiso   1.00
H574   H     0.02683   0.85196   0.66029   0.00000  Uiso   1.00
H575   H     0.02488   0.82457   0.48663   0.00000  Uiso   1.00
H576   H     0.96619   0.80357   0.29937   0.00000  Uiso   1.00
H577   H     0.91964   0.79966   0.36708   0.00000  Uiso   1.00
H578   H     0.96238   0.84950   0.31979   0.00000  Uiso   1.00
H579   H     0.84210   0.79709   0.86778   0.00000  Uiso   1.00
H580   H     0.90141   0.82333   1.14851   0.00000  Uiso   1.00
H581   H     0.84991   0.77959   1.14293   0.00000  Uiso   1.00
H582   H     0.88873   0.77964   1.02678   0.00000  Uiso   1.00
H583   H     0.82096   0.82569   1.08259   0.00000  Uiso   1.00
H584   H     0.87221   0.86818   1.10510   0.00000  Uiso   1.00
H585   H     0.84295   0.86341   0.93318   0.00000  Uiso   1.00
C586   C     0.08879   0.54880   0.02525   0.00000  Uiso   1.00
N587   N     0.11371   0.54852  -0.07917   0.00000  Uiso   1.00
C588   C     0.15771   0.57264  -0.06966   0.00000  Uiso   1.00
C589   C     0.17975   0.56063   0.03072   0.00000  Uiso   1.00
C590   C     0.22277   0.58515   0.03939   0.00000  Uiso   1.00
C591   C     0.24442   0.61945  -0.05745   0.00000  Uiso   1.00
C592   C     0.22230   0.63010  -0.16079   0.00000  Uiso   1.00
C593   C     0.17902   0.60739  -0.16770   0.00000  Uiso   1.00
C594   C     0.29026   0.64359  -0.05372   0.00000  Uiso   1.00
C595   C     0.31115   0.68671  -0.05360   0.00000  Uiso   1.00
C596   C     0.04347   0.52331   0.00924   0.00000  Uiso   1.00
C597   C     0.01882   0.52653   0.12507   0.00000  Uiso   1.00
C598   C     0.97548   0.50287   0.11676   0.00000  Uiso   1.00
C599   C     0.84277   0.47763  -0.12728   0.00000  Uiso   1.00
C600   C     0.82157   0.50316  -0.12718   0.00000  Uiso   1.00
C601   C     0.84755   0.46757  -0.29568   0.00000  Uiso   1.00
C602   C     0.84559   0.37932   0.27505   0.00000  Uiso   1.00
C603   C     0.86677   0.41094   0.40564   0.00000  Uiso   1.00
C604   C     0.82055   0.33723   0.35306   0.00000  Uiso   1.00
F605   F     0.95184   0.50621   0.23024   0.00000  Uiso   1.00
F606   F     0.03801   0.55340   0.24501   0.00000  Uiso   1.00
H607   H     0.10109   0.56846   0.12670   0.00000  Uiso   1.00
H608   H     0.23967   0.57722   0.12054   0.00000  Uiso   1.00
H609   H     0.23934   0.65597  -0.23735   0.00000  Uiso   1.00
H610   H     0.29377   0.70242  -0.05454   0.00000  Uiso   1.00
H611   H     0.87401   0.49757  -0.07675   0.00000  Uiso   1.00
H612   H     0.79270   0.48824  -0.19484   0.00000  Uiso   1.00
H613   H     0.81471   0.50821  -0.00638   0.00000  Uiso   1.00
H614   H     0.84210   0.53365  -0.18004   0.00000  Uiso   1.00
H615   H     0.86310   0.49596  -0.36730   0.00000  Uiso   1.00
H616   H     0.86701   0.45332  -0.29959   0.00000  Uiso   1.00
H617   H     0.81717   0.44622  -0.34688   0.00000  Uiso   1.00
H618   H     0.86958   0.37835   0.20111   0.00000  Uiso   1.00
H619   H     0.84334   0.41142   0.48184   0.00000  Uiso   1.00
H620   H     0.88708   0.40366   0.47626   0.00000  Uiso   1.00
H621   H     0.88703   0.44243   0.36011   0.00000  Uiso   1.00
H622   H     0.84098   0.32861   0.41592   0.00000  Uiso   1.00
H623   H     0.79849   0.33737   0.43843   0.00000  Uiso   1.00
H624   H     0.80326   0.31288   0.26651   0.00000  Uiso   1.00
C625   C     0.75546   0.88213   0.35858   0.00000  Uiso   1.00
N626   N     0.78038   0.88185   0.25416   0.00000  Uiso   1.00
C627   C     0.82438   0.90597   0.26367   0.00000  Uiso   1.00
C628   C     0.84642   0.89396   0.36405   0.00000  Uiso   1.00
C629   C     0.88944   0.91848   0.37272   0.00000  Uiso   1.00
C630   C     0.91109   0.95278   0.27588   0.00000  Uiso   1.00
C631   C     0.88897   0.96343   0.17254   0.00000  Uiso   1.00
C632   C     0.84569   0.94072   0.16563   0.00000  Uiso   1.00
C633   C     0.95693   0.97692   0.27961   0.00000  Uiso   1.00
C634   C     0.97782   0.02004   0.27973   0.00000  Uiso   1.00
C635   C     0.71014   0.85664   0.34257   0.00000  Uiso   1.00
C636   C     0.68549   0.85986   0.45840   0.00000  Uiso   1.00
C637   C     0.64215   0.83620   0.45009   0.00000  Uiso   1.00
C638   C     0.50944   0.81096   0.20605   0.00000  Uiso   1.00
C639   C     0.48824   0.83649   0.20615   0.00000  Uiso   1.00
C640   C     0.51422   0.80090   0.03765   0.00000  Uiso   1.00
C641   C     0.51226   0.71265   0.60838   0.00000  Uiso   1.00
C642   C     0.53344   0.74427   0.73897   0.00000  Uiso   1.00
C643   C     0.48722   0.67056   0.68639   0.00000  Uiso   1.00
F644   F     0.61851   0.83954   0.56357   0.00000  Uiso   1.00
F645   F     0.70468   0.88673   0.57834   0.00000  Uiso   1.00
H646   H     0.76776   0.90179   0.46003   0.00000  Uiso   1.00
H647   H     0.90634   0.91055   0.45387   0.00000  Uiso   1.00
H648   H     0.90601   0.98930   0.09598   0.00000  Uiso   1.00
H649   H     0.96044   0.03575   0.27879   0.00000  Uiso   1.00
H650   H     0.54068   0.83090   0.25658   0.00000  Uiso   1.00
H651   H     0.45937   0.82157   0.13849   0.00000  Uiso   1.00
H652   H     0.48138   0.84154   0.32695   0.00000  Uiso   1.00
H653   H     0.50877   0.86698   0.15329   0.00000  Uiso   1.00
H654   H     0.52977   0.82929  -0.03397   0.00000  Uiso   1.00
H655   H     0.53368   0.78665   0.03374   0.00000  Uiso   1.00
H656   H     0.48384   0.77955  -0.01355   0.00000  Uiso   1.00
H657   H     0.53625   0.71168   0.53444   0.00000  Uiso   1.00
H658   H     0.51001   0.74475   0.81517   0.00000  Uiso   1.00
H659   H     0.55375   0.73699   0.80959   0.00000  Uiso   1.00
H660   H     0.55370   0.77576   0.69344   0.00000  Uiso   1.00
H661   H     0.50765   0.66194   0.74925   0.00000  Uiso   1.00
H662   H     0.46516   0.67070   0.77176   0.00000  Uiso   1.00
H663   H     0.46993   0.64621   0.59984   0.00000  Uiso   1.00
C664   C     0.42212   0.21547   0.69192   0.00000  Uiso   1.00
N665   N     0.44704   0.21519   0.58750   0.00000  Uiso   1.00
C666   C     0.49104   0.23931   0.59701   0.00000  Uiso   1.00
C667   C     0.51308   0.22730   0.69739   0.00000  Uiso   1.00
C668   C     0.55610   0.25182   0.70606   0.00000  Uiso   1.00
C669   C     0.57775   0.28612   0.60922   0.00000  Uiso   1.00
C670   C     0.55563   0.29677   0.50588   0.00000  Uiso   1.00
C671   C     0.51235   0.27406   0.49897   0.00000  Uiso   1.00
C672   C     0.62359   0.31026   0.61295   0.00000  Uiso   1.00
C673   C     0.64448   0.35338   0.61307   0.00000  Uiso   1.00
C674   C     0.37680   0.18998   0.67591   0.00000  Uiso   1.00
C675   C     0.35215   0.19320   0.79174   0.00000  Uiso   1.00
C676   C     0.30881   0.16954   0.78343   0.00000  Uiso   1.00
C677   C     0.17610   0.14430   0.53939   0.00000  Uiso   1.00
C678   C     0.15490   0.16983   0.53949   0.00000  Uiso   1.00
C679   C     0.18088   0.13424   0.37099   0.00000  Uiso   1.00
C680   C     0.17892   0.04599   0.94172   0.00000  Uiso   1.00
C681   C     0.20010   0.07761   1.07231   0.00000  Uiso   1.00
C682   C     0.15388   0.00390   1.01973   0.00000  Uiso   1.00
F683   F     0.28517   0.17288   0.89691   0.00000  Uiso   1.00
F684   F     0.37134   0.22007   0.91168   0.00000  Uiso   1.00
H685   H     0.43442   0.23513   0.79337   0.00000  Uiso   1.00
H686   H     0.57300   0.24389   0.78721   0.00000  Uiso   1.00
H687   H     0.57267   0.32264   0.42932   0.00000  Uiso   1.00
H688   H     0.62710   0.36909   0.61213   0.00000  Uiso   1.00
H689   H     0.20734   0.16424   0.58992   0.00000  Uiso   1.00
H690   H     0.12603   0.15491   0.47183   0.00000  Uiso   1.00
H691   H     0.14804   0.17488   0.66029   0.00000  Uiso   1.00
H692   H     0.17543   0.20032   0.48663   0.00000  Uiso   1.00
H693   H     0.19643   0.16263   0.29937   0.00000  Uiso   1.00
H694   H     0.20034   0.11999   0.36708   0.00000  Uiso   1.00
H695   H     0.15050   0.11289   0.31979   0.00000  Uiso   1.00
H696   H     0.20291   0.04502   0.86778   0.00000  Uiso   1.00
H697   H     0.17667   0.07809   1.14851   0.00000  Uiso   1.00
H698   H     0.22041   0.07033   1.14293   0.00000  Uiso   1.00
H699   H     0.22036   0.10910   1.02678   0.00000  Uiso   1.00
H700   H     0.17431   0.99528   1.08259   0.00000  Uiso   1.00
H701   H     0.13182   0.00404   1.10510   0.00000  Uiso   1.00
H702   H     0.13659   0.97955   0.93318   0.00000  Uiso   1.00
loop_
_geom_bond_atom_site_label_1
_geom_bond_atom_site_label_2
_geom_bond_distance
_geom_bond_site_symmetry_2
_ccdc_geom_bond_type
C1     N2      1.300   .     D
C1     C11     1.492   .     S
C1     H22     1.083   .     S
N2     C3      1.444   .     S
C3     C4      1.418   .     S
C3     C8      1.419   .     D
C4     C5      1.414   .     D
C4     C365    1.504   .     S
C5     C6      1.404   .     S
C5     H23     1.081   .     S
C6     C7      1.405   .     D
C6     C9      1.500   .     S
C7     C8      1.417   .     S
C7     H24     1.080   .     S
C8     C368    1.556   .     S
C9     C10     1.411   .     S
C9     C127    1.381   .     D
C10    H25     1.083   .     S
C10    C243    1.381   .     D
C11    C12     1.404   .     S
C11    C364    1.392   .     D
C12    C13     1.421   .     D
C12    F21     1.367   .     S
C13    F20     1.365   .     S
C13    C362    1.392   .     S
C14    C15     1.531   .     S
C14    C16     1.520   .     S
C14    H26     1.121   .     S
C14    C355    1.504   .     S
C15    H27     1.107   .     S
C15    H28     1.103   .     S
C15    H29     1.113   .     S
C16    H30     1.113   .     S
C16    H31     1.107   .     S
C16    H32     1.110   .     S
C17    C18     1.534   .     S
C17    C19     1.537   .     S
C17    H33     1.120   .     S
C17    C359    1.556   .     S
C18    H34     1.106   .     S
C18    H35     1.113   .     S
C18    H36     1.114   .     S
C19    H37     1.114   .     S
C19    H38     1.109   .     S
C19    H39     1.103   .     S
C40    N41     1.300   .     D
C40    C50     1.492   .     S
C40    H61     1.083   .     S
N41    C42     1.444   .     S
C42    C43     1.418   .     S
C42    C47     1.419   .     D
C43    C44     1.414   .     D
C43    C404    1.504   .     S
C44    C45     1.404   .     S
C44    H62     1.081   .     S
C45    C46     1.405   .     D
C45    C48     1.500   .     S
C46    C47     1.417   .     S
C46    H63     1.080   .     S
C47    C407    1.556   .     S
C48    C49     1.411   .     S
C48    C166    1.381   .     D
C49    H64     1.083   .     S
C49    C282    1.381   .     D
C50    C51     1.404   .     S
C50    C403    1.392   .     D
C51    C52     1.421   .     D
C51    F60     1.367   .     S
C52    F59     1.365   .     S
C52    C401    1.392   .     S
C53    C55     1.520   .     S
C53    H65     1.121   .     S
C53    C394    1.504   .     S
C53    C54     1.531   1_565 S
C54    H66     1.107   .     S
C54    H67     1.103   .     S
C54    H68     1.113   .     S
C54    C53     1.531   1_545 S
C55    H69     1.113   .     S
C55    H70     1.107   .     S
C55    H71     1.110   .     S
C56    C57     1.534   .     S
C56    C58     1.537   .     S
C56    H72     1.120   .     S
C56    C398    1.556   .     S
C57    H73     1.106   .     S
C57    H74     1.113   .     S
C57    H75     1.114   .     S
C58    H77     1.109   .     S
C58    H76     1.114   1_455 S
C58    H78     1.103   1_455 S
H76    C58     1.114   1_655 S
H78    C58     1.103   1_655 S
C79    N80     1.300   .     D
C79    C89     1.492   .     S
C79    H100    1.083   .     S
N80    C81     1.444   .     S
C81    C82     1.418   .     S
C81    C86     1.419   .     D
C82    C83     1.414   .     D
C82    C443    1.504   .     S
C83    C84     1.404   .     S
C83    H101    1.081   .     S
C84    C85     1.405   .     D
C84    C87     1.500   .     S
C85    C86     1.417   .     S
C85    H102    1.080   .     S
C86    C446    1.556   .     S
C87    C88     1.411   1_655 S
C87    C205    1.381   1_545 D
C88    H103    1.083   .     S
C88    C321    1.381   .     D
C88    C87     1.411   1_455 S
C89    C90     1.404   .     S
C89    C442    1.392   .     D
C90    C91     1.421   .     D
C90    F99     1.367   .     S
C91    F98     1.365   .     S
C91    C440    1.392   .     S
C92    C93     1.531   .     S
C92    C94     1.520   .     S
C92    H104    1.121   .     S
C92    C433    1.504   .     S
C93    H105    1.107   .     S
C93    H106    1.103   .     S
C93    H107    1.113   .     S
C94    H108    1.113   .     S
C94    H109    1.107   .     S
C94    H110    1.110   .     S
C95    C96     1.534   .     S
C95    C97     1.537   .     S
C95    H111    1.120   .     S
C95    C437    1.556   .     S
C96    H112    1.106   .     S
C96    H113    1.113   .     S
C96    H114    1.114   .     S
C97    H115    1.114   .     S
C97    H116    1.109   .     S
C97    H117    1.103   .     S
C118   N119    1.300   .     D
C118   C128    1.492   .     S
C118   H139    1.083   .     S
N119   C120    1.444   .     S
C120   C121    1.418   .     D
C120   C125    1.419   .     S
C121   C122    1.414   .     S
C121   C482    1.504   .     S
C122   C123    1.404   .     D
C122   H140    1.081   .     S
C123   C124    1.405   .     S
C123   C126    1.500   .     S
C124   C125    1.417   .     D
C124   H141    1.080   .     S
C125   C485    1.556   .     S
C126   C127    1.411   .     S
C126   C244    1.381   .     D
C127   H142    1.083   .     S
C128   C129    1.404   .     D
C128   C481    1.392   .     S
C129   F138    1.367   .     S
C129   C130    1.421   1_545 S
C130   F137    1.365   .     S
C130   C479    1.392   .     D
C130   C129    1.421   1_565 S
C131   C132    1.531   .     S
C131   C133    1.520   .     S
C131   H143    1.121   .     S
C131   C472    1.504   .     S
C132   H144    1.107   .     S
C132   H145    1.103   .     S
C132   H146    1.113   .     S
C133   H147    1.113   .     S
C133   H148    1.107   .     S
C133   H149    1.110   .     S
C134   C135    1.534   .     S
C134   C136    1.537   .     S
C134   H150    1.120   .     S
C134   C476    1.556   .     S
C135   H151    1.106   .     S
C135   H152    1.113   .     S
C135   H153    1.114   .     S
C136   H154    1.114   .     S
C136   H155    1.109   .     S
C136   H156    1.103   .     S
C157   N158    1.300   .     D
C157   C167    1.492   .     S
C157   H178    1.083   .     S
N158   C159    1.444   .     S
C159   C160    1.418   .     D
C159   C164    1.419   .     S
C160   C161    1.414   .     S
C160   C521    1.504   .     S
C161   C162    1.404   .     D
C161   H179    1.081   .     S
C162   C163    1.405   .     S
C162   C165    1.500   .     S
C163   C164    1.417   .     D
C163   H180    1.080   .     S
C164   C524    1.556   .     S
C165   C166    1.411   .     S
C165   C283    1.381   .     D
C166   H181    1.083   .     S
C167   C168    1.404   .     D
C167   C520    1.392   .     S
C168   C169    1.421   .     S
C168   F177    1.367   .     S
C169   F176    1.365   .     S
C169   C518    1.392   .     D
C170   C172    1.520   .     S
C170   H182    1.121   .     S
C170   C511    1.504   .     S
C170   C171    1.531   1_455 S
C171   H183    1.107   .     S
C171   H184    1.103   .     S
C171   H185    1.113   .     S
C171   C170    1.531   1_655 S
C172   H186    1.113   .     S
C172   H187    1.107   .     S
C172   H188    1.110   .     S
C173   C174    1.534   .     S
C173   C175    1.537   .     S
C173   H189    1.120   .     S
C173   C515    1.556   .     S
C174   H190    1.106   .     S
C174   H191    1.113   .     S
C174   H192    1.114   .     S
C175   H193    1.114   .     S
C175   H194    1.109   .     S
C175   H195    1.103   .     S
C196   N197    1.300   .     D
C196   C206    1.492   .     S
C196   H217    1.083   .     S
N197   C198    1.444   .     S
C198   C199    1.418   .     D
C198   C203    1.419   .     S
C199   C200    1.414   .     S
C199   C560    1.504   .     S
C200   C201    1.404   .     D
C200   H218    1.081   .     S
C201   C202    1.405   .     S
C201   C204    1.500   .     S
C202   C203    1.417   .     D
C202   H219    1.080   .     S
C203   C563    1.556   .     S
C204   C205    1.411   .     S
C204   C322    1.381   1_655 D
C205   H220    1.083   .     S
C205   C87     1.381   1_565 D
C206   C207    1.404   .     D
C206   C559    1.392   .     S
C207   C208    1.421   .     S
C207   F216    1.367   .     S
C208   F215    1.365   .     S
C208   C557    1.392   .     D
C209   C210    1.531   .     S
C209   C211    1.520   .     S
C209   H221    1.121   .     S
C209   C550    1.504   .     S
C210   H222    1.107   .     S
C210   H223    1.103   .     S
C210   H224    1.113   .     S
C211   H225    1.113   .     S
C211   H226    1.107   .     S
C211   H227    1.110   .     S
C212   C213    1.534   .     S
C212   C214    1.537   .     S
C212   H228    1.120   .     S
C212   C554    1.556   .     S
C213   H229    1.106   .     S
C213   H230    1.113   .     S
C213   H231    1.114   .     S
C214   H232    1.114   .     S
C214   H233    1.109   .     S
C214   H234    1.103   .     S
C235   N236    1.300   .     D
C235   C245    1.492   .     S
C235   H256    1.083   .     S
N236   C237    1.444   .     S
C237   C238    1.418   .     D
C237   C242    1.419   .     S
C238   C239    1.414   .     S
C238   C599    1.504   .     S
C239   C240    1.404   .     D
C239   H257    1.081   .     S
C240   C241    1.405   .     S
C240   C243    1.500   .     S
C241   C242    1.417   .     D
C241   H258    1.080   .     S
C242   C602    1.556   .     S
C243   C244    1.411   .     S
C244   H259    1.083   .     S
C245   C246    1.404   .     S
C245   C598    1.392   .     D
C246   F255    1.367   .     S
C246   C247    1.421   1_655 D
C247   F254    1.365   .     S
C247   C596    1.392   .     S
C247   C246    1.421   1_455 D
C248   C249    1.531   .     S
C248   C250    1.520   .     S
C248   H260    1.121   .     S
C248   C589    1.504   .     S
C249   H261    1.107   .     S
C249   H262    1.103   .     S
C249   H263    1.113   .     S
C250   H264    1.113   .     S
C250   H265    1.107   .     S
C250   H266    1.110   .     S
C251   C252    1.534   .     S
C251   C253    1.537   .     S
C251   H267    1.120   .     S
C251   C593    1.556   .     S
C252   H268    1.106   .     S
C252   H269    1.113   .     S
C252   H270    1.114   .     S
C253   H271    1.114   .     S
C253   H272    1.109   .     S
C253   H273    1.103   .     S
C274   N275    1.300   .     D
C274   C284    1.492   .     S
C274   H295    1.083   .     S
N275   C276    1.444   .     S
C276   C277    1.418   .     D
C276   C281    1.419   .     S
C277   C278    1.414   .     S
C277   C638    1.504   .     S
C278   C279    1.404   .     D
C278   H296    1.081   .     S
C279   C280    1.405   .     S
C279   C282    1.500   .     S
C280   C281    1.417   .     D
C280   H297    1.080   .     S
C281   C641    1.556   .     S
C282   C283    1.411   .     S
C283   H298    1.083   .     S
C284   C285    1.404   .     S
C284   C637    1.392   .     D
C285   C286    1.421   .     D
C285   F294    1.367   .     S
C286   F293    1.365   .     S
C286   C635    1.392   .     S
C287   C288    1.531   .     S
C287   C289    1.520   .     S
C287   H299    1.121   .     S
C287   C628    1.504   .     S
C288   H300    1.107   .     S
C288   H301    1.103   .     S
C288   H302    1.113   .     S
C289   H303    1.113   .     S
C289   H304    1.107   .     S
C289   H305    1.110   .     S
C290   C291    1.534   .     S
C290   C292    1.537   .     S
C290   H306    1.120   .     S
C290   C632    1.556   .     S
C291   H307    1.106   .     S
C291   H308    1.113   .     S
C291   H309    1.114   .     S
C292   H311    1.109   .     S
C292   H310    1.114   1_565 S
C292   H312    1.103   1_565 S
H310   C292    1.114   1_545 S
H312   C292    1.103   1_545 S
C313   N314    1.300   .     D
C313   C323    1.492   .     S
C313   H334    1.083   .     S
N314   C315    1.444   .     S
C315   C316    1.418   .     D
C315   C320    1.419   .     S
C316   C317    1.414   .     S
C316   C677    1.504   .     S
C317   C318    1.404   .     D
C317   H335    1.081   .     S
C318   C319    1.405   .     S
C318   C321    1.500   .     S
C319   C320    1.417   .     D
C319   H336    1.080   .     S
C320   C680    1.556   .     S
C321   C322    1.411   1_545 S
C322   H337    1.083   .     S
C322   C204    1.381   1_455 D
C322   C321    1.411   1_565 S
C323   C324    1.404   .     S
C323   C676    1.392   .     D
C324   C325    1.421   .     D
C324   F333    1.367   .     S
C325   F332    1.365   .     S
C325   C674    1.392   .     S
C326   C327    1.531   .     S
C326   C328    1.520   .     S
C326   H338    1.121   .     S
C326   C667    1.504   .     S
C327   H339    1.107   .     S
C327   H340    1.103   .     S
C327   H341    1.113   .     S
C328   H342    1.113   .     S
C328   H343    1.107   .     S
C328   H344    1.110   .     S
C329   C330    1.534   .     S
C329   C331    1.537   .     S
C329   H345    1.120   .     S
C329   C671    1.556   .     S
C330   H346    1.106   .     S
C330   H347    1.113   .     S
C330   H348    1.114   .     S
C331   H349    1.114   .     S
C331   H350    1.109   .     S
C331   H351    1.103   .     S
C352   N353    1.300   .     D
C352   C362    1.492   .     S
C352   H373    1.083   .     S
N353   C354    1.444   .     S
C354   C355    1.418   .     S
C354   C359    1.419   .     D
C355   C356    1.414   .     D
C356   C357    1.404   .     S
C356   H374    1.081   .     S
C357   C358    1.405   .     D
C357   C360    1.500   .     S
C358   C359    1.417   .     S
C358   H375    1.080   .     S
C360   C361    1.411   .     D
C360   C478    1.381   .     S
C361   H376    1.083   .     S
C361   C594    1.381   .     S
C362   C363    1.404   .     D
C363   C364    1.421   .     S
C363   F372    1.367   .     S
C364   F371    1.365   .     S
C365   C366    1.531   .     S
C365   C367    1.520   .     S
C365   H377    1.121   .     S
C366   H378    1.107   .     S
C366   H379    1.103   .     S
C366   H380    1.113   .     S
C367   H381    1.113   .     S
C367   H382    1.107   .     S
C367   H383    1.110   .     S
C368   C369    1.534   .     S
C368   C370    1.537   .     S
C368   H384    1.120   .     S
C369   H385    1.106   .     S
C369   H386    1.113   .     S
C369   H387    1.114   .     S
C370   H388    1.114   .     S
C370   H389    1.109   .     S
C370   H390    1.103   .     S
C391   N392    1.300   .     D
C391   C401    1.492   .     S
C391   H412    1.083   .     S
N392   C393    1.444   .     S
C393   C394    1.418   .     S
C393   C398    1.419   .     D
C394   C395    1.414   .     D
C395   C396    1.404   .     S
C395   H413    1.081   .     S
C396   C397    1.405   .     D
C396   C399    1.500   .     S
C397   C398    1.417   .     S
C397   H414    1.080   .     S
C399   C400    1.411   1_455 S
C399   C517    1.381   1_565 D
C400   H415    1.083   .     S
C400   C633    1.381   .     D
C400   C399    1.411   1_655 S
C401   C402    1.404   .     D
C402   C403    1.421   .     S
C402   F411    1.367   .     S
C403   F410    1.365   .     S
C404   C405    1.531   .     S
C404   C406    1.520   .     S
C404   H416    1.121   .     S
C405   H417    1.107   .     S
C405   H418    1.103   .     S
C405   H419    1.113   .     S
C406   H420    1.113   .     S
C406   H421    1.107   .     S
C406   H422    1.110   .     S
C407   C408    1.534   .     S
C407   C409    1.537   .     S
C407   H423    1.120   .     S
C408   H424    1.106   .     S
C408   H425    1.113   .     S
C408   H426    1.114   .     S
C409   H427    1.114   .     S
C409   H428    1.109   .     S
C409   H429    1.103   .     S
C430   N431    1.300   .     D
C430   C440    1.492   .     S
C430   H451    1.083   .     S
N431   C432    1.444   .     S
C432   C433    1.418   .     S
C432   C437    1.419   .     D
C433   C434    1.414   .     D
C434   C435    1.404   .     S
C434   H452    1.081   .     S
C435   C436    1.405   .     D
C435   C438    1.500   .     S
C436   C437    1.417   .     S
C436   H453    1.080   .     S
C438   C439    1.411   .     D
C438   C556    1.381   .     S
C439   H454    1.083   .     S
C439   C672    1.381   .     S
C440   C441    1.404   .     D
C441   C442    1.421   .     S
C441   F450    1.367   .     S
C442   F449    1.365   .     S
C443   C445    1.520   .     S
C443   H455    1.121   .     S
C443   C444    1.531   1_545 S
C444   H456    1.107   .     S
C444   H457    1.103   .     S
C444   H458    1.113   .     S
C444   C443    1.531   1_565 S
C445   H459    1.113   .     S
C445   H460    1.107   .     S
C445   H461    1.110   .     S
C446   C447    1.534   .     S
C446   C448    1.537   .     S
C446   H462    1.120   .     S
C447   H463    1.106   .     S
C447   H464    1.113   .     S
C447   H465    1.114   .     S
C448   H467    1.109   .     S
C448   H466    1.114   1_655 S
C448   H468    1.103   1_655 S
H466   C448    1.114   1_455 S
H468   C448    1.103   1_455 S
C469   N470    1.300   .     D
C469   C479    1.492   .     S
C469   H490    1.083   .     S
N470   C471    1.444   .     S
C471   C472    1.418   .     D
C471   C476    1.419   .     S
C472   C473    1.414   .     S
C473   C474    1.404   .     D
C473   H491    1.081   .     S
C474   C475    1.405   .     S
C474   C477    1.500   .     S
C475   C476    1.417   .     D
C475   H492    1.080   .     S
C477   C478    1.411   .     D
C477   C595    1.381   .     S
C478   H493    1.083   .     S
C479   C480    1.404   .     S
C480   F489    1.367   .     S
C480   C481    1.421   1_565 D
C481   F488    1.365   .     S
C481   C480    1.421   1_545 D
C482   C483    1.531   .     S
C482   C484    1.520   .     S
C482   H494    1.121   .     S
C483   H495    1.107   .     S
C483   H496    1.103   .     S
C483   H497    1.113   .     S
C484   H498    1.113   .     S
C484   H499    1.107   .     S
C484   H500    1.110   .     S
C485   C486    1.534   .     S
C485   C487    1.537   .     S
C485   H501    1.120   .     S
C486   H502    1.106   .     S
C486   H503    1.113   .     S
C486   H504    1.114   .     S
C487   H505    1.114   .     S
C487   H506    1.109   .     S
C487   H507    1.103   .     S
C508   N509    1.300   .     D
C508   C518    1.492   .     S
C508   H529    1.083   .     S
N509   C510    1.444   .     S
C510   C511    1.418   .     D
C510   C515    1.419   .     S
C511   C512    1.414   .     S
C512   C513    1.404   .     D
C512   H530    1.081   .     S
C513   C514    1.405   .     S
C513   C516    1.500   .     S
C514   C515    1.417   .     D
C514   H531    1.080   .     S
C516   C517    1.411   .     S
C516   C634    1.381   1_455 D
C517   H532    1.083   .     S
C517   C399    1.381   1_545 D
C518   C519    1.404   .     S
C519   C520    1.421   .     D
C519   F528    1.367   .     S
C520   F527    1.365   .     S
C521   C522    1.531   .     S
C521   C523    1.520   .     S
C521   H533    1.121   .     S
C522   H534    1.107   .     S
C522   H535    1.103   .     S
C522   H536    1.113   .     S
C523   H537    1.113   .     S
C523   H538    1.107   .     S
C523   H539    1.110   .     S
C524   C525    1.534   .     S
C524   C526    1.537   .     S
C524   H540    1.120   .     S
C525   H541    1.106   .     S
C525   H542    1.113   .     S
C525   H543    1.114   .     S
C526   H544    1.114   .     S
C526   H545    1.109   .     S
C526   H546    1.103   .     S
C547   N548    1.300   .     D
C547   C557    1.492   .     S
C547   H568    1.083   .     S
N548   C549    1.444   .     S
C549   C550    1.418   .     D
C549   C554    1.419   .     S
C550   C551    1.414   .     S
C551   C552    1.404   .     D
C551   H569    1.081   .     S
C552   C553    1.405   .     S
C552   C555    1.500   .     S
C553   C554    1.417   .     D
C553   H570    1.080   .     S
C555   C556    1.411   .     D
C555   C673    1.381   .     S
C556   H571    1.083   .     S
C557   C558    1.404   .     S
C558   C559    1.421   .     D
C558   F567    1.367   .     S
C559   F566    1.365   .     S
C560   C562    1.520   .     S
C560   H572    1.121   .     S
C560   C561    1.531   1_655 S
C561   H573    1.107   .     S
C561   H574    1.103   .     S
C561   H575    1.113   .     S
C561   C560    1.531   1_455 S
C562   H576    1.113   .     S
C562   H577    1.107   .     S
C562   H578    1.110   .     S
C563   C564    1.534   .     S
C563   C565    1.537   .     S
C563   H579    1.120   .     S
C564   H580    1.106   .     S
C564   H581    1.113   .     S
C564   H582    1.114   .     S
C565   H583    1.114   .     S
C565   H584    1.109   .     S
C565   H585    1.103   .     S
C586   N587    1.300   .     D
C586   C596    1.492   .     S
C586   H607    1.083   .     S
N587   C588    1.444   .     S
C588   C589    1.418   .     D
C588   C593    1.419   .     S
C589   C590    1.414   .     S
C590   C591    1.404   .     D
C590   H608    1.081   .     S
C591   C592    1.405   .     S
C591   C594    1.500   .     S
C592   C593    1.417   .     D
C592   H609    1.080   .     S
C594   C595    1.411   .     D
C595   H610    1.083   .     S
C596   C597    1.404   .     D
C597   F606    1.367   .     S
C597   C598    1.421   1_455 S
C598   F605    1.365   .     S
C598   C597    1.421   1_655 S
C599   C600    1.531   .     S
C599   C601    1.520   .     S
C599   H611    1.121   .     S
C600   H612    1.107   .     S
C600   H613    1.103   .     S
C600   H614    1.113   .     S
C601   H615    1.113   .     S
C601   H616    1.107   .     S
C601   H617    1.110   .     S
C602   C603    1.534   .     S
C602   C604    1.537   .     S
C602   H618    1.120   .     S
C603   H619    1.106   .     S
C603   H620    1.113   .     S
C603   H621    1.114   .     S
C604   H622    1.114   .     S
C604   H623    1.109   .     S
C604   H624    1.103   .     S
C625   N626    1.300   .     D
C625   C635    1.492   .     S
C625   H646    1.083   .     S
N626   C627    1.444   .     S
C627   C628    1.418   .     D
C627   C632    1.419   .     S
C628   C629    1.414   .     S
C629   C630    1.404   .     D
C629   H647    1.081   .     S
C630   C631    1.405   .     S
C630   C633    1.500   .     S
C631   C632    1.417   .     D
C631   H648    1.080   .     S
C633   C634    1.411   1_565 S
C634   H649    1.083   .     S
C634   C516    1.381   1_655 D
C634   C633    1.411   1_545 S
C635   C636    1.404   .     D
C636   C637    1.421   .     S
C636   F645    1.367   .     S
C637   F644    1.365   .     S
C638   C639    1.531   .     S
C638   C640    1.520   .     S
C638   H650    1.121   .     S
C639   H651    1.107   .     S
C639   H652    1.103   .     S
C639   H653    1.113   .     S
C640   H654    1.113   .     S
C640   H655    1.107   .     S
C640   H656    1.110   .     S
C641   C642    1.534   .     S
C641   C643    1.537   .     S
C641   H657    1.120   .     S
C642   H658    1.106   .     S
C642   H659    1.113   .     S
C642   H660    1.114   .     S
C643   H661    1.114   .     S
C643   H662    1.109   .     S
C643   H663    1.103   .     S
C664   N665    1.300   .     D
C664   C674    1.492   .     S
C664   H685    1.083   .     S
N665   C666    1.444   .     S
C666   C667    1.418   .     D
C666   C671    1.419   .     S
C667   C668    1.414   .     S
C668   C669    1.404   .     D
C668   H686    1.081   .     S
C669   C670    1.405   .     S
C669   C672    1.500   .     S
C670   C671    1.417   .     D
C670   H687    1.080   .     S
C672   C673    1.411   .     D
C673   H688    1.083   .     S
C674   C675    1.404   .     D
C675   C676    1.421   .     S
C675   F684    1.367   .     S
C676   F683    1.365   .     S
C677   C678    1.531   .     S
C677   C679    1.520   .     S
C677   H689    1.121   .     S
C678   H690    1.107   .     S
C678   H691    1.103   .     S
C678   H692    1.113   .     S
C679   H693    1.113   .     S
C679   H694    1.107   .     S
C679   H695    1.110   .     S
C680   C681    1.534   .     S
C680   C682    1.537   .     S
C680   H696    1.120   .     S
C681   H697    1.106   .     S
C681   H698    1.113   .     S
C681   H699    1.114   .     S
C682   H701    1.109   .     S
C682   H700    1.114   1_545 S
C682   H702    1.103   1_545 S
H700   C682    1.114   1_565 S
H702   C682    1.103   1_565 S
