data_764
_audit_creation_date              2023-09-08
_audit_creation_method            'Materials Studio'
_symmetry_space_group_name_H-M    'P1'
_symmetry_Int_Tables_number       1
_symmetry_cell_setting            triclinic
loop_
_symmetry_equiv_pos_as_xyz
  x,y,z
_cell_length_a                    37.4583
_cell_length_b                    37.4583
_cell_length_c                    9.4002
_cell_angle_alpha                 90.0000
_cell_angle_beta                  90.0000
_cell_angle_gamma                 120.0000
loop_
_atom_site_label
_atom_site_type_symbol
_atom_site_fract_x
_atom_site_fract_y
_atom_site_fract_z
_atom_site_U_iso_or_equiv
_atom_site_adp_type
_atom_site_occupancy
C1     C     0.97801   0.02164   0.31111   0.00000  Uiso   1.00
C2     C     0.95687   0.97825   0.31233   0.00000  Uiso   1.00
F3     F     0.91497   0.95702   0.31177   0.00000  Uiso   1.00
C4     C     0.95475   0.04429   0.29680   0.00000  Uiso   1.00
C5     C     0.92044   0.03431   0.38234   0.00000  Uiso   1.00
C6     C     0.89632   0.05320   0.36248   0.00000  Uiso   1.00
C7     C     0.90653   0.08251   0.25158   0.00000  Uiso   1.00
C8     C     0.94118   0.09257   0.16259   0.00000  Uiso   1.00
C9     C     0.96545   0.07423   0.19075   0.00000  Uiso   1.00
C10    C     0.86045   0.04289   0.46384   0.00000  Uiso   1.00
C11    C     0.87612   0.05537   0.61649   0.00000  Uiso   1.00
C12    C     0.82795   0.99690   0.46023   0.00000  Uiso   1.00
C13    C     0.95148   0.12045   0.03221   0.00000  Uiso   1.00
C14    C     0.99122   0.16168   0.05479   0.00000  Uiso   1.00
C15    C     0.95598   0.09991  -0.10237   0.00000  Uiso   1.00
N16    N     0.87974   0.09934   0.22744   0.00000  Uiso   1.00
C17    C     0.89124   0.13834   0.22275   0.00000  Uiso   1.00
C18    C     0.86112   0.15218   0.19431   0.00000  Uiso   1.00
C19    C     0.87357   0.18782   0.11301   0.00000  Uiso   1.00
C20    C     0.84580   0.20237   0.08442   0.00000  Uiso   1.00
F21    F     0.80981   0.09763   0.33463   0.00000  Uiso   1.00
F22    F     0.75401   0.12632   0.27381   0.00000  Uiso   1.00
H23    H     0.91269   0.01164   0.46559   0.00000  Uiso   1.00
H24    H     0.99205   0.08190   0.12518   0.00000  Uiso   1.00
H25    H     0.84450   0.06047   0.43246   0.00000  Uiso   1.00
H26    H     0.90043   0.08838   0.61994   0.00000  Uiso   1.00
H27    H     0.88939   0.03678   0.65899   0.00000  Uiso   1.00
H28    H     0.85066   0.05137   0.68748   0.00000  Uiso   1.00
H29    H     0.81438   0.98825   0.35199   0.00000  Uiso   1.00
H30    H     0.80224   0.99042   0.53428   0.00000  Uiso   1.00
H31    H     0.84097   0.97707   0.49082   0.00000  Uiso   1.00
H32    H     0.92591   0.12684   0.01015   0.00000  Uiso   1.00
H33    H     0.98925   0.17717   0.15265   0.00000  Uiso   1.00
H34    H     0.99651   0.18290  -0.03595   0.00000  Uiso   1.00
H35    H     0.01841   0.15750   0.06365   0.00000  Uiso   1.00
H36    H     0.98481   0.09836  -0.10365   0.00000  Uiso   1.00
H37    H     0.95644   0.11718  -0.19853   0.00000  Uiso   1.00
H38    H     0.92989   0.06801  -0.11376   0.00000  Uiso   1.00
H39    H     0.92351   0.16148   0.23350   0.00000  Uiso   1.00
C40    C     0.64468   0.35497   0.64444   0.00000  Uiso   1.00
C41    C     0.62354   0.31158   0.64566   0.00000  Uiso   1.00
F42    F     0.58164   0.29035   0.64510   0.00000  Uiso   1.00
C43    C     0.62142   0.37762   0.63013   0.00000  Uiso   1.00
C44    C     0.58711   0.36764   0.71567   0.00000  Uiso   1.00
C45    C     0.56299   0.38653   0.69581   0.00000  Uiso   1.00
C46    C     0.57320   0.41584   0.58491   0.00000  Uiso   1.00
C47    C     0.60785   0.42590   0.49592   0.00000  Uiso   1.00
C48    C     0.63212   0.40756   0.52408   0.00000  Uiso   1.00
C49    C     0.52712   0.37622   0.79717   0.00000  Uiso   1.00
C50    C     0.54279   0.38870   0.94982   0.00000  Uiso   1.00
C51    C     0.49462   0.33023   0.79356   0.00000  Uiso   1.00
C52    C     0.61815   0.45378   0.36554   0.00000  Uiso   1.00
C53    C     0.65789   0.49501   0.38812   0.00000  Uiso   1.00
C54    C     0.62265   0.43324   0.23096   0.00000  Uiso   1.00
N55    N     0.54641   0.43267   0.56077   0.00000  Uiso   1.00
C56    C     0.55791   0.47167   0.55608   0.00000  Uiso   1.00
C57    C     0.52779   0.48551   0.52764   0.00000  Uiso   1.00
C58    C     0.54024   0.52115   0.44634   0.00000  Uiso   1.00
C59    C     0.51247   0.53570   0.41775   0.00000  Uiso   1.00
F60    F     0.47648   0.43096   0.66796   0.00000  Uiso   1.00
F61    F     0.42068   0.45965   0.60714   0.00000  Uiso   1.00
H62    H     0.57936   0.34497   0.79892   0.00000  Uiso   1.00
H63    H     0.65872   0.41523   0.45851   0.00000  Uiso   1.00
H64    H     0.51117   0.39380   0.76579   0.00000  Uiso   1.00
H65    H     0.56710   0.42171   0.95327   0.00000  Uiso   1.00
H66    H     0.55606   0.37011   0.99232   0.00000  Uiso   1.00
H67    H     0.51733   0.38470   1.02081   0.00000  Uiso   1.00
H68    H     0.48105   0.32158   0.68532   0.00000  Uiso   1.00
H69    H     0.46891   0.32375   0.86761   0.00000  Uiso   1.00
H70    H     0.50764   0.31040   0.82415   0.00000  Uiso   1.00
H71    H     0.59258   0.46017   0.34348   0.00000  Uiso   1.00
H72    H     0.65592   0.51050   0.48598   0.00000  Uiso   1.00
H73    H     0.66318   0.51623   0.29738   0.00000  Uiso   1.00
H74    H     0.68508   0.49083   0.39698   0.00000  Uiso   1.00
H75    H     0.65148   0.43169   0.22968   0.00000  Uiso   1.00
H76    H     0.62311   0.45051   0.13480   0.00000  Uiso   1.00
H77    H     0.59656   0.40134   0.21957   0.00000  Uiso   1.00
H78    H     0.59018   0.49481   0.56683   0.00000  Uiso   1.00
C79    C     0.31134   0.68831   0.97778   0.00000  Uiso   1.00
C80    C     0.29020   0.64492   0.97900   0.00000  Uiso   1.00
F81    F     0.24830   0.62369   0.97844   0.00000  Uiso   1.00
C82    C     0.28808   0.71096   0.96347   0.00000  Uiso   1.00
C83    C     0.25377   0.70098   1.04901   0.00000  Uiso   1.00
C84    C     0.22965   0.71987   1.02915   0.00000  Uiso   1.00
C85    C     0.23986   0.74918   0.91825   0.00000  Uiso   1.00
C86    C     0.27451   0.75924   0.82926   0.00000  Uiso   1.00
C87    C     0.29878   0.74090   0.85742   0.00000  Uiso   1.00
C88    C     0.19378   0.70956   1.13051   0.00000  Uiso   1.00
C89    C     0.20945   0.72204   1.28316   0.00000  Uiso   1.00
C90    C     0.16128   0.66357   1.12690   0.00000  Uiso   1.00
C91    C     0.28481   0.78712   0.69888   0.00000  Uiso   1.00
C92    C     0.32455   0.82835   0.72146   0.00000  Uiso   1.00
C93    C     0.28931   0.76658   0.56430   0.00000  Uiso   1.00
N94    N     0.21307   0.76601   0.89411   0.00000  Uiso   1.00
C95    C     0.22457   0.80501   0.88942   0.00000  Uiso   1.00
C96    C     0.19445   0.81885   0.86098   0.00000  Uiso   1.00
C97    C     0.20690   0.85449   0.77968   0.00000  Uiso   1.00
C98    C     0.17913   0.86904   0.75109   0.00000  Uiso   1.00
F99    F     0.14314   0.76430   1.00130   0.00000  Uiso   1.00
F100   F     0.08734   0.79299   0.94048   0.00000  Uiso   1.00
H101   H     0.24602   0.67831   1.13226   0.00000  Uiso   1.00
H102   H     0.32538   0.74857   0.79185   0.00000  Uiso   1.00
H103   H     0.17783   0.72714   1.09913   0.00000  Uiso   1.00
H104   H     0.23376   0.75505   1.28661   0.00000  Uiso   1.00
H105   H     0.22272   0.70345   1.32566   0.00000  Uiso   1.00
H106   H     0.18399   0.71804   1.35415   0.00000  Uiso   1.00
H107   H     0.14771   0.65492   1.01866   0.00000  Uiso   1.00
H108   H     0.13557   0.65709   1.20095   0.00000  Uiso   1.00
H109   H     0.17430   0.64374   1.15749   0.00000  Uiso   1.00
H110   H     0.25924   0.79351   0.67682   0.00000  Uiso   1.00
H111   H     0.32258   0.84384   0.81932   0.00000  Uiso   1.00
H112   H     0.32984   0.84957   0.63072   0.00000  Uiso   1.00
H113   H     0.35174   0.82417   0.73032   0.00000  Uiso   1.00
H114   H     0.31814   0.76503   0.56302   0.00000  Uiso   1.00
H115   H     0.28977   0.78385   0.46814   0.00000  Uiso   1.00
H116   H     0.26322   0.73468   0.55291   0.00000  Uiso   1.00
H117   H     0.25684   0.82815   0.90017   0.00000  Uiso   1.00
C118   C     0.97836   0.95637   0.31111   0.00000  Uiso   1.00
C119   C     0.02175   0.97862   0.31233   0.00000  Uiso   1.00
F120   F     0.04298   0.95795   0.31177   0.00000  Uiso   1.00
C121   C     0.95571   0.91046   0.29680   0.00000  Uiso   1.00
C122   C     0.96569   0.88613   0.38234   0.00000  Uiso   1.00
C123   C     0.94680   0.84312   0.36248   0.00000  Uiso   1.00
C124   C     0.91749   0.82402   0.25158   0.00000  Uiso   1.00
C125   C     0.90743   0.84861   0.16259   0.00000  Uiso   1.00
C126   C     0.92577   0.89122   0.19075   0.00000  Uiso   1.00
C127   C     0.95711   0.81756   0.46384   0.00000  Uiso   1.00
C128   C     0.94463   0.82075   0.61649   0.00000  Uiso   1.00
C129   C     0.00310   0.83105   0.46023   0.00000  Uiso   1.00
C130   C     0.87955   0.83103   0.03221   0.00000  Uiso   1.00
C131   C     0.83832   0.82954   0.05479   0.00000  Uiso   1.00
C132   C     0.90009   0.85607  -0.10237   0.00000  Uiso   1.00
N133   N     0.90066   0.78040   0.22744   0.00000  Uiso   1.00
C134   C     0.86166   0.75290   0.22275   0.00000  Uiso   1.00
C135   C     0.84782   0.70894   0.19431   0.00000  Uiso   1.00
C136   C     0.81218   0.68575   0.11301   0.00000  Uiso   1.00
C137   C     0.79763   0.64343   0.08442   0.00000  Uiso   1.00
F138   F     0.90237   0.71218   0.33463   0.00000  Uiso   1.00
F139   F     0.87368   0.62769   0.27381   0.00000  Uiso   1.00
H140   H     0.98836   0.90105   0.46559   0.00000  Uiso   1.00
H141   H     0.91810   0.91015   0.12518   0.00000  Uiso   1.00
H142   H     0.93953   0.78403   0.43246   0.00000  Uiso   1.00
H143   H     0.91162   0.81205   0.61994   0.00000  Uiso   1.00
H144   H     0.96322   0.85261   0.65899   0.00000  Uiso   1.00
H145   H     0.94863   0.79929   0.68748   0.00000  Uiso   1.00
H146   H     0.01175   0.82613   0.35199   0.00000  Uiso   1.00
H147   H     0.00958   0.81182   0.53428   0.00000  Uiso   1.00
H148   H     0.02293   0.86390   0.49082   0.00000  Uiso   1.00
H149   H     0.87316   0.79907   0.01015   0.00000  Uiso   1.00
H150   H     0.82283   0.81208   0.15265   0.00000  Uiso   1.00
H151   H     0.81710   0.81361  -0.03595   0.00000  Uiso   1.00
H152   H     0.84250   0.86091   0.06365   0.00000  Uiso   1.00
H153   H     0.90164   0.88645  -0.10365   0.00000  Uiso   1.00
H154   H     0.88282   0.83926  -0.19853   0.00000  Uiso   1.00
H155   H     0.93199   0.86188  -0.11376   0.00000  Uiso   1.00
H156   H     0.83852   0.76203   0.23350   0.00000  Uiso   1.00
C157   C     0.64503   0.28970   0.64444   0.00000  Uiso   1.00
C158   C     0.68842   0.31195   0.64566   0.00000  Uiso   1.00
F159   F     0.70965   0.29128   0.64510   0.00000  Uiso   1.00
C160   C     0.62238   0.24379   0.63013   0.00000  Uiso   1.00
C161   C     0.63236   0.21946   0.71567   0.00000  Uiso   1.00
C162   C     0.61347   0.17645   0.69581   0.00000  Uiso   1.00
C163   C     0.58416   0.15735   0.58491   0.00000  Uiso   1.00
C164   C     0.57410   0.18194   0.49592   0.00000  Uiso   1.00
C165   C     0.59244   0.22455   0.52408   0.00000  Uiso   1.00
C166   C     0.62378   0.15089   0.79717   0.00000  Uiso   1.00
C167   C     0.61130   0.15408   0.94982   0.00000  Uiso   1.00
C168   C     0.66977   0.16438   0.79356   0.00000  Uiso   1.00
C169   C     0.54622   0.16436   0.36554   0.00000  Uiso   1.00
C170   C     0.50499   0.16287   0.38812   0.00000  Uiso   1.00
C171   C     0.56676   0.18940   0.23096   0.00000  Uiso   1.00
N172   N     0.56733   0.11373   0.56077   0.00000  Uiso   1.00
C173   C     0.52833   0.08623   0.55608   0.00000  Uiso   1.00
C174   C     0.51449   0.04227   0.52764   0.00000  Uiso   1.00
C175   C     0.47885   0.01908   0.44634   0.00000  Uiso   1.00
C176   C     0.46430   0.97676   0.41775   0.00000  Uiso   1.00
F177   F     0.56904   0.04551   0.66796   0.00000  Uiso   1.00
F178   F     0.54035   0.96102   0.60714   0.00000  Uiso   1.00
H179   H     0.65503   0.23438   0.79892   0.00000  Uiso   1.00
H180   H     0.58477   0.24348   0.45851   0.00000  Uiso   1.00
H181   H     0.60620   0.11736   0.76579   0.00000  Uiso   1.00
H182   H     0.57829   0.14538   0.95327   0.00000  Uiso   1.00
H183   H     0.62989   0.18594   0.99232   0.00000  Uiso   1.00
H184   H     0.61530   0.13262   1.02081   0.00000  Uiso   1.00
H185   H     0.67842   0.15946   0.68532   0.00000  Uiso   1.00
H186   H     0.67625   0.14515   0.86761   0.00000  Uiso   1.00
H187   H     0.68960   0.19723   0.82415   0.00000  Uiso   1.00
H188   H     0.53983   0.13240   0.34348   0.00000  Uiso   1.00
H189   H     0.48950   0.14541   0.48598   0.00000  Uiso   1.00
H190   H     0.48377   0.14694   0.29738   0.00000  Uiso   1.00
H191   H     0.50917   0.19424   0.39698   0.00000  Uiso   1.00
H192   H     0.56831   0.21978   0.22968   0.00000  Uiso   1.00
H193   H     0.54949   0.17259   0.13480   0.00000  Uiso   1.00
H194   H     0.59866   0.19521   0.21957   0.00000  Uiso   1.00
H195   H     0.50519   0.09536   0.56683   0.00000  Uiso   1.00
C196   C     0.31169   0.62304   0.97778   0.00000  Uiso   1.00
C197   C     0.35508   0.64529   0.97900   0.00000  Uiso   1.00
F198   F     0.37631   0.62462   0.97844   0.00000  Uiso   1.00
C199   C     0.28904   0.57713   0.96347   0.00000  Uiso   1.00
C200   C     0.29902   0.55280   1.04901   0.00000  Uiso   1.00
C201   C     0.28013   0.50979   1.02915   0.00000  Uiso   1.00
C202   C     0.25082   0.49069   0.91825   0.00000  Uiso   1.00
C203   C     0.24076   0.51528   0.82926   0.00000  Uiso   1.00
C204   C     0.25910   0.55789   0.85742   0.00000  Uiso   1.00
C205   C     0.29044   0.48423   1.13051   0.00000  Uiso   1.00
C206   C     0.27796   0.48742   1.28316   0.00000  Uiso   1.00
C207   C     0.33643   0.49772   1.12690   0.00000  Uiso   1.00
C208   C     0.21288   0.49770   0.69888   0.00000  Uiso   1.00
C209   C     0.17165   0.49621   0.72146   0.00000  Uiso   1.00
C210   C     0.23342   0.52274   0.56430   0.00000  Uiso   1.00
N211   N     0.23399   0.44707   0.89411   0.00000  Uiso   1.00
C212   C     0.19499   0.41957   0.88942   0.00000  Uiso   1.00
C213   C     0.18115   0.37561   0.86098   0.00000  Uiso   1.00
C214   C     0.14551   0.35242   0.77968   0.00000  Uiso   1.00
C215   C     0.13096   0.31010   0.75109   0.00000  Uiso   1.00
F216   F     0.23570   0.37885   1.00130   0.00000  Uiso   1.00
F217   F     0.20701   0.29436   0.94048   0.00000  Uiso   1.00
H218   H     0.32169   0.56772   1.13226   0.00000  Uiso   1.00
H219   H     0.25143   0.57682   0.79185   0.00000  Uiso   1.00
H220   H     0.27286   0.45070   1.09913   0.00000  Uiso   1.00
H221   H     0.24495   0.47872   1.28661   0.00000  Uiso   1.00
H222   H     0.29655   0.51928   1.32566   0.00000  Uiso   1.00
H223   H     0.28196   0.46596   1.35415   0.00000  Uiso   1.00
H224   H     0.34508   0.49280   1.01866   0.00000  Uiso   1.00
H225   H     0.34291   0.47849   1.20095   0.00000  Uiso   1.00
H226   H     0.35626   0.53057   1.15749   0.00000  Uiso   1.00
H227   H     0.20649   0.46574   0.67682   0.00000  Uiso   1.00
H228   H     0.15616   0.47875   0.81932   0.00000  Uiso   1.00
H229   H     0.15043   0.48028   0.63072   0.00000  Uiso   1.00
H230   H     0.17583   0.52758   0.73032   0.00000  Uiso   1.00
H231   H     0.23497   0.55312   0.56302   0.00000  Uiso   1.00
H232   H     0.21615   0.50593   0.46814   0.00000  Uiso   1.00
H233   H     0.26532   0.52855   0.55291   0.00000  Uiso   1.00
H234   H     0.17185   0.42870   0.90017   0.00000  Uiso   1.00
C235   C     0.04363   0.02199   0.31111   0.00000  Uiso   1.00
C236   C     0.02138   0.04313   0.31233   0.00000  Uiso   1.00
F237   F     0.04205   0.08503   0.31177   0.00000  Uiso   1.00
C238   C     0.08954   0.04525   0.29680   0.00000  Uiso   1.00
C239   C     0.11387   0.07956   0.38234   0.00000  Uiso   1.00
C240   C     0.15688   0.10368   0.36248   0.00000  Uiso   1.00
C241   C     0.17598   0.09347   0.25158   0.00000  Uiso   1.00
C242   C     0.15139   0.05882   0.16259   0.00000  Uiso   1.00
C243   C     0.10878   0.03455   0.19075   0.00000  Uiso   1.00
C244   C     0.18244   0.13955   0.46384   0.00000  Uiso   1.00
C245   C     0.17925   0.12388   0.61649   0.00000  Uiso   1.00
C246   C     0.16895   0.17205   0.46023   0.00000  Uiso   1.00
C247   C     0.16897   0.04852   0.03221   0.00000  Uiso   1.00
C248   C     0.17046   0.00878   0.05479   0.00000  Uiso   1.00
C249   C     0.14393   0.04402  -0.10237   0.00000  Uiso   1.00
N250   N     0.21960   0.12026   0.22744   0.00000  Uiso   1.00
C251   C     0.24710   0.10876   0.22275   0.00000  Uiso   1.00
C252   C     0.29106   0.13888   0.19431   0.00000  Uiso   1.00
C253   C     0.31425   0.12643   0.11301   0.00000  Uiso   1.00
C254   C     0.35657   0.15420   0.08442   0.00000  Uiso   1.00
F255   F     0.28782   0.19019   0.33463   0.00000  Uiso   1.00
F256   F     0.37231   0.24599   0.27381   0.00000  Uiso   1.00
H257   H     0.09895   0.08731   0.46559   0.00000  Uiso   1.00
H258   H     0.08985   0.00795   0.12518   0.00000  Uiso   1.00
H259   H     0.21597   0.15550   0.43246   0.00000  Uiso   1.00
H260   H     0.18795   0.09957   0.61994   0.00000  Uiso   1.00
H261   H     0.14739   0.11061   0.65899   0.00000  Uiso   1.00
H262   H     0.20071   0.14934   0.68748   0.00000  Uiso   1.00
H263   H     0.17387   0.18562   0.35199   0.00000  Uiso   1.00
H264   H     0.18818   0.19776   0.53428   0.00000  Uiso   1.00
H265   H     0.13610   0.15903   0.49082   0.00000  Uiso   1.00
H266   H     0.20093   0.07409   0.01015   0.00000  Uiso   1.00
H267   H     0.18792   0.01075   0.15265   0.00000  Uiso   1.00
H268   H     0.18639   0.00349  -0.03595   0.00000  Uiso   1.00
H269   H     0.13909   0.98159   0.06365   0.00000  Uiso   1.00
H270   H     0.11355   0.01519  -0.10365   0.00000  Uiso   1.00
H271   H     0.16074   0.04356  -0.19853   0.00000  Uiso   1.00
H272   H     0.13812   0.07011  -0.11376   0.00000  Uiso   1.00
H273   H     0.23797   0.07649   0.23350   0.00000  Uiso   1.00
C274   C     0.71030   0.35532   0.64444   0.00000  Uiso   1.00
C275   C     0.68805   0.37646   0.64566   0.00000  Uiso   1.00
F276   F     0.70872   0.41836   0.64510   0.00000  Uiso   1.00
C277   C     0.75621   0.37858   0.63013   0.00000  Uiso   1.00
C278   C     0.78054   0.41289   0.71567   0.00000  Uiso   1.00
C279   C     0.82355   0.43701   0.69581   0.00000  Uiso   1.00
C280   C     0.84265   0.42680   0.58491   0.00000  Uiso   1.00
C281   C     0.81806   0.39215   0.49592   0.00000  Uiso   1.00
C282   C     0.77545   0.36788   0.52408   0.00000  Uiso   1.00
C283   C     0.84911   0.47288   0.79717   0.00000  Uiso   1.00
C284   C     0.84592   0.45721   0.94982   0.00000  Uiso   1.00
C285   C     0.83562   0.50538   0.79356   0.00000  Uiso   1.00
C286   C     0.83564   0.38185   0.36554   0.00000  Uiso   1.00
C287   C     0.83713   0.34211   0.38812   0.00000  Uiso   1.00
C288   C     0.81060   0.37735   0.23096   0.00000  Uiso   1.00
N289   N     0.88627   0.45359   0.56077   0.00000  Uiso   1.00
C290   C     0.91377   0.44209   0.55608   0.00000  Uiso   1.00
C291   C     0.95773   0.47221   0.52764   0.00000  Uiso   1.00
C292   C     0.98092   0.45976   0.44634   0.00000  Uiso   1.00
C293   C     0.02324   0.48753   0.41775   0.00000  Uiso   1.00
F294   F     0.95449   0.52352   0.66796   0.00000  Uiso   1.00
F295   F     0.03898   0.57932   0.60714   0.00000  Uiso   1.00
H296   H     0.76562   0.42064   0.79892   0.00000  Uiso   1.00
H297   H     0.75652   0.34128   0.45851   0.00000  Uiso   1.00
H298   H     0.88264   0.48883   0.76579   0.00000  Uiso   1.00
H299   H     0.85462   0.43290   0.95327   0.00000  Uiso   1.00
H300   H     0.81406   0.44394   0.99232   0.00000  Uiso   1.00
H301   H     0.86738   0.48267   1.02081   0.00000  Uiso   1.00
H302   H     0.84054   0.51895   0.68532   0.00000  Uiso   1.00
H303   H     0.85485   0.53109   0.86761   0.00000  Uiso   1.00
H304   H     0.80277   0.49236   0.82415   0.00000  Uiso   1.00
H305   H     0.86760   0.40742   0.34348   0.00000  Uiso   1.00
H306   H     0.85459   0.34408   0.48598   0.00000  Uiso   1.00
H307   H     0.85306   0.33682   0.29738   0.00000  Uiso   1.00
H308   H     0.80576   0.31492   0.39698   0.00000  Uiso   1.00
H309   H     0.78022   0.34852   0.22968   0.00000  Uiso   1.00
H310   H     0.82741   0.37689   0.13480   0.00000  Uiso   1.00
H311   H     0.80479   0.40344   0.21957   0.00000  Uiso   1.00
H312   H     0.90464   0.40982   0.56683   0.00000  Uiso   1.00
C313   C     0.37696   0.68866   0.97778   0.00000  Uiso   1.00
C314   C     0.35471   0.70980   0.97900   0.00000  Uiso   1.00
F315   F     0.37538   0.75170   0.97844   0.00000  Uiso   1.00
C316   C     0.42287   0.71192   0.96347   0.00000  Uiso   1.00
C317   C     0.44720   0.74623   1.04901   0.00000  Uiso   1.00
C318   C     0.49021   0.77035   1.02915   0.00000  Uiso   1.00
C319   C     0.50931   0.76014   0.91825   0.00000  Uiso   1.00
C320   C     0.48472   0.72549   0.82926   0.00000  Uiso   1.00
C321   C     0.44211   0.70122   0.85742   0.00000  Uiso   1.00
C322   C     0.51577   0.80622   1.13051   0.00000  Uiso   1.00
C323   C     0.51258   0.79055   1.28316   0.00000  Uiso   1.00
C324   C     0.50228   0.83872   1.12690   0.00000  Uiso   1.00
C325   C     0.50230   0.71519   0.69888   0.00000  Uiso   1.00
C326   C     0.50379   0.67545   0.72146   0.00000  Uiso   1.00
C327   C     0.47726   0.71069   0.56430   0.00000  Uiso   1.00
N328   N     0.55293   0.78693   0.89411   0.00000  Uiso   1.00
C329   C     0.58043   0.77543   0.88942   0.00000  Uiso   1.00
C330   C     0.62439   0.80555   0.86098   0.00000  Uiso   1.00
C331   C     0.64758   0.79310   0.77968   0.00000  Uiso   1.00
C332   C     0.68990   0.82087   0.75109   0.00000  Uiso   1.00
F333   F     0.62115   0.85686   1.00130   0.00000  Uiso   1.00
F334   F     0.70564   0.91266   0.94048   0.00000  Uiso   1.00
H335   H     0.43228   0.75398   1.13226   0.00000  Uiso   1.00
H336   H     0.42318   0.67462   0.79185   0.00000  Uiso   1.00
H337   H     0.54930   0.82217   1.09913   0.00000  Uiso   1.00
H338   H     0.52128   0.76624   1.28661   0.00000  Uiso   1.00
H339   H     0.48072   0.77728   1.32566   0.00000  Uiso   1.00
H340   H     0.53404   0.81601   1.35415   0.00000  Uiso   1.00
H341   H     0.50720   0.85229   1.01866   0.00000  Uiso   1.00
H342   H     0.52151   0.86443   1.20095   0.00000  Uiso   1.00
H343   H     0.46943   0.82570   1.15749   0.00000  Uiso   1.00
H344   H     0.53426   0.74076   0.67682   0.00000  Uiso   1.00
H345   H     0.52125   0.67742   0.81932   0.00000  Uiso   1.00
H346   H     0.51972   0.67016   0.63072   0.00000  Uiso   1.00
H347   H     0.47242   0.64826   0.73032   0.00000  Uiso   1.00
H348   H     0.44688   0.68186   0.56302   0.00000  Uiso   1.00
H349   H     0.49407   0.71023   0.46814   0.00000  Uiso   1.00
H350   H     0.47145   0.73678   0.55291   0.00000  Uiso   1.00
H351   H     0.57130   0.74316   0.90017   0.00000  Uiso   1.00
C352   C     0.02199   0.97836   0.68889   0.00000  Uiso   1.00
C353   C     0.04313   0.02175   0.68767   0.00000  Uiso   1.00
F354   F     0.08503   0.04298   0.68823   0.00000  Uiso   1.00
C355   C     0.04525   0.95571   0.70320   0.00000  Uiso   1.00
C356   C     0.07956   0.96569   0.61766   0.00000  Uiso   1.00
C357   C     0.10368   0.94680   0.63752   0.00000  Uiso   1.00
C358   C     0.09347   0.91749   0.74842   0.00000  Uiso   1.00
C359   C     0.05882   0.90743   0.83741   0.00000  Uiso   1.00
C360   C     0.03455   0.92577   0.80925   0.00000  Uiso   1.00
C361   C     0.13955   0.95711   0.53616   0.00000  Uiso   1.00
C362   C     0.12388   0.94463   0.38351   0.00000  Uiso   1.00
C363   C     0.17205   0.00310   0.53977   0.00000  Uiso   1.00
C364   C     0.04852   0.87955   0.96779   0.00000  Uiso   1.00
C365   C     0.00878   0.83832   0.94521   0.00000  Uiso   1.00
C366   C     0.04402   0.90009   1.10237   0.00000  Uiso   1.00
N367   N     0.12026   0.90066   0.77256   0.00000  Uiso   1.00
C368   C     0.10876   0.86166   0.77725   0.00000  Uiso   1.00
C369   C     0.13888   0.84782   0.80569   0.00000  Uiso   1.00
C370   C     0.12643   0.81218   0.88699   0.00000  Uiso   1.00
C371   C     0.15420   0.79763   0.91558   0.00000  Uiso   1.00
F372   F     0.19019   0.90237   0.66537   0.00000  Uiso   1.00
F373   F     0.24599   0.87368   0.72619   0.00000  Uiso   1.00
H374   H     0.08731   0.98836   0.53441   0.00000  Uiso   1.00
H375   H     0.00795   0.91810   0.87482   0.00000  Uiso   1.00
H376   H     0.15550   0.93953   0.56754   0.00000  Uiso   1.00
H377   H     0.09957   0.91162   0.38006   0.00000  Uiso   1.00
H378   H     0.11061   0.96322   0.34101   0.00000  Uiso   1.00
H379   H     0.14934   0.94863   0.31252   0.00000  Uiso   1.00
H380   H     0.18562   0.01175   0.64801   0.00000  Uiso   1.00
H381   H     0.19776   0.00958   0.46572   0.00000  Uiso   1.00
H382   H     0.15903   0.02293   0.50918   0.00000  Uiso   1.00
H383   H     0.07409   0.87316   0.98985   0.00000  Uiso   1.00
H384   H     0.01075   0.82283   0.84735   0.00000  Uiso   1.00
H385   H     0.00349   0.81710   1.03595   0.00000  Uiso   1.00
H386   H     0.98159   0.84250   0.93635   0.00000  Uiso   1.00
H387   H     0.01519   0.90164   1.10365   0.00000  Uiso   1.00
H388   H     0.04356   0.88282   1.19853   0.00000  Uiso   1.00
H389   H     0.07011   0.93199   1.11376   0.00000  Uiso   1.00
H390   H     0.07649   0.83852   0.76650   0.00000  Uiso   1.00
C391   C     0.68866   0.31169   0.02222   0.00000  Uiso   1.00
C392   C     0.70980   0.35508   0.02100   0.00000  Uiso   1.00
F393   F     0.75170   0.37631   0.02156   0.00000  Uiso   1.00
C394   C     0.71192   0.28904   0.03653   0.00000  Uiso   1.00
C395   C     0.74623   0.29902  -0.04901   0.00000  Uiso   1.00
C396   C     0.77035   0.28013  -0.02915   0.00000  Uiso   1.00
C397   C     0.76014   0.25082   0.08175   0.00000  Uiso   1.00
C398   C     0.72549   0.24076   0.17074   0.00000  Uiso   1.00
C399   C     0.70122   0.25910   0.14258   0.00000  Uiso   1.00
C400   C     0.80622   0.29044  -0.13051   0.00000  Uiso   1.00
C401   C     0.79055   0.27796  -0.28316   0.00000  Uiso   1.00
C402   C     0.83872   0.33643  -0.12690   0.00000  Uiso   1.00
C403   C     0.71519   0.21288   0.30112   0.00000  Uiso   1.00
C404   C     0.67545   0.17165   0.27854   0.00000  Uiso   1.00
C405   C     0.71069   0.23342   0.43570   0.00000  Uiso   1.00
N406   N     0.78693   0.23399   0.10589   0.00000  Uiso   1.00
C407   C     0.77543   0.19499   0.11058   0.00000  Uiso   1.00
C408   C     0.80555   0.18115   0.13902   0.00000  Uiso   1.00
C409   C     0.79310   0.14551   0.22032   0.00000  Uiso   1.00
C410   C     0.82087   0.13096   0.24891   0.00000  Uiso   1.00
F411   F     0.85686   0.23570  -0.00130   0.00000  Uiso   1.00
F412   F     0.91266   0.20701   0.05952   0.00000  Uiso   1.00
H413   H     0.75398   0.32169  -0.13226   0.00000  Uiso   1.00
H414   H     0.67462   0.25143   0.20815   0.00000  Uiso   1.00
H415   H     0.82217   0.27286  -0.09913   0.00000  Uiso   1.00
H416   H     0.76624   0.24495  -0.28661   0.00000  Uiso   1.00
H417   H     0.77728   0.29655  -0.32566   0.00000  Uiso   1.00
H418   H     0.81601   0.28196  -0.35415   0.00000  Uiso   1.00
H419   H     0.85229   0.34508  -0.01866   0.00000  Uiso   1.00
H420   H     0.86443   0.34291  -0.20095   0.00000  Uiso   1.00
H421   H     0.82570   0.35626  -0.15749   0.00000  Uiso   1.00
H422   H     0.74076   0.20649   0.32318   0.00000  Uiso   1.00
H423   H     0.67742   0.15616   0.18068   0.00000  Uiso   1.00
H424   H     0.67016   0.15043   0.36928   0.00000  Uiso   1.00
H425   H     0.64826   0.17583   0.26968   0.00000  Uiso   1.00
H426   H     0.68186   0.23497   0.43698   0.00000  Uiso   1.00
H427   H     0.71023   0.21615   0.53186   0.00000  Uiso   1.00
H428   H     0.73678   0.26532   0.44709   0.00000  Uiso   1.00
H429   H     0.74316   0.17185   0.09983   0.00000  Uiso   1.00
C430   C     0.35532   0.64503   0.35556   0.00000  Uiso   1.00
C431   C     0.37646   0.68842   0.35434   0.00000  Uiso   1.00
F432   F     0.41836   0.70965   0.35490   0.00000  Uiso   1.00
C433   C     0.37858   0.62238   0.36987   0.00000  Uiso   1.00
C434   C     0.41289   0.63236   0.28433   0.00000  Uiso   1.00
C435   C     0.43701   0.61347   0.30419   0.00000  Uiso   1.00
C436   C     0.42680   0.58416   0.41509   0.00000  Uiso   1.00
C437   C     0.39215   0.57410   0.50408   0.00000  Uiso   1.00
C438   C     0.36788   0.59244   0.47592   0.00000  Uiso   1.00
C439   C     0.47288   0.62378   0.20283   0.00000  Uiso   1.00
C440   C     0.45721   0.61130   0.05018   0.00000  Uiso   1.00
C441   C     0.50538   0.66977   0.20644   0.00000  Uiso   1.00
C442   C     0.38185   0.54622   0.63446   0.00000  Uiso   1.00
C443   C     0.34211   0.50499   0.61188   0.00000  Uiso   1.00
C444   C     0.37735   0.56676   0.76904   0.00000  Uiso   1.00
N445   N     0.45359   0.56733   0.43923   0.00000  Uiso   1.00
C446   C     0.44209   0.52833   0.44392   0.00000  Uiso   1.00
C447   C     0.47221   0.51449   0.47236   0.00000  Uiso   1.00
C448   C     0.45976   0.47885   0.55366   0.00000  Uiso   1.00
C449   C     0.48753   0.46430   0.58225   0.00000  Uiso   1.00
F450   F     0.52352   0.56904   0.33204   0.00000  Uiso   1.00
F451   F     0.57932   0.54035   0.39286   0.00000  Uiso   1.00
H452   H     0.42064   0.65503   0.20108   0.00000  Uiso   1.00
H453   H     0.34128   0.58477   0.54149   0.00000  Uiso   1.00
H454   H     0.48883   0.60620   0.23421   0.00000  Uiso   1.00
H455   H     0.43290   0.57829   0.04673   0.00000  Uiso   1.00
H456   H     0.44394   0.62989   0.00768   0.00000  Uiso   1.00
H457   H     0.48267   0.61530  -0.02081   0.00000  Uiso   1.00
H458   H     0.51895   0.67842   0.31468   0.00000  Uiso   1.00
H459   H     0.53109   0.67625   0.13239   0.00000  Uiso   1.00
H460   H     0.49236   0.68960   0.17585   0.00000  Uiso   1.00
H461   H     0.40742   0.53983   0.65652   0.00000  Uiso   1.00
H462   H     0.34408   0.48950   0.51402   0.00000  Uiso   1.00
H463   H     0.33682   0.48377   0.70262   0.00000  Uiso   1.00
H464   H     0.31492   0.50917   0.60302   0.00000  Uiso   1.00
H465   H     0.34852   0.56831   0.77032   0.00000  Uiso   1.00
H466   H     0.37689   0.54949   0.86520   0.00000  Uiso   1.00
H467   H     0.40344   0.59866   0.78043   0.00000  Uiso   1.00
H468   H     0.40982   0.50519   0.43317   0.00000  Uiso   1.00
C469   C     0.02164   0.04363   0.68889   0.00000  Uiso   1.00
C470   C     0.97825   0.02138   0.68767   0.00000  Uiso   1.00
F471   F     0.95702   0.04205   0.68823   0.00000  Uiso   1.00
C472   C     0.04429   0.08954   0.70320   0.00000  Uiso   1.00
C473   C     0.03431   0.11387   0.61766   0.00000  Uiso   1.00
C474   C     0.05320   0.15688   0.63752   0.00000  Uiso   1.00
C475   C     0.08251   0.17598   0.74842   0.00000  Uiso   1.00
C476   C     0.09257   0.15139   0.83741   0.00000  Uiso   1.00
C477   C     0.07423   0.10878   0.80925   0.00000  Uiso   1.00
C478   C     0.04289   0.18244   0.53616   0.00000  Uiso   1.00
C479   C     0.05537   0.17925   0.38351   0.00000  Uiso   1.00
C480   C     0.99690   0.16895   0.53977   0.00000  Uiso   1.00
C481   C     0.12045   0.16897   0.96779   0.00000  Uiso   1.00
C482   C     0.16168   0.17046   0.94521   0.00000  Uiso   1.00
C483   C     0.09991   0.14393   1.10237   0.00000  Uiso   1.00
N484   N     0.09934   0.21960   0.77256   0.00000  Uiso   1.00
C485   C     0.13834   0.24710   0.77725   0.00000  Uiso   1.00
C486   C     0.15218   0.29106   0.80569   0.00000  Uiso   1.00
C487   C     0.18782   0.31425   0.88699   0.00000  Uiso   1.00
C488   C     0.20237   0.35657   0.91558   0.00000  Uiso   1.00
F489   F     0.09763   0.28782   0.66537   0.00000  Uiso   1.00
F490   F     0.12632   0.37231   0.72619   0.00000  Uiso   1.00
H491   H     0.01164   0.09895   0.53441   0.00000  Uiso   1.00
H492   H     0.08190   0.08985   0.87482   0.00000  Uiso   1.00
H493   H     0.06047   0.21597   0.56754   0.00000  Uiso   1.00
H494   H     0.08838   0.18795   0.38006   0.00000  Uiso   1.00
H495   H     0.03678   0.14739   0.34101   0.00000  Uiso   1.00
H496   H     0.05137   0.20071   0.31252   0.00000  Uiso   1.00
H497   H     0.98825   0.17387   0.64801   0.00000  Uiso   1.00
H498   H     0.99042   0.18818   0.46572   0.00000  Uiso   1.00
H499   H     0.97707   0.13610   0.50918   0.00000  Uiso   1.00
H500   H     0.12684   0.20093   0.98985   0.00000  Uiso   1.00
H501   H     0.17717   0.18792   0.84735   0.00000  Uiso   1.00
H502   H     0.18290   0.18639   1.03595   0.00000  Uiso   1.00
H503   H     0.15750   0.13909   0.93635   0.00000  Uiso   1.00
H504   H     0.09836   0.11355   1.10365   0.00000  Uiso   1.00
H505   H     0.11718   0.16074   1.19853   0.00000  Uiso   1.00
H506   H     0.06801   0.13812   1.11376   0.00000  Uiso   1.00
H507   H     0.16148   0.23797   0.76650   0.00000  Uiso   1.00
C508   C     0.68831   0.37696   0.02222   0.00000  Uiso   1.00
C509   C     0.64492   0.35471   0.02100   0.00000  Uiso   1.00
F510   F     0.62369   0.37538   0.02156   0.00000  Uiso   1.00
C511   C     0.71096   0.42287   0.03653   0.00000  Uiso   1.00
C512   C     0.70098   0.44720  -0.04901   0.00000  Uiso   1.00
C513   C     0.71987   0.49021  -0.02915   0.00000  Uiso   1.00
C514   C     0.74918   0.50931   0.08175   0.00000  Uiso   1.00
C515   C     0.75924   0.48472   0.17074   0.00000  Uiso   1.00
C516   C     0.74090   0.44211   0.14258   0.00000  Uiso   1.00
C517   C     0.70956   0.51577  -0.13051   0.00000  Uiso   1.00
C518   C     0.72204   0.51258  -0.28316   0.00000  Uiso   1.00
C519   C     0.66357   0.50228  -0.12690   0.00000  Uiso   1.00
C520   C     0.78712   0.50230   0.30112   0.00000  Uiso   1.00
C521   C     0.82835   0.50379   0.27854   0.00000  Uiso   1.00
C522   C     0.76658   0.47726   0.43570   0.00000  Uiso   1.00
N523   N     0.76601   0.55293   0.10589   0.00000  Uiso   1.00
C524   C     0.80501   0.58043   0.11058   0.00000  Uiso   1.00
C525   C     0.81885   0.62439   0.13902   0.00000  Uiso   1.00
C526   C     0.85449   0.64758   0.22032   0.00000  Uiso   1.00
C527   C     0.86904   0.68990   0.24891   0.00000  Uiso   1.00
F528   F     0.76430   0.62115  -0.00130   0.00000  Uiso   1.00
F529   F     0.79299   0.70564   0.05952   0.00000  Uiso   1.00
H530   H     0.67831   0.43228  -0.13226   0.00000  Uiso   1.00
H531   H     0.74857   0.42318   0.20815   0.00000  Uiso   1.00
H532   H     0.72714   0.54930  -0.09913   0.00000  Uiso   1.00
H533   H     0.75505   0.52128  -0.28661   0.00000  Uiso   1.00
H534   H     0.70345   0.48072  -0.32566   0.00000  Uiso   1.00
H535   H     0.71804   0.53404  -0.35415   0.00000  Uiso   1.00
H536   H     0.65492   0.50720  -0.01866   0.00000  Uiso   1.00
H537   H     0.65709   0.52151  -0.20095   0.00000  Uiso   1.00
H538   H     0.64374   0.46943  -0.15749   0.00000  Uiso   1.00
H539   H     0.79351   0.53426   0.32318   0.00000  Uiso   1.00
H540   H     0.84384   0.52125   0.18068   0.00000  Uiso   1.00
H541   H     0.84957   0.51972   0.36928   0.00000  Uiso   1.00
H542   H     0.82417   0.47242   0.26968   0.00000  Uiso   1.00
H543   H     0.76503   0.44688   0.43698   0.00000  Uiso   1.00
H544   H     0.78385   0.49407   0.53186   0.00000  Uiso   1.00
H545   H     0.73468   0.47145   0.44709   0.00000  Uiso   1.00
H546   H     0.82815   0.57130   0.09983   0.00000  Uiso   1.00
C547   C     0.35497   0.71030   0.35556   0.00000  Uiso   1.00
C548   C     0.31158   0.68805   0.35434   0.00000  Uiso   1.00
F549   F     0.29035   0.70872   0.35490   0.00000  Uiso   1.00
C550   C     0.37762   0.75621   0.36987   0.00000  Uiso   1.00
C551   C     0.36764   0.78054   0.28433   0.00000  Uiso   1.00
C552   C     0.38653   0.82355   0.30419   0.00000  Uiso   1.00
C553   C     0.41584   0.84265   0.41509   0.00000  Uiso   1.00
C554   C     0.42590   0.81806   0.50408   0.00000  Uiso   1.00
C555   C     0.40756   0.77545   0.47592   0.00000  Uiso   1.00
C556   C     0.37622   0.84911   0.20283   0.00000  Uiso   1.00
C557   C     0.38870   0.84592   0.05018   0.00000  Uiso   1.00
C558   C     0.33023   0.83562   0.20644   0.00000  Uiso   1.00
C559   C     0.45378   0.83564   0.63446   0.00000  Uiso   1.00
C560   C     0.49501   0.83713   0.61188   0.00000  Uiso   1.00
C561   C     0.43324   0.81060   0.76904   0.00000  Uiso   1.00
N562   N     0.43267   0.88627   0.43923   0.00000  Uiso   1.00
C563   C     0.47167   0.91377   0.44392   0.00000  Uiso   1.00
C564   C     0.48551   0.95773   0.47236   0.00000  Uiso   1.00
C565   C     0.52115   0.98092   0.55366   0.00000  Uiso   1.00
C566   C     0.53570   0.02324   0.58225   0.00000  Uiso   1.00
F567   F     0.43096   0.95449   0.33204   0.00000  Uiso   1.00
F568   F     0.45965   0.03898   0.39286   0.00000  Uiso   1.00
H569   H     0.34497   0.76562   0.20108   0.00000  Uiso   1.00
H570   H     0.41523   0.75652   0.54149   0.00000  Uiso   1.00
H571   H     0.39380   0.88264   0.23421   0.00000  Uiso   1.00
H572   H     0.42171   0.85462   0.04673   0.00000  Uiso   1.00
H573   H     0.37011   0.81406   0.00768   0.00000  Uiso   1.00
H574   H     0.38470   0.86738  -0.02081   0.00000  Uiso   1.00
H575   H     0.32158   0.84054   0.31468   0.00000  Uiso   1.00
H576   H     0.32375   0.85485   0.13239   0.00000  Uiso   1.00
H577   H     0.31040   0.80277   0.17585   0.00000  Uiso   1.00
H578   H     0.46017   0.86760   0.65652   0.00000  Uiso   1.00
H579   H     0.51050   0.85459   0.51402   0.00000  Uiso   1.00
H580   H     0.51623   0.85306   0.70262   0.00000  Uiso   1.00
H581   H     0.49083   0.80576   0.60302   0.00000  Uiso   1.00
H582   H     0.43169   0.78022   0.77032   0.00000  Uiso   1.00
H583   H     0.45051   0.82741   0.86520   0.00000  Uiso   1.00
H584   H     0.40134   0.80479   0.78043   0.00000  Uiso   1.00
H585   H     0.49481   0.90464   0.43317   0.00000  Uiso   1.00
C586   C     0.95637   0.97801   0.68889   0.00000  Uiso   1.00
C587   C     0.97862   0.95687   0.68767   0.00000  Uiso   1.00
F588   F     0.95795   0.91497   0.68823   0.00000  Uiso   1.00
C589   C     0.91046   0.95475   0.70320   0.00000  Uiso   1.00
C590   C     0.88613   0.92044   0.61766   0.00000  Uiso   1.00
C591   C     0.84312   0.89632   0.63752   0.00000  Uiso   1.00
C592   C     0.82402   0.90653   0.74842   0.00000  Uiso   1.00
C593   C     0.84861   0.94118   0.83741   0.00000  Uiso   1.00
C594   C     0.89122   0.96545   0.80925   0.00000  Uiso   1.00
C595   C     0.81756   0.86045   0.53616   0.00000  Uiso   1.00
C596   C     0.82075   0.87612   0.38351   0.00000  Uiso   1.00
C597   C     0.83105   0.82795   0.53977   0.00000  Uiso   1.00
C598   C     0.83103   0.95148   0.96779   0.00000  Uiso   1.00
C599   C     0.82954   0.99122   0.94521   0.00000  Uiso   1.00
C600   C     0.85607   0.95598   1.10237   0.00000  Uiso   1.00
N601   N     0.78040   0.87974   0.77256   0.00000  Uiso   1.00
C602   C     0.75290   0.89124   0.77725   0.00000  Uiso   1.00
C603   C     0.70894   0.86112   0.80569   0.00000  Uiso   1.00
C604   C     0.68575   0.87357   0.88699   0.00000  Uiso   1.00
C605   C     0.64343   0.84580   0.91558   0.00000  Uiso   1.00
F606   F     0.71218   0.80981   0.66537   0.00000  Uiso   1.00
F607   F     0.62769   0.75401   0.72619   0.00000  Uiso   1.00
H608   H     0.90105   0.91269   0.53441   0.00000  Uiso   1.00
H609   H     0.91015   0.99205   0.87482   0.00000  Uiso   1.00
H610   H     0.78403   0.84450   0.56754   0.00000  Uiso   1.00
H611   H     0.81205   0.90043   0.38006   0.00000  Uiso   1.00
H612   H     0.85261   0.88939   0.34101   0.00000  Uiso   1.00
H613   H     0.79929   0.85066   0.31252   0.00000  Uiso   1.00
H614   H     0.82613   0.81438   0.64801   0.00000  Uiso   1.00
H615   H     0.81182   0.80224   0.46572   0.00000  Uiso   1.00
H616   H     0.86390   0.84097   0.50918   0.00000  Uiso   1.00
H617   H     0.79907   0.92591   0.98985   0.00000  Uiso   1.00
H618   H     0.81208   0.98925   0.84735   0.00000  Uiso   1.00
H619   H     0.81361   0.99651   1.03595   0.00000  Uiso   1.00
H620   H     0.86091   0.01841   0.93635   0.00000  Uiso   1.00
H621   H     0.88645   0.98481   1.10365   0.00000  Uiso   1.00
H622   H     0.83926   0.95644   1.19853   0.00000  Uiso   1.00
H623   H     0.86188   0.92989   1.11376   0.00000  Uiso   1.00
H624   H     0.76203   0.92351   0.76650   0.00000  Uiso   1.00
C625   C     0.62304   0.31134   0.02222   0.00000  Uiso   1.00
C626   C     0.64529   0.29020   0.02100   0.00000  Uiso   1.00
F627   F     0.62462   0.24830   0.02156   0.00000  Uiso   1.00
C628   C     0.57713   0.28808   0.03653   0.00000  Uiso   1.00
C629   C     0.55280   0.25377  -0.04901   0.00000  Uiso   1.00
C630   C     0.50979   0.22965  -0.02915   0.00000  Uiso   1.00
C631   C     0.49069   0.23986   0.08175   0.00000  Uiso   1.00
C632   C     0.51528   0.27451   0.17074   0.00000  Uiso   1.00
C633   C     0.55789   0.29878   0.14258   0.00000  Uiso   1.00
C634   C     0.48423   0.19378  -0.13051   0.00000  Uiso   1.00
C635   C     0.48742   0.20945  -0.28316   0.00000  Uiso   1.00
C636   C     0.49772   0.16128  -0.12690   0.00000  Uiso   1.00
C637   C     0.49770   0.28481   0.30112   0.00000  Uiso   1.00
C638   C     0.49621   0.32455   0.27854   0.00000  Uiso   1.00
C639   C     0.52274   0.28931   0.43570   0.00000  Uiso   1.00
N640   N     0.44707   0.21307   0.10589   0.00000  Uiso   1.00
C641   C     0.41957   0.22457   0.11058   0.00000  Uiso   1.00
C642   C     0.37561   0.19445   0.13902   0.00000  Uiso   1.00
C643   C     0.35242   0.20690   0.22032   0.00000  Uiso   1.00
C644   C     0.31010   0.17913   0.24891   0.00000  Uiso   1.00
F645   F     0.37885   0.14314  -0.00130   0.00000  Uiso   1.00
F646   F     0.29436   0.08734   0.05952   0.00000  Uiso   1.00
H647   H     0.56772   0.24602  -0.13226   0.00000  Uiso   1.00
H648   H     0.57682   0.32538   0.20815   0.00000  Uiso   1.00
H649   H     0.45070   0.17783  -0.09913   0.00000  Uiso   1.00
H650   H     0.47872   0.23376  -0.28661   0.00000  Uiso   1.00
H651   H     0.51928   0.22272  -0.32566   0.00000  Uiso   1.00
H652   H     0.46596   0.18399  -0.35415   0.00000  Uiso   1.00
H653   H     0.49280   0.14771  -0.01866   0.00000  Uiso   1.00
H654   H     0.47849   0.13557  -0.20095   0.00000  Uiso   1.00
H655   H     0.53057   0.17430  -0.15749   0.00000  Uiso   1.00
H656   H     0.46574   0.25924   0.32318   0.00000  Uiso   1.00
H657   H     0.47875   0.32258   0.18068   0.00000  Uiso   1.00
H658   H     0.48028   0.32984   0.36928   0.00000  Uiso   1.00
H659   H     0.52758   0.35174   0.26968   0.00000  Uiso   1.00
H660   H     0.55312   0.31814   0.43698   0.00000  Uiso   1.00
H661   H     0.50593   0.28977   0.53186   0.00000  Uiso   1.00
H662   H     0.52855   0.26322   0.44709   0.00000  Uiso   1.00
H663   H     0.42870   0.25684   0.09983   0.00000  Uiso   1.00
C664   C     0.28970   0.64468   0.35556   0.00000  Uiso   1.00
C665   C     0.31195   0.62354   0.35434   0.00000  Uiso   1.00
F666   F     0.29128   0.58164   0.35490   0.00000  Uiso   1.00
C667   C     0.24379   0.62142   0.36987   0.00000  Uiso   1.00
C668   C     0.21946   0.58711   0.28433   0.00000  Uiso   1.00
C669   C     0.17645   0.56299   0.30419   0.00000  Uiso   1.00
C670   C     0.15735   0.57320   0.41509   0.00000  Uiso   1.00
C671   C     0.18194   0.60785   0.50408   0.00000  Uiso   1.00
C672   C     0.22455   0.63212   0.47592   0.00000  Uiso   1.00
C673   C     0.15089   0.52712   0.20283   0.00000  Uiso   1.00
C674   C     0.15408   0.54279   0.05018   0.00000  Uiso   1.00
C675   C     0.16438   0.49462   0.20644   0.00000  Uiso   1.00
C676   C     0.16436   0.61815   0.63446   0.00000  Uiso   1.00
C677   C     0.16287   0.65789   0.61188   0.00000  Uiso   1.00
C678   C     0.18940   0.62265   0.76904   0.00000  Uiso   1.00
N679   N     0.11373   0.54641   0.43923   0.00000  Uiso   1.00
C680   C     0.08623   0.55791   0.44392   0.00000  Uiso   1.00
C681   C     0.04227   0.52779   0.47236   0.00000  Uiso   1.00
C682   C     0.01908   0.54024   0.55366   0.00000  Uiso   1.00
C683   C     0.97676   0.51247   0.58225   0.00000  Uiso   1.00
F684   F     0.04551   0.47648   0.33204   0.00000  Uiso   1.00
F685   F     0.96102   0.42068   0.39286   0.00000  Uiso   1.00
H686   H     0.23438   0.57936   0.20108   0.00000  Uiso   1.00
H687   H     0.24348   0.65872   0.54149   0.00000  Uiso   1.00
H688   H     0.11736   0.51117   0.23421   0.00000  Uiso   1.00
H689   H     0.14538   0.56710   0.04673   0.00000  Uiso   1.00
H690   H     0.18594   0.55606   0.00768   0.00000  Uiso   1.00
H691   H     0.13262   0.51733  -0.02081   0.00000  Uiso   1.00
H692   H     0.15946   0.48105   0.31468   0.00000  Uiso   1.00
H693   H     0.14515   0.46891   0.13239   0.00000  Uiso   1.00
H694   H     0.19723   0.50764   0.17585   0.00000  Uiso   1.00
H695   H     0.13240   0.59258   0.65652   0.00000  Uiso   1.00
H696   H     0.14541   0.65592   0.51402   0.00000  Uiso   1.00
H697   H     0.14694   0.66318   0.70262   0.00000  Uiso   1.00
H698   H     0.19424   0.68508   0.60302   0.00000  Uiso   1.00
H699   H     0.21978   0.65148   0.77032   0.00000  Uiso   1.00
H700   H     0.17259   0.62311   0.86520   0.00000  Uiso   1.00
H701   H     0.19521   0.59656   0.78043   0.00000  Uiso   1.00
H702   H     0.09536   0.59018   0.43317   0.00000  Uiso   1.00
loop_
_geom_bond_atom_site_label_1
_geom_bond_atom_site_label_2
_geom_bond_distance
_geom_bond_site_symmetry_2
_ccdc_geom_bond_type
C1     C4      1.495   .     S
C1     C2      1.408   1_545 D
C1     C236    1.407   1_655 S
C2     F3      1.359   .     S
C2     C118    1.407   .     S
C2     C1      1.408   1_565 D
C4     C5      1.399   .     S
C4     C9      1.401   .     D
C5     C6      1.411   .     D
C5     H23     1.082   .     S
C6     C7      1.421   .     S
C6     C10     1.531   .     S
C7     C8      1.427   .     D
C7     N16     1.445   .     S
C8     C9      1.412   .     S
C8     C13     1.529   .     S
C9     H24     1.081   .     S
C10    H25     1.127   .     S
C10    C11     1.532   .     S
C10    C12     1.534   1_545 S
C11    H26     1.111   .     S
C11    H27     1.113   .     S
C11    H28     1.111   .     S
C12    H29     1.111   .     S
C12    H30     1.112   .     S
C12    H31     1.111   .     S
C12    C10     1.534   1_565 S
C13    C14     1.532   .     S
C13    C15     1.533   .     S
C13    H32     1.117   .     S
C14    H33     1.110   .     S
C14    H34     1.114   .     S
C14    H35     1.108   1_655 S
C15    H36     1.110   .     S
C15    H37     1.107   .     S
C15    H38     1.108   .     S
N16    C17     1.301   .     D
C17    C18     1.483   .     S
C17    H39     1.084   .     S
C18    C19     1.400   .     D
C18    C410    1.404   .     S
C19    C20     1.421   .     S
C19    F412    1.364   .     S
C20    C408    1.404   .     D
C20    F411    1.365   .     S
F21    C410    1.365   .     S
F22    C409    1.364   .     S
H35    C14     1.108   1_455 S
C40    C43     1.495   .     S
C40    C41     1.408   .     S
C40    C275    1.407   .     D
C41    F42     1.359   .     S
C41    C157    1.407   .     D
C43    C44     1.399   .     D
C43    C48     1.401   .     S
C44    C45     1.411   .     S
C44    H62     1.082   .     S
C45    C46     1.421   .     D
C45    C49     1.531   .     S
C46    C47     1.427   .     S
C46    N55     1.445   .     S
C47    C48     1.412   .     D
C47    C52     1.529   .     S
C48    H63     1.081   .     S
C49    C51     1.534   .     S
C49    H64     1.127   .     S
C49    C50     1.532   .     S
C50    H65     1.111   .     S
C50    H66     1.113   .     S
C50    H67     1.111   .     S
C51    H68     1.111   .     S
C51    H69     1.112   .     S
C51    H70     1.111   .     S
C52    C53     1.532   .     S
C52    C54     1.533   .     S
C52    H71     1.117   .     S
C53    H72     1.110   .     S
C53    H73     1.114   .     S
C53    H74     1.108   .     S
C54    H75     1.110   .     S
C54    H76     1.107   .     S
C54    H77     1.108   .     S
N55    C56     1.301   .     D
C56    C57     1.483   .     S
C56    H78     1.084   .     S
C57    C58     1.400   .     D
C57    C449    1.404   .     S
C58    C59     1.421   .     S
C58    F451    1.364   .     S
C59    C447    1.404   .     D
C59    F450    1.365   .     S
F60    C449    1.365   .     S
F61    C448    1.364   .     S
C79    C82     1.495   .     S
C79    C80     1.408   .     S
C79    C314    1.407   .     D
C80    F81     1.359   .     S
C80    C196    1.407   .     D
C82    C83     1.399   .     D
C82    C87     1.401   .     S
C83    C84     1.411   .     S
C83    H101    1.082   .     S
C84    C85     1.421   .     D
C84    C88     1.531   .     S
C85    C86     1.427   .     S
C85    N94     1.445   .     S
C86    C87     1.412   .     D
C86    C91     1.529   .     S
C87    H102    1.081   .     S
C88    C90     1.534   .     S
C88    H103    1.127   .     S
C88    C89     1.532   .     S
C89    H104    1.111   .     S
C89    H105    1.113   .     S
C89    H106    1.111   .     S
C90    H107    1.111   .     S
C90    H108    1.112   .     S
C90    H109    1.111   .     S
C91    C92     1.532   .     S
C91    C93     1.533   .     S
C91    H110    1.117   .     S
C92    H111    1.110   .     S
C92    H112    1.114   .     S
C92    H113    1.108   .     S
C93    H114    1.110   .     S
C93    H115    1.107   .     S
C93    H116    1.108   .     S
N94    C95     1.301   .     D
C95    C96     1.483   .     S
C95    H117    1.084   .     S
C96    C97     1.400   .     S
C96    C371    1.404   .     D
C97    C98     1.421   .     D
C97    F373    1.364   .     S
C98    C369    1.404   .     S
C98    F372    1.365   .     S
F99    C371    1.365   .     S
F100   C370    1.364   .     S
C118   C121    1.495   .     S
C118   C119    1.408   1_655 D
C119   F120    1.359   .     S
C119   C118    1.408   1_455 D
C119   C235    1.407   1_565 S
C121   C122    1.399   .     D
C121   C126    1.401   .     S
C122   C123    1.411   .     S
C122   H140    1.082   .     S
C123   C124    1.421   .     D
C123   C127    1.531   .     S
C124   C125    1.427   .     S
C124   N133    1.445   .     S
C125   C126    1.412   .     D
C125   C130    1.529   .     S
C126   H141    1.081   .     S
C127   H142    1.127   .     S
C127   C128    1.532   .     S
C127   C129    1.534   1_655 S
C128   H143    1.111   .     S
C128   H144    1.113   .     S
C128   H145    1.111   .     S
C129   H146    1.111   .     S
C129   H147    1.112   .     S
C129   H148    1.111   .     S
C129   C127    1.534   1_455 S
C130   C131    1.532   .     S
C130   C132    1.533   .     S
C130   H149    1.117   .     S
C131   H150    1.110   .     S
C131   H151    1.114   .     S
C131   H152    1.108   .     S
C132   H153    1.110   .     S
C132   H154    1.107   .     S
C132   H155    1.108   .     S
N133   C134    1.301   .     D
C134   C135    1.483   .     S
C134   H156    1.084   .     S
C135   C136    1.400   .     D
C135   C527    1.404   .     S
C136   C137    1.421   .     S
C136   F529    1.364   .     S
C137   C525    1.404   .     D
C137   F528    1.365   .     S
F138   C527    1.365   .     S
F139   C526    1.364   .     S
C157   C160    1.495   .     S
C157   C158    1.408   .     S
C158   F159    1.359   .     S
C158   C274    1.407   .     D
C160   C161    1.399   .     D
C160   C165    1.401   .     S
C161   C162    1.411   .     S
C161   H179    1.082   .     S
C162   C163    1.421   .     D
C162   C166    1.531   .     S
C163   C164    1.427   .     S
C163   N172    1.445   .     S
C164   C165    1.412   .     D
C164   C169    1.529   .     S
C165   H180    1.081   .     S
C166   C168    1.534   .     S
C166   H181    1.127   .     S
C166   C167    1.532   .     S
C167   H182    1.111   .     S
C167   H183    1.113   .     S
C167   H184    1.111   .     S
C168   H185    1.111   .     S
C168   H186    1.112   .     S
C168   H187    1.111   .     S
C169   C170    1.532   .     S
C169   C171    1.533   .     S
C169   H188    1.117   .     S
C170   H189    1.110   .     S
C170   H190    1.114   .     S
C170   H191    1.108   .     S
C171   H192    1.110   .     S
C171   H193    1.107   .     S
C171   H194    1.108   .     S
N172   C173    1.301   .     D
C173   C174    1.483   .     S
C173   H195    1.084   .     S
C174   C175    1.400   .     D
C174   C566    1.403   .     S
C175   F568    1.364   .     S
C175   C176    1.421   1_545 S
C176   C564    1.403   .     D
C176   F567    1.365   .     S
C176   C175    1.421   1_565 S
F177   C566    1.365   .     S
F178   C565    1.364   .     S
C196   C199    1.495   .     S
C196   C197    1.408   .     S
C197   F198    1.359   .     S
C197   C313    1.407   .     D
C199   C200    1.399   .     D
C199   C204    1.401   .     S
C200   C201    1.411   .     S
C200   H218    1.082   .     S
C201   C202    1.421   .     D
C201   C205    1.531   .     S
C202   C203    1.427   .     S
C202   N211    1.445   .     S
C203   C204    1.412   .     D
C203   C208    1.529   .     S
C204   H219    1.081   .     S
C205   C207    1.534   .     S
C205   H220    1.127   .     S
C205   C206    1.532   .     S
C206   H221    1.111   .     S
C206   H222    1.113   .     S
C206   H223    1.111   .     S
C207   H224    1.111   .     S
C207   H225    1.112   .     S
C207   H226    1.111   .     S
C208   C209    1.532   .     S
C208   C210    1.533   .     S
C208   H227    1.117   .     S
C209   H228    1.110   .     S
C209   H229    1.114   .     S
C209   H230    1.108   .     S
C210   H231    1.110   .     S
C210   H232    1.107   .     S
C210   H233    1.108   .     S
N211   C212    1.301   .     D
C212   C213    1.483   .     S
C212   H234    1.084   .     S
C213   C214    1.400   .     D
C213   C488    1.404   .     S
C214   C215    1.421   .     S
C214   F490    1.364   .     S
C215   C486    1.404   .     D
C215   F489    1.365   .     S
F216   C488    1.365   .     S
F217   C487    1.364   .     S
C235   C238    1.495   .     S
C235   C236    1.408   .     D
C235   C119    1.407   1_545 S
C236   F237    1.359   .     S
C236   C1      1.407   1_455 S
C238   C239    1.399   .     D
C238   C243    1.401   .     S
C239   C240    1.411   .     S
C239   H257    1.082   .     S
C240   C241    1.421   .     D
C240   C244    1.531   .     S
C241   C242    1.427   .     S
C241   N250    1.445   .     S
C242   C243    1.412   .     D
C242   C247    1.529   .     S
C243   H258    1.081   .     S
C244   C246    1.534   .     S
C244   H259    1.127   .     S
C244   C245    1.532   .     S
C245   H260    1.111   .     S
C245   H261    1.113   .     S
C245   H262    1.111   .     S
C246   H263    1.111   .     S
C246   H264    1.112   .     S
C246   H265    1.111   .     S
C247   C248    1.532   .     S
C247   C249    1.533   .     S
C247   H266    1.117   .     S
C248   H267    1.110   .     S
C248   H268    1.114   .     S
C248   H269    1.108   1_545 S
C249   H270    1.110   .     S
C249   H271    1.107   .     S
C249   H272    1.108   .     S
N250   C251    1.301   .     D
C251   C252    1.483   .     S
C251   H273    1.084   .     S
C252   C253    1.400   .     D
C252   C644    1.404   .     S
C253   C254    1.421   .     S
C253   F646    1.364   .     S
C254   C642    1.404   .     D
C254   F645    1.365   .     S
F255   C644    1.365   .     S
F256   C643    1.364   .     S
H269   C248    1.108   1_565 S
C274   C277    1.495   .     S
C274   C275    1.408   .     S
C275   F276    1.359   .     S
C277   C278    1.399   .     D
C277   C282    1.401   .     S
C278   C279    1.411   .     S
C278   H296    1.082   .     S
C279   C280    1.421   .     D
C279   C283    1.531   .     S
C280   C281    1.427   .     S
C280   N289    1.445   .     S
C281   C282    1.412   .     D
C281   C286    1.529   .     S
C282   H297    1.081   .     S
C283   C285    1.534   .     S
C283   H298    1.127   .     S
C283   C284    1.532   .     S
C284   H299    1.111   .     S
C284   H300    1.113   .     S
C284   H301    1.111   .     S
C285   H302    1.111   .     S
C285   H303    1.112   .     S
C285   H304    1.111   .     S
C286   C287    1.532   .     S
C286   C288    1.533   .     S
C286   H305    1.117   .     S
C287   H306    1.110   .     S
C287   H307    1.114   .     S
C287   H308    1.108   .     S
C288   H309    1.110   .     S
C288   H310    1.107   .     S
C288   H311    1.108   .     S
N289   C290    1.301   .     D
C290   C291    1.483   .     S
C290   H312    1.084   .     S
C291   C292    1.400   .     D
C291   C683    1.404   .     S
C292   F685    1.364   .     S
C292   C293    1.421   1_655 S
C293   C681    1.404   .     D
C293   F684    1.364   .     S
C293   C292    1.421   1_455 S
F294   C683    1.364   .     S
F295   C682    1.364   .     S
C313   C316    1.495   .     S
C313   C314    1.408   .     S
C314   F315    1.359   .     S
C316   C317    1.399   .     D
C316   C321    1.401   .     S
C317   C318    1.411   .     S
C317   H335    1.082   .     S
C318   C319    1.421   .     D
C318   C322    1.531   .     S
C319   C320    1.427   .     S
C319   N328    1.445   .     S
C320   C321    1.412   .     D
C320   C325    1.529   .     S
C321   H336    1.081   .     S
C322   C324    1.534   .     S
C322   H337    1.127   .     S
C322   C323    1.532   .     S
C323   H338    1.111   .     S
C323   H339    1.113   .     S
C323   H340    1.111   .     S
C324   H341    1.111   .     S
C324   H342    1.112   .     S
C324   H343    1.111   .     S
C325   C326    1.532   .     S
C325   C327    1.533   .     S
C325   H344    1.117   .     S
C326   H345    1.110   .     S
C326   H346    1.114   .     S
C326   H347    1.108   .     S
C327   H348    1.110   .     S
C327   H349    1.107   .     S
C327   H350    1.108   .     S
N328   C329    1.301   .     D
C329   C330    1.483   .     S
C329   H351    1.084   .     S
C330   C331    1.400   .     D
C330   C605    1.404   .     S
C331   C332    1.421   .     S
C331   F607    1.364   .     S
C332   C603    1.404   .     D
C332   F606    1.365   .     S
F333   C605    1.365   .     S
F334   C604    1.364   .     S
C352   C355    1.495   .     S
C352   C353    1.408   1_565 D
C352   C587    1.407   1_455 S
C353   F354    1.359   .     S
C353   C469    1.407   .     S
C353   C352    1.408   1_545 D
C355   C356    1.399   .     S
C355   C360    1.401   .     D
C356   C357    1.411   .     D
C356   H374    1.082   .     S
C357   C358    1.421   .     S
C357   C361    1.531   .     S
C358   C359    1.427   .     D
C358   N367    1.445   .     S
C359   C360    1.412   .     S
C359   C364    1.529   .     S
C360   H375    1.081   .     S
C361   H376    1.127   .     S
C361   C362    1.532   .     S
C361   C363    1.534   1_565 S
C362   H377    1.111   .     S
C362   H378    1.113   .     S
C362   H379    1.111   .     S
C363   H380    1.111   .     S
C363   H381    1.112   .     S
C363   H382    1.111   .     S
C363   C361    1.534   1_545 S
C364   C365    1.532   .     S
C364   C366    1.533   .     S
C364   H383    1.117   .     S
C365   H384    1.110   .     S
C365   H385    1.114   .     S
C365   H386    1.108   1_455 S
C366   H387    1.110   .     S
C366   H388    1.107   .     S
C366   H389    1.108   .     S
N367   C368    1.301   .     D
C368   C369    1.483   .     S
C368   H390    1.084   .     S
C369   C370    1.400   .     D
C370   C371    1.421   .     S
H386   C365    1.108   1_655 S
C391   C394    1.495   .     S
C391   C392    1.408   .     S
C391   C626    1.407   .     D
C392   F393    1.359   .     S
C392   C508    1.407   .     D
C394   C395    1.399   .     D
C394   C399    1.401   .     S
C395   C396    1.411   .     S
C395   H413    1.082   .     S
C396   C397    1.421   .     D
C396   C400    1.531   .     S
C397   C398    1.427   .     S
C397   N406    1.445   .     S
C398   C399    1.412   .     D
C398   C403    1.529   .     S
C399   H414    1.081   .     S
C400   C402    1.534   .     S
C400   H415    1.127   .     S
C400   C401    1.532   .     S
C401   H416    1.111   .     S
C401   H417    1.113   .     S
C401   H418    1.111   .     S
C402   H419    1.111   .     S
C402   H420    1.112   .     S
C402   H421    1.111   .     S
C403   C404    1.532   .     S
C403   C405    1.533   .     S
C403   H422    1.117   .     S
C404   H423    1.110   .     S
C404   H424    1.114   .     S
C404   H425    1.108   .     S
C405   H426    1.110   .     S
C405   H427    1.107   .     S
C405   H428    1.108   .     S
N406   C407    1.301   .     D
C407   C408    1.483   .     S
C407   H429    1.084   .     S
C408   C409    1.400   .     S
C409   C410    1.421   .     D
C430   C433    1.495   .     S
C430   C431    1.408   .     S
C430   C665    1.407   .     D
C431   F432    1.359   .     S
C431   C547    1.407   .     D
C433   C434    1.399   .     D
C433   C438    1.401   .     S
C434   C435    1.411   .     S
C434   H452    1.082   .     S
C435   C436    1.421   .     D
C435   C439    1.531   .     S
C436   C437    1.427   .     S
C436   N445    1.445   .     S
C437   C438    1.412   .     D
C437   C442    1.529   .     S
C438   H453    1.081   .     S
C439   C441    1.534   .     S
C439   H454    1.127   .     S
C439   C440    1.532   .     S
C440   H455    1.111   .     S
C440   H456    1.113   .     S
C440   H457    1.111   .     S
C441   H458    1.111   .     S
C441   H459    1.112   .     S
C441   H460    1.111   .     S
C442   C443    1.532   .     S
C442   C444    1.533   .     S
C442   H461    1.117   .     S
C443   H462    1.110   .     S
C443   H463    1.114   .     S
C443   H464    1.108   .     S
C444   H465    1.110   .     S
C444   H466    1.107   .     S
C444   H467    1.108   .     S
N445   C446    1.301   .     D
C446   C447    1.483   .     S
C446   H468    1.084   .     S
C447   C448    1.400   .     S
C448   C449    1.421   .     D
C469   C472    1.495   .     S
C469   C470    1.408   1_455 D
C470   F471    1.359   .     S
C470   C469    1.408   1_655 D
C470   C586    1.407   1_545 S
C472   C473    1.399   .     D
C472   C477    1.401   .     S
C473   C474    1.411   .     S
C473   H491    1.082   .     S
C474   C475    1.421   .     D
C474   C478    1.531   .     S
C475   C476    1.427   .     S
C475   N484    1.445   .     S
C476   C477    1.412   .     D
C476   C481    1.529   .     S
C477   H492    1.081   .     S
C478   H493    1.127   .     S
C478   C479    1.532   .     S
C478   C480    1.534   1_455 S
C479   H494    1.111   .     S
C479   H495    1.113   .     S
C479   H496    1.111   .     S
C480   H497    1.111   .     S
C480   H498    1.112   .     S
C480   H499    1.111   .     S
C480   C478    1.534   1_655 S
C481   C482    1.532   .     S
C481   C483    1.533   .     S
C481   H500    1.117   .     S
C482   H501    1.110   .     S
C482   H502    1.114   .     S
C482   H503    1.108   .     S
C483   H504    1.110   .     S
C483   H505    1.107   .     S
C483   H506    1.108   .     S
N484   C485    1.301   .     D
C485   C486    1.483   .     S
C485   H507    1.084   .     S
C486   C487    1.400   .     S
C487   C488    1.421   .     D
C508   C511    1.495   .     S
C508   C509    1.408   .     S
C509   F510    1.359   .     S
C509   C625    1.407   .     D
C511   C512    1.399   .     D
C511   C516    1.401   .     S
C512   C513    1.411   .     S
C512   H530    1.082   .     S
C513   C514    1.421   .     D
C513   C517    1.531   .     S
C514   C515    1.427   .     S
C514   N523    1.445   .     S
C515   C516    1.412   .     D
C515   C520    1.529   .     S
C516   H531    1.081   .     S
C517   C519    1.534   .     S
C517   H532    1.127   .     S
C517   C518    1.532   .     S
C518   H533    1.111   .     S
C518   H534    1.113   .     S
C518   H535    1.111   .     S
C519   H536    1.111   .     S
C519   H537    1.112   .     S
C519   H538    1.111   .     S
C520   C521    1.532   .     S
C520   C522    1.533   .     S
C520   H539    1.117   .     S
C521   H540    1.110   .     S
C521   H541    1.114   .     S
C521   H542    1.108   .     S
C522   H543    1.110   .     S
C522   H544    1.107   .     S
C522   H545    1.108   .     S
N523   C524    1.301   .     D
C524   C525    1.483   .     S
C524   H546    1.084   .     S
C525   C526    1.400   .     S
C526   C527    1.421   .     D
C547   C550    1.495   .     S
C547   C548    1.408   .     S
C548   F549    1.359   .     S
C548   C664    1.407   .     D
C550   C551    1.399   .     D
C550   C555    1.401   .     S
C551   C552    1.411   .     S
C551   H569    1.082   .     S
C552   C553    1.421   .     D
C552   C556    1.531   .     S
C553   C554    1.427   .     S
C553   N562    1.445   .     S
C554   C555    1.412   .     D
C554   C559    1.529   .     S
C555   H570    1.081   .     S
C556   C558    1.534   .     S
C556   H571    1.127   .     S
C556   C557    1.532   .     S
C557   H572    1.111   .     S
C557   H573    1.113   .     S
C557   H574    1.111   .     S
C558   H575    1.111   .     S
C558   H576    1.112   .     S
C558   H577    1.111   .     S
C559   C560    1.532   .     S
C559   C561    1.533   .     S
C559   H578    1.117   .     S
C560   H579    1.110   .     S
C560   H580    1.114   .     S
C560   H581    1.108   .     S
C561   H582    1.110   .     S
C561   H583    1.107   .     S
C561   H584    1.108   .     S
N562   C563    1.301   .     D
C563   C564    1.483   .     S
C563   H585    1.084   .     S
C564   C565    1.400   .     S
C565   C566    1.421   1_565 D
C566   C565    1.421   1_545 D
C586   C589    1.495   .     S
C586   C587    1.408   .     D
C586   C470    1.407   1_565 S
C587   F588    1.359   .     S
C587   C352    1.407   1_655 S
C589   C590    1.399   .     D
C589   C594    1.401   .     S
C590   C591    1.411   .     S
C590   H608    1.082   .     S
C591   C592    1.421   .     D
C591   C595    1.531   .     S
C592   C593    1.427   .     S
C592   N601    1.445   .     S
C593   C594    1.412   .     D
C593   C598    1.529   .     S
C594   H609    1.081   .     S
C595   C597    1.534   .     S
C595   H610    1.127   .     S
C595   C596    1.532   .     S
C596   H611    1.111   .     S
C596   H612    1.113   .     S
C596   H613    1.111   .     S
C597   H614    1.111   .     S
C597   H615    1.112   .     S
C597   H616    1.111   .     S
C598   C599    1.532   .     S
C598   C600    1.533   .     S
C598   H617    1.117   .     S
C599   H618    1.110   .     S
C599   H619    1.114   .     S
C599   H620    1.108   1_565 S
C600   H621    1.110   .     S
C600   H622    1.107   .     S
C600   H623    1.108   .     S
N601   C602    1.301   .     D
C602   C603    1.483   .     S
C602   H624    1.084   .     S
C603   C604    1.400   .     S
C604   C605    1.421   .     D
H620   C599    1.108   1_545 S
C625   C628    1.495   .     S
C625   C626    1.408   .     S
C626   F627    1.359   .     S
C628   C629    1.399   .     D
C628   C633    1.401   .     S
C629   C630    1.411   .     S
C629   H647    1.082   .     S
C630   C631    1.421   .     D
C630   C634    1.531   .     S
C631   C632    1.427   .     S
C631   N640    1.445   .     S
C632   C633    1.412   .     D
C632   C637    1.529   .     S
C633   H648    1.081   .     S
C634   C636    1.534   .     S
C634   H649    1.127   .     S
C634   C635    1.532   .     S
C635   H650    1.111   .     S
C635   H651    1.113   .     S
C635   H652    1.111   .     S
C636   H653    1.111   .     S
C636   H654    1.112   .     S
C636   H655    1.111   .     S
C637   C638    1.532   .     S
C637   C639    1.533   .     S
C637   H656    1.117   .     S
C638   H657    1.110   .     S
C638   H658    1.114   .     S
C638   H659    1.108   .     S
C639   H660    1.110   .     S
C639   H661    1.107   .     S
C639   H662    1.108   .     S
N640   C641    1.301   .     D
C641   C642    1.483   .     S
C641   H663    1.084   .     S
C642   C643    1.400   .     S
C643   C644    1.421   .     D
C664   C667    1.495   .     S
C664   C665    1.408   .     S
C665   F666    1.359   .     S
C667   C668    1.399   .     D
C667   C672    1.401   .     S
C668   C669    1.411   .     S
C668   H686    1.082   .     S
C669   C670    1.421   .     D
C669   C673    1.531   .     S
C670   C671    1.427   .     S
C670   N679    1.445   .     S
C671   C672    1.412   .     D
C671   C676    1.529   .     S
C672   H687    1.081   .     S
C673   C675    1.534   .     S
C673   H688    1.127   .     S
C673   C674    1.532   .     S
C674   H689    1.111   .     S
C674   H690    1.113   .     S
C674   H691    1.111   .     S
C675   H692    1.111   .     S
C675   H693    1.112   .     S
C675   H694    1.111   .     S
C676   C677    1.532   .     S
C676   C678    1.533   .     S
C676   H695    1.117   .     S
C677   H696    1.110   .     S
C677   H697    1.114   .     S
C677   H698    1.108   .     S
C678   H699    1.110   .     S
C678   H700    1.107   .     S
C678   H701    1.108   .     S
N679   C680    1.301   .     D
C680   C681    1.483   .     S
C680   H702    1.084   .     S
C681   C682    1.400   .     S
C682   C683    1.421   1_455 D
C683   C682    1.421   1_655 D
