data_767
_audit_creation_date              2023-09-08
_audit_creation_method            'Materials Studio'
_symmetry_space_group_name_H-M    'P1'
_symmetry_Int_Tables_number       1
_symmetry_cell_setting            triclinic
loop_
_symmetry_equiv_pos_as_xyz
  x,y,z
_cell_length_a                    32.5900
_cell_length_b                    32.5900
_cell_length_c                    32.5900
_cell_angle_alpha                 90.0000
_cell_angle_beta                  90.0000
_cell_angle_gamma                 90.0000
loop_
_atom_site_label
_atom_site_type_symbol
_atom_site_fract_x
_atom_site_fract_y
_atom_site_fract_z
_atom_site_U_iso_or_equiv
_atom_site_adp_type
_atom_site_occupancy
C1     C     0.24455   0.69810   0.86489   0.00000  Uiso   1.00
C2     C     0.24399   0.71130   0.82375   0.00000  Uiso   1.00
C3     C     0.24621   0.65568   0.87297   0.00000  Uiso   1.00
N4     N     0.37896   0.73001   0.76533   0.00000  Uiso   1.00
C5     C     0.24976   0.61053   0.76534   0.00000  Uiso   1.00
C6     C     0.24447   0.68250   0.79173   0.00000  Uiso   1.00
N7     N     0.10674   0.74573   0.76559   0.00000  Uiso   1.00
C8     C     0.27226   0.89930   0.75664   0.00000  Uiso   1.00
C9     C     0.24807   0.62704   0.84074   0.00000  Uiso   1.00
O10    O     0.24311   0.74923   0.81374   0.00000  Uiso   1.00
C11    C     0.24672   0.64015   0.79974   0.00000  Uiso   1.00
O12    O     0.30367   0.75525   0.75640   0.00000  Uiso   1.00
C13    C     0.39839   0.69091   0.76094   0.00000  Uiso   1.00
C14    C     0.42390   0.68118   0.72754   0.00000  Uiso   1.00
C15    C     0.43609   0.64039   0.72086   0.00000  Uiso   1.00
C16    C     0.42322   0.60890   0.74767   0.00000  Uiso   1.00
C17    C     0.39771   0.61937   0.78095   0.00000  Uiso   1.00
C18    C     0.38562   0.65978   0.78741   0.00000  Uiso   1.00
C19    C     0.43239   0.56702   0.74060   0.00000  Uiso   1.00
C20    C     0.39936   0.53937   0.74097   0.00000  Uiso   1.00
C21    C     0.40483   0.49674   0.74048   0.00000  Uiso   1.00
C22    C     0.44548   0.48082   0.73826   0.00000  Uiso   1.00
C23    C     0.47957   0.50806   0.73734   0.00000  Uiso   1.00
C24    C     0.47303   0.55129   0.73761   0.00000  Uiso   1.00
C25    C     0.49252   0.42276   0.73692   0.00000  Uiso   1.00
C26    C     0.45303   0.43844   0.73531   0.00000  Uiso   1.00
C27    C     0.63060   0.52817   0.74465   0.00000  Uiso   1.00
C28    C     0.66606   0.52009   0.72114   0.00000  Uiso   1.00
C29    C     0.70100   0.54476   0.72482   0.00000  Uiso   1.00
C30    C     0.70134   0.57779   0.75254   0.00000  Uiso   1.00
C31    C     0.66680   0.58511   0.77689   0.00000  Uiso   1.00
C32    C     0.63212   0.56019   0.77366   0.00000  Uiso   1.00
H33    H     0.24683   0.64470   0.90434   0.00000  Uiso   1.00
H34    H     0.26572   0.58166   0.76935   0.00000  Uiso   1.00
H35    H     0.28270   0.92948   0.76582   0.00000  Uiso   1.00
H36    H     0.25017   0.59463   0.84782   0.00000  Uiso   1.00
H37    H     0.43246   0.70446   0.70551   0.00000  Uiso   1.00
H38    H     0.45386   0.63320   0.69369   0.00000  Uiso   1.00
H39    H     0.38697   0.59608   0.80213   0.00000  Uiso   1.00
H40    H     0.36500   0.66675   0.81254   0.00000  Uiso   1.00
H41    H     0.36844   0.55155   0.74353   0.00000  Uiso   1.00
H42    H     0.49514   0.38981   0.73793   0.00000  Uiso   1.00
H43    H     0.42847   0.41645   0.73192   0.00000  Uiso   1.00
H44    H     0.66604   0.49588   0.69840   0.00000  Uiso   1.00
H45    H     0.72685   0.53889   0.70484   0.00000  Uiso   1.00
H46    H     0.66673   0.61043   0.79843   0.00000  Uiso   1.00
H47    H     0.60649   0.56593   0.79404   0.00000  Uiso   1.00
C48    C     0.74455   0.19810   0.36489   0.00000  Uiso   1.00
C49    C     0.74399   0.21130   0.32375   0.00000  Uiso   1.00
C50    C     0.74621   0.15568   0.37297   0.00000  Uiso   1.00
N51    N     0.87896   0.23001   0.26533   0.00000  Uiso   1.00
C52    C     0.74976   0.11053   0.26534   0.00000  Uiso   1.00
C53    C     0.74447   0.18250   0.29173   0.00000  Uiso   1.00
N54    N     0.60674   0.24573   0.26559   0.00000  Uiso   1.00
C55    C     0.77226   0.39930   0.25664   0.00000  Uiso   1.00
C56    C     0.74807   0.12704   0.34074   0.00000  Uiso   1.00
O57    O     0.74311   0.24923   0.31374   0.00000  Uiso   1.00
C58    C     0.74672   0.14015   0.29974   0.00000  Uiso   1.00
O59    O     0.80367   0.25525   0.25640   0.00000  Uiso   1.00
C60    C     0.89839   0.19091   0.26094   0.00000  Uiso   1.00
C61    C     0.92390   0.18118   0.22754   0.00000  Uiso   1.00
C62    C     0.93609   0.14039   0.22086   0.00000  Uiso   1.00
C63    C     0.92322   0.10890   0.24767   0.00000  Uiso   1.00
C64    C     0.89771   0.11937   0.28095   0.00000  Uiso   1.00
C65    C     0.88562   0.15978   0.28741   0.00000  Uiso   1.00
C66    C     0.93239   0.06702   0.24060   0.00000  Uiso   1.00
C67    C     0.89936   0.03937   0.24097   0.00000  Uiso   1.00
C68    C     0.90483   0.99674   0.24048   0.00000  Uiso   1.00
C69    C     0.94548   0.98082   0.23826   0.00000  Uiso   1.00
C70    C     0.97957   0.00806   0.23734   0.00000  Uiso   1.00
C71    C     0.97303   0.05129   0.23761   0.00000  Uiso   1.00
C72    C     0.99252   0.92276   0.23692   0.00000  Uiso   1.00
C73    C     0.95303   0.93844   0.23531   0.00000  Uiso   1.00
C74    C     0.13060   0.02817   0.24465   0.00000  Uiso   1.00
C75    C     0.16606   0.02009   0.22114   0.00000  Uiso   1.00
C76    C     0.20100   0.04476   0.22482   0.00000  Uiso   1.00
C77    C     0.20134   0.07779   0.25254   0.00000  Uiso   1.00
C78    C     0.16680   0.08511   0.27689   0.00000  Uiso   1.00
C79    C     0.13212   0.06019   0.27366   0.00000  Uiso   1.00
H80    H     0.74683   0.14470   0.40434   0.00000  Uiso   1.00
H81    H     0.76572   0.08166   0.26935   0.00000  Uiso   1.00
H82    H     0.78270   0.42948   0.26582   0.00000  Uiso   1.00
H83    H     0.75017   0.09463   0.34782   0.00000  Uiso   1.00
H84    H     0.93246   0.20446   0.20551   0.00000  Uiso   1.00
H85    H     0.95386   0.13320   0.19369   0.00000  Uiso   1.00
H86    H     0.88697   0.09608   0.30213   0.00000  Uiso   1.00
H87    H     0.86500   0.16675   0.31254   0.00000  Uiso   1.00
H88    H     0.86844   0.05155   0.24353   0.00000  Uiso   1.00
H89    H     0.99514   0.88981   0.23793   0.00000  Uiso   1.00
H90    H     0.92847   0.91645   0.23192   0.00000  Uiso   1.00
H91    H     0.16604   0.99588   0.19840   0.00000  Uiso   1.00
H92    H     0.22685   0.03889   0.20484   0.00000  Uiso   1.00
H93    H     0.16673   0.11043   0.29843   0.00000  Uiso   1.00
H94    H     0.10649   0.06593   0.29404   0.00000  Uiso   1.00
C95    C     0.75545   0.30190   0.86489   0.00000  Uiso   1.00
C96    C     0.75601   0.28870   0.82375   0.00000  Uiso   1.00
C97    C     0.75379   0.34432   0.87297   0.00000  Uiso   1.00
N98    N     0.62104   0.26999   0.76533   0.00000  Uiso   1.00
C99    C     0.75024   0.38947   0.76534   0.00000  Uiso   1.00
C100   C     0.75553   0.31750   0.79173   0.00000  Uiso   1.00
N101   N     0.89326   0.25427   0.76559   0.00000  Uiso   1.00
C102   C     0.72774   0.10070   0.75664   0.00000  Uiso   1.00
C103   C     0.75193   0.37296   0.84074   0.00000  Uiso   1.00
O104   O     0.75689   0.25077   0.81374   0.00000  Uiso   1.00
C105   C     0.75328   0.35985   0.79974   0.00000  Uiso   1.00
O106   O     0.69633   0.24475   0.75640   0.00000  Uiso   1.00
C107   C     0.60161   0.30909   0.76094   0.00000  Uiso   1.00
C108   C     0.57610   0.31882   0.72754   0.00000  Uiso   1.00
C109   C     0.56391   0.35961   0.72086   0.00000  Uiso   1.00
C110   C     0.57678   0.39110   0.74767   0.00000  Uiso   1.00
C111   C     0.60229   0.38063   0.78095   0.00000  Uiso   1.00
C112   C     0.61438   0.34022   0.78741   0.00000  Uiso   1.00
C113   C     0.56761   0.43298   0.74060   0.00000  Uiso   1.00
C114   C     0.60064   0.46063   0.74097   0.00000  Uiso   1.00
C115   C     0.59517   0.50326   0.74048   0.00000  Uiso   1.00
C116   C     0.55452   0.51918   0.73826   0.00000  Uiso   1.00
C117   C     0.52043   0.49194   0.73734   0.00000  Uiso   1.00
C118   C     0.52697   0.44871   0.73761   0.00000  Uiso   1.00
C119   C     0.50748   0.57724   0.73692   0.00000  Uiso   1.00
C120   C     0.54697   0.56156   0.73531   0.00000  Uiso   1.00
C121   C     0.36940   0.47183   0.74465   0.00000  Uiso   1.00
C122   C     0.33394   0.47991   0.72114   0.00000  Uiso   1.00
C123   C     0.29900   0.45524   0.72482   0.00000  Uiso   1.00
C124   C     0.29866   0.42221   0.75254   0.00000  Uiso   1.00
C125   C     0.33320   0.41489   0.77689   0.00000  Uiso   1.00
C126   C     0.36788   0.43981   0.77366   0.00000  Uiso   1.00
H127   H     0.75317   0.35530   0.90434   0.00000  Uiso   1.00
H128   H     0.73428   0.41834   0.76935   0.00000  Uiso   1.00
H129   H     0.71730   0.07052   0.76582   0.00000  Uiso   1.00
H130   H     0.74983   0.40537   0.84782   0.00000  Uiso   1.00
H131   H     0.56754   0.29554   0.70551   0.00000  Uiso   1.00
H132   H     0.54614   0.36680   0.69369   0.00000  Uiso   1.00
H133   H     0.61303   0.40392   0.80213   0.00000  Uiso   1.00
H134   H     0.63500   0.33325   0.81254   0.00000  Uiso   1.00
H135   H     0.63156   0.44845   0.74353   0.00000  Uiso   1.00
H136   H     0.50486   0.61019   0.73793   0.00000  Uiso   1.00
H137   H     0.57153   0.58355   0.73192   0.00000  Uiso   1.00
H138   H     0.33396   0.50412   0.69840   0.00000  Uiso   1.00
H139   H     0.27315   0.46111   0.70484   0.00000  Uiso   1.00
H140   H     0.33327   0.38957   0.79843   0.00000  Uiso   1.00
H141   H     0.39351   0.43407   0.79404   0.00000  Uiso   1.00
C142   C     0.25545   0.80190   0.36489   0.00000  Uiso   1.00
C143   C     0.25601   0.78870   0.32375   0.00000  Uiso   1.00
C144   C     0.25379   0.84432   0.37297   0.00000  Uiso   1.00
N145   N     0.12104   0.76999   0.26533   0.00000  Uiso   1.00
C146   C     0.25024   0.88947   0.26534   0.00000  Uiso   1.00
C147   C     0.25553   0.81750   0.29173   0.00000  Uiso   1.00
N148   N     0.39326   0.75427   0.26559   0.00000  Uiso   1.00
C149   C     0.22774   0.60070   0.25664   0.00000  Uiso   1.00
C150   C     0.25193   0.87296   0.34074   0.00000  Uiso   1.00
O151   O     0.25689   0.75077   0.31374   0.00000  Uiso   1.00
C152   C     0.25328   0.85985   0.29974   0.00000  Uiso   1.00
O153   O     0.19633   0.74475   0.25640   0.00000  Uiso   1.00
C154   C     0.10161   0.80909   0.26094   0.00000  Uiso   1.00
C155   C     0.07610   0.81882   0.22754   0.00000  Uiso   1.00
C156   C     0.06391   0.85961   0.22086   0.00000  Uiso   1.00
C157   C     0.07678   0.89110   0.24767   0.00000  Uiso   1.00
C158   C     0.10229   0.88063   0.28095   0.00000  Uiso   1.00
C159   C     0.11438   0.84022   0.28741   0.00000  Uiso   1.00
C160   C     0.06761   0.93298   0.24060   0.00000  Uiso   1.00
C161   C     0.10064   0.96063   0.24097   0.00000  Uiso   1.00
C162   C     0.09517   0.00326   0.24048   0.00000  Uiso   1.00
C163   C     0.05452   0.01918   0.23826   0.00000  Uiso   1.00
C164   C     0.02043   0.99194   0.23734   0.00000  Uiso   1.00
C165   C     0.02697   0.94871   0.23761   0.00000  Uiso   1.00
C166   C     0.00748   0.07724   0.23692   0.00000  Uiso   1.00
C167   C     0.04697   0.06156   0.23531   0.00000  Uiso   1.00
C168   C     0.86940   0.97183   0.24465   0.00000  Uiso   1.00
C169   C     0.83394   0.97991   0.22114   0.00000  Uiso   1.00
C170   C     0.79900   0.95524   0.22482   0.00000  Uiso   1.00
C171   C     0.79866   0.92221   0.25254   0.00000  Uiso   1.00
C172   C     0.83320   0.91489   0.27689   0.00000  Uiso   1.00
C173   C     0.86788   0.93981   0.27366   0.00000  Uiso   1.00
H174   H     0.25317   0.85530   0.40434   0.00000  Uiso   1.00
H175   H     0.23428   0.91834   0.26935   0.00000  Uiso   1.00
H176   H     0.21730   0.57052   0.26582   0.00000  Uiso   1.00
H177   H     0.24983   0.90537   0.34782   0.00000  Uiso   1.00
H178   H     0.06754   0.79554   0.20551   0.00000  Uiso   1.00
H179   H     0.04614   0.86680   0.19369   0.00000  Uiso   1.00
H180   H     0.11303   0.90392   0.30213   0.00000  Uiso   1.00
H181   H     0.13500   0.83325   0.31254   0.00000  Uiso   1.00
H182   H     0.13156   0.94845   0.24353   0.00000  Uiso   1.00
H183   H     0.00486   0.11019   0.23793   0.00000  Uiso   1.00
H184   H     0.07153   0.08355   0.23192   0.00000  Uiso   1.00
H185   H     0.83396   0.00412   0.19840   0.00000  Uiso   1.00
H186   H     0.77315   0.96111   0.20484   0.00000  Uiso   1.00
H187   H     0.83327   0.88957   0.29843   0.00000  Uiso   1.00
H188   H     0.89351   0.93407   0.29404   0.00000  Uiso   1.00
C189   C     0.75545   0.69810   0.13511   0.00000  Uiso   1.00
C190   C     0.75601   0.71130   0.17625   0.00000  Uiso   1.00
C191   C     0.75379   0.65568   0.12703   0.00000  Uiso   1.00
N192   N     0.62104   0.73001   0.23467   0.00000  Uiso   1.00
C193   C     0.75024   0.61053   0.23466   0.00000  Uiso   1.00
C194   C     0.75553   0.68250   0.20827   0.00000  Uiso   1.00
N195   N     0.89326   0.74573   0.23441   0.00000  Uiso   1.00
C196   C     0.72774   0.89930   0.24336   0.00000  Uiso   1.00
C197   C     0.75193   0.62704   0.15926   0.00000  Uiso   1.00
O198   O     0.75689   0.74923   0.18626   0.00000  Uiso   1.00
C199   C     0.75328   0.64015   0.20026   0.00000  Uiso   1.00
O200   O     0.69633   0.75525   0.24360   0.00000  Uiso   1.00
C201   C     0.60161   0.69091   0.23906   0.00000  Uiso   1.00
C202   C     0.57610   0.68118   0.27246   0.00000  Uiso   1.00
C203   C     0.56391   0.64039   0.27914   0.00000  Uiso   1.00
C204   C     0.57678   0.60890   0.25233   0.00000  Uiso   1.00
C205   C     0.60229   0.61937   0.21905   0.00000  Uiso   1.00
C206   C     0.61438   0.65978   0.21259   0.00000  Uiso   1.00
C207   C     0.56761   0.56702   0.25940   0.00000  Uiso   1.00
C208   C     0.60064   0.53937   0.25903   0.00000  Uiso   1.00
C209   C     0.59517   0.49674   0.25952   0.00000  Uiso   1.00
C210   C     0.55452   0.48082   0.26174   0.00000  Uiso   1.00
C211   C     0.52043   0.50806   0.26266   0.00000  Uiso   1.00
C212   C     0.52697   0.55129   0.26239   0.00000  Uiso   1.00
C213   C     0.50748   0.42276   0.26308   0.00000  Uiso   1.00
C214   C     0.54697   0.43844   0.26469   0.00000  Uiso   1.00
C215   C     0.36940   0.52817   0.25535   0.00000  Uiso   1.00
C216   C     0.33394   0.52009   0.27886   0.00000  Uiso   1.00
C217   C     0.29900   0.54476   0.27518   0.00000  Uiso   1.00
C218   C     0.29866   0.57779   0.24746   0.00000  Uiso   1.00
C219   C     0.33320   0.58511   0.22311   0.00000  Uiso   1.00
C220   C     0.36788   0.56019   0.22634   0.00000  Uiso   1.00
H221   H     0.75317   0.64470   0.09566   0.00000  Uiso   1.00
H222   H     0.73428   0.58166   0.23065   0.00000  Uiso   1.00
H223   H     0.71730   0.92948   0.23418   0.00000  Uiso   1.00
H224   H     0.74983   0.59463   0.15218   0.00000  Uiso   1.00
H225   H     0.56754   0.70446   0.29449   0.00000  Uiso   1.00
H226   H     0.54614   0.63320   0.30631   0.00000  Uiso   1.00
H227   H     0.61303   0.59608   0.19787   0.00000  Uiso   1.00
H228   H     0.63500   0.66675   0.18746   0.00000  Uiso   1.00
H229   H     0.63156   0.55155   0.25647   0.00000  Uiso   1.00
H230   H     0.50486   0.38981   0.26207   0.00000  Uiso   1.00
H231   H     0.57153   0.41645   0.26808   0.00000  Uiso   1.00
H232   H     0.33396   0.49588   0.30160   0.00000  Uiso   1.00
H233   H     0.27315   0.53889   0.29516   0.00000  Uiso   1.00
H234   H     0.33327   0.61043   0.20157   0.00000  Uiso   1.00
H235   H     0.39351   0.56593   0.20596   0.00000  Uiso   1.00
C236   C     0.25545   0.19810   0.63511   0.00000  Uiso   1.00
C237   C     0.25601   0.21130   0.67625   0.00000  Uiso   1.00
C238   C     0.25379   0.15568   0.62703   0.00000  Uiso   1.00
N239   N     0.12104   0.23001   0.73467   0.00000  Uiso   1.00
C240   C     0.25024   0.11053   0.73466   0.00000  Uiso   1.00
C241   C     0.25553   0.18250   0.70827   0.00000  Uiso   1.00
N242   N     0.39326   0.24573   0.73441   0.00000  Uiso   1.00
C243   C     0.22774   0.39930   0.74336   0.00000  Uiso   1.00
C244   C     0.25193   0.12704   0.65926   0.00000  Uiso   1.00
O245   O     0.25689   0.24923   0.68626   0.00000  Uiso   1.00
C246   C     0.25328   0.14015   0.70026   0.00000  Uiso   1.00
O247   O     0.19633   0.25525   0.74360   0.00000  Uiso   1.00
C248   C     0.10161   0.19091   0.73906   0.00000  Uiso   1.00
C249   C     0.07610   0.18118   0.77246   0.00000  Uiso   1.00
C250   C     0.06391   0.14039   0.77914   0.00000  Uiso   1.00
C251   C     0.07678   0.10890   0.75233   0.00000  Uiso   1.00
C252   C     0.10229   0.11937   0.71905   0.00000  Uiso   1.00
C253   C     0.11438   0.15978   0.71259   0.00000  Uiso   1.00
C254   C     0.06761   0.06702   0.75940   0.00000  Uiso   1.00
C255   C     0.10064   0.03937   0.75903   0.00000  Uiso   1.00
C256   C     0.09517   0.99674   0.75952   0.00000  Uiso   1.00
C257   C     0.05452   0.98082   0.76174   0.00000  Uiso   1.00
C258   C     0.02043   0.00806   0.76266   0.00000  Uiso   1.00
C259   C     0.02697   0.05129   0.76239   0.00000  Uiso   1.00
C260   C     0.00748   0.92276   0.76308   0.00000  Uiso   1.00
C261   C     0.04697   0.93844   0.76469   0.00000  Uiso   1.00
C262   C     0.86940   0.02817   0.75535   0.00000  Uiso   1.00
C263   C     0.83394   0.02009   0.77886   0.00000  Uiso   1.00
C264   C     0.79900   0.04476   0.77518   0.00000  Uiso   1.00
C265   C     0.79866   0.07779   0.74746   0.00000  Uiso   1.00
C266   C     0.83320   0.08511   0.72311   0.00000  Uiso   1.00
C267   C     0.86788   0.06019   0.72634   0.00000  Uiso   1.00
H268   H     0.25317   0.14470   0.59566   0.00000  Uiso   1.00
H269   H     0.23428   0.08166   0.73065   0.00000  Uiso   1.00
H270   H     0.21730   0.42948   0.73418   0.00000  Uiso   1.00
H271   H     0.24983   0.09463   0.65218   0.00000  Uiso   1.00
H272   H     0.06754   0.20446   0.79449   0.00000  Uiso   1.00
H273   H     0.04614   0.13320   0.80631   0.00000  Uiso   1.00
H274   H     0.11303   0.09608   0.69787   0.00000  Uiso   1.00
H275   H     0.13500   0.16675   0.68746   0.00000  Uiso   1.00
H276   H     0.13156   0.05155   0.75647   0.00000  Uiso   1.00
H277   H     0.00486   0.88981   0.76207   0.00000  Uiso   1.00
H278   H     0.07153   0.91645   0.76808   0.00000  Uiso   1.00
H279   H     0.83396   0.99588   0.80160   0.00000  Uiso   1.00
H280   H     0.77315   0.03889   0.79516   0.00000  Uiso   1.00
H281   H     0.83327   0.11043   0.70157   0.00000  Uiso   1.00
H282   H     0.89351   0.06593   0.70596   0.00000  Uiso   1.00
C283   C     0.24455   0.30190   0.13511   0.00000  Uiso   1.00
C284   C     0.24399   0.28870   0.17625   0.00000  Uiso   1.00
C285   C     0.24621   0.34432   0.12703   0.00000  Uiso   1.00
N286   N     0.37896   0.26999   0.23467   0.00000  Uiso   1.00
C287   C     0.24976   0.38947   0.23466   0.00000  Uiso   1.00
C288   C     0.24447   0.31750   0.20827   0.00000  Uiso   1.00
N289   N     0.10674   0.25427   0.23441   0.00000  Uiso   1.00
C290   C     0.27226   0.10070   0.24336   0.00000  Uiso   1.00
C291   C     0.24807   0.37296   0.15926   0.00000  Uiso   1.00
O292   O     0.24311   0.25077   0.18626   0.00000  Uiso   1.00
C293   C     0.24672   0.35985   0.20026   0.00000  Uiso   1.00
O294   O     0.30367   0.24475   0.24360   0.00000  Uiso   1.00
C295   C     0.39839   0.30909   0.23906   0.00000  Uiso   1.00
C296   C     0.42390   0.31882   0.27246   0.00000  Uiso   1.00
C297   C     0.43609   0.35961   0.27914   0.00000  Uiso   1.00
C298   C     0.42322   0.39110   0.25233   0.00000  Uiso   1.00
C299   C     0.39771   0.38063   0.21905   0.00000  Uiso   1.00
C300   C     0.38562   0.34022   0.21259   0.00000  Uiso   1.00
C301   C     0.43239   0.43298   0.25940   0.00000  Uiso   1.00
C302   C     0.39936   0.46063   0.25903   0.00000  Uiso   1.00
C303   C     0.40483   0.50326   0.25952   0.00000  Uiso   1.00
C304   C     0.44548   0.51918   0.26174   0.00000  Uiso   1.00
C305   C     0.47957   0.49194   0.26266   0.00000  Uiso   1.00
C306   C     0.47303   0.44871   0.26239   0.00000  Uiso   1.00
C307   C     0.49252   0.57724   0.26308   0.00000  Uiso   1.00
C308   C     0.45303   0.56156   0.26469   0.00000  Uiso   1.00
C309   C     0.63060   0.47183   0.25535   0.00000  Uiso   1.00
C310   C     0.66606   0.47991   0.27886   0.00000  Uiso   1.00
C311   C     0.70100   0.45524   0.27518   0.00000  Uiso   1.00
C312   C     0.70134   0.42221   0.24746   0.00000  Uiso   1.00
C313   C     0.66680   0.41489   0.22311   0.00000  Uiso   1.00
C314   C     0.63212   0.43981   0.22634   0.00000  Uiso   1.00
H315   H     0.24683   0.35530   0.09566   0.00000  Uiso   1.00
H316   H     0.26572   0.41834   0.23065   0.00000  Uiso   1.00
H317   H     0.28270   0.07052   0.23418   0.00000  Uiso   1.00
H318   H     0.25017   0.40537   0.15218   0.00000  Uiso   1.00
H319   H     0.43246   0.29554   0.29449   0.00000  Uiso   1.00
H320   H     0.45386   0.36680   0.30631   0.00000  Uiso   1.00
H321   H     0.38697   0.40392   0.19787   0.00000  Uiso   1.00
H322   H     0.36500   0.33325   0.18746   0.00000  Uiso   1.00
H323   H     0.36844   0.44845   0.25647   0.00000  Uiso   1.00
H324   H     0.49514   0.61019   0.26207   0.00000  Uiso   1.00
H325   H     0.42847   0.58355   0.26808   0.00000  Uiso   1.00
H326   H     0.66604   0.50412   0.30160   0.00000  Uiso   1.00
H327   H     0.72685   0.46111   0.29516   0.00000  Uiso   1.00
H328   H     0.66673   0.38957   0.20157   0.00000  Uiso   1.00
H329   H     0.60649   0.43407   0.20596   0.00000  Uiso   1.00
C330   C     0.74455   0.80190   0.63511   0.00000  Uiso   1.00
C331   C     0.74399   0.78870   0.67625   0.00000  Uiso   1.00
C332   C     0.74621   0.84432   0.62703   0.00000  Uiso   1.00
N333   N     0.87896   0.76999   0.73467   0.00000  Uiso   1.00
C334   C     0.74976   0.88947   0.73466   0.00000  Uiso   1.00
C335   C     0.74447   0.81750   0.70827   0.00000  Uiso   1.00
N336   N     0.60674   0.75427   0.73441   0.00000  Uiso   1.00
C337   C     0.77226   0.60070   0.74336   0.00000  Uiso   1.00
C338   C     0.74807   0.87296   0.65926   0.00000  Uiso   1.00
O339   O     0.74311   0.75077   0.68626   0.00000  Uiso   1.00
C340   C     0.74672   0.85985   0.70026   0.00000  Uiso   1.00
O341   O     0.80367   0.74475   0.74360   0.00000  Uiso   1.00
C342   C     0.89839   0.80909   0.73906   0.00000  Uiso   1.00
C343   C     0.92390   0.81882   0.77246   0.00000  Uiso   1.00
C344   C     0.93609   0.85961   0.77914   0.00000  Uiso   1.00
C345   C     0.92322   0.89110   0.75233   0.00000  Uiso   1.00
C346   C     0.89771   0.88063   0.71905   0.00000  Uiso   1.00
C347   C     0.88562   0.84022   0.71259   0.00000  Uiso   1.00
C348   C     0.93239   0.93298   0.75940   0.00000  Uiso   1.00
C349   C     0.89936   0.96063   0.75903   0.00000  Uiso   1.00
C350   C     0.90483   0.00326   0.75952   0.00000  Uiso   1.00
C351   C     0.94548   0.01918   0.76174   0.00000  Uiso   1.00
C352   C     0.97957   0.99194   0.76266   0.00000  Uiso   1.00
C353   C     0.97303   0.94871   0.76239   0.00000  Uiso   1.00
C354   C     0.99252   0.07724   0.76308   0.00000  Uiso   1.00
C355   C     0.95303   0.06156   0.76469   0.00000  Uiso   1.00
C356   C     0.13060   0.97183   0.75535   0.00000  Uiso   1.00
C357   C     0.16606   0.97991   0.77886   0.00000  Uiso   1.00
C358   C     0.20100   0.95524   0.77518   0.00000  Uiso   1.00
C359   C     0.20134   0.92221   0.74746   0.00000  Uiso   1.00
C360   C     0.16680   0.91489   0.72311   0.00000  Uiso   1.00
C361   C     0.13212   0.93981   0.72634   0.00000  Uiso   1.00
H362   H     0.74683   0.85530   0.59566   0.00000  Uiso   1.00
H363   H     0.76572   0.91834   0.73065   0.00000  Uiso   1.00
H364   H     0.78270   0.57052   0.73418   0.00000  Uiso   1.00
H365   H     0.75017   0.90537   0.65218   0.00000  Uiso   1.00
H366   H     0.93246   0.79554   0.79449   0.00000  Uiso   1.00
H367   H     0.95386   0.86680   0.80631   0.00000  Uiso   1.00
H368   H     0.88697   0.90392   0.69787   0.00000  Uiso   1.00
H369   H     0.86500   0.83325   0.68746   0.00000  Uiso   1.00
H370   H     0.86844   0.94845   0.75647   0.00000  Uiso   1.00
H371   H     0.99514   0.11019   0.76207   0.00000  Uiso   1.00
H372   H     0.92847   0.08355   0.76808   0.00000  Uiso   1.00
H373   H     0.16604   0.00412   0.80160   0.00000  Uiso   1.00
H374   H     0.22685   0.96111   0.79516   0.00000  Uiso   1.00
H375   H     0.16673   0.88957   0.70157   0.00000  Uiso   1.00
H376   H     0.10649   0.93407   0.70596   0.00000  Uiso   1.00
C377   C     0.86489   0.24455   0.69810   0.00000  Uiso   1.00
C378   C     0.82375   0.24399   0.71130   0.00000  Uiso   1.00
C379   C     0.87297   0.24621   0.65568   0.00000  Uiso   1.00
N380   N     0.76533   0.37896   0.73001   0.00000  Uiso   1.00
C381   C     0.76534   0.24976   0.61053   0.00000  Uiso   1.00
C382   C     0.79173   0.24447   0.68250   0.00000  Uiso   1.00
N383   N     0.76559   0.10674   0.74573   0.00000  Uiso   1.00
C384   C     0.75664   0.27226   0.89930   0.00000  Uiso   1.00
C385   C     0.84074   0.24807   0.62704   0.00000  Uiso   1.00
O386   O     0.81374   0.24311   0.74923   0.00000  Uiso   1.00
C387   C     0.79974   0.24672   0.64015   0.00000  Uiso   1.00
O388   O     0.75640   0.30367   0.75525   0.00000  Uiso   1.00
C389   C     0.76094   0.39839   0.69091   0.00000  Uiso   1.00
C390   C     0.72754   0.42390   0.68118   0.00000  Uiso   1.00
C391   C     0.72086   0.43609   0.64039   0.00000  Uiso   1.00
C392   C     0.74767   0.42322   0.60890   0.00000  Uiso   1.00
C393   C     0.78095   0.39771   0.61937   0.00000  Uiso   1.00
C394   C     0.78741   0.38562   0.65978   0.00000  Uiso   1.00
C395   C     0.74060   0.43239   0.56702   0.00000  Uiso   1.00
C396   C     0.74097   0.39936   0.53937   0.00000  Uiso   1.00
C397   C     0.74048   0.40483   0.49674   0.00000  Uiso   1.00
C398   C     0.73826   0.44548   0.48082   0.00000  Uiso   1.00
C399   C     0.73734   0.47957   0.50806   0.00000  Uiso   1.00
C400   C     0.73761   0.47303   0.55129   0.00000  Uiso   1.00
C401   C     0.73692   0.49252   0.42276   0.00000  Uiso   1.00
C402   C     0.73531   0.45303   0.43844   0.00000  Uiso   1.00
C403   C     0.74465   0.63060   0.52817   0.00000  Uiso   1.00
C404   C     0.72114   0.66606   0.52009   0.00000  Uiso   1.00
C405   C     0.72482   0.70100   0.54476   0.00000  Uiso   1.00
C406   C     0.75254   0.70134   0.57779   0.00000  Uiso   1.00
C407   C     0.77689   0.66680   0.58511   0.00000  Uiso   1.00
C408   C     0.77366   0.63212   0.56019   0.00000  Uiso   1.00
H409   H     0.90434   0.24683   0.64470   0.00000  Uiso   1.00
H410   H     0.76935   0.26572   0.58166   0.00000  Uiso   1.00
H411   H     0.76582   0.28270   0.92948   0.00000  Uiso   1.00
H412   H     0.84782   0.25017   0.59463   0.00000  Uiso   1.00
H413   H     0.70551   0.43246   0.70446   0.00000  Uiso   1.00
H414   H     0.69369   0.45386   0.63320   0.00000  Uiso   1.00
H415   H     0.80213   0.38697   0.59608   0.00000  Uiso   1.00
H416   H     0.81254   0.36500   0.66675   0.00000  Uiso   1.00
H417   H     0.74353   0.36844   0.55155   0.00000  Uiso   1.00
H418   H     0.73793   0.49514   0.38981   0.00000  Uiso   1.00
H419   H     0.73192   0.42847   0.41645   0.00000  Uiso   1.00
H420   H     0.69840   0.66604   0.49588   0.00000  Uiso   1.00
H421   H     0.70484   0.72685   0.53889   0.00000  Uiso   1.00
H422   H     0.79843   0.66673   0.61043   0.00000  Uiso   1.00
H423   H     0.79404   0.60649   0.56593   0.00000  Uiso   1.00
C424   C     0.36489   0.74455   0.19810   0.00000  Uiso   1.00
C425   C     0.32375   0.74399   0.21130   0.00000  Uiso   1.00
C426   C     0.37297   0.74621   0.15568   0.00000  Uiso   1.00
N427   N     0.26533   0.87896   0.23001   0.00000  Uiso   1.00
C428   C     0.26534   0.74976   0.11053   0.00000  Uiso   1.00
C429   C     0.29173   0.74447   0.18250   0.00000  Uiso   1.00
N430   N     0.26559   0.60674   0.24573   0.00000  Uiso   1.00
C431   C     0.25664   0.77226   0.39930   0.00000  Uiso   1.00
C432   C     0.34074   0.74807   0.12704   0.00000  Uiso   1.00
O433   O     0.31374   0.74311   0.24923   0.00000  Uiso   1.00
C434   C     0.29974   0.74672   0.14015   0.00000  Uiso   1.00
O435   O     0.25640   0.80367   0.25525   0.00000  Uiso   1.00
C436   C     0.26094   0.89839   0.19091   0.00000  Uiso   1.00
C437   C     0.22754   0.92390   0.18118   0.00000  Uiso   1.00
C438   C     0.22086   0.93609   0.14039   0.00000  Uiso   1.00
C439   C     0.24767   0.92322   0.10890   0.00000  Uiso   1.00
C440   C     0.28095   0.89771   0.11937   0.00000  Uiso   1.00
C441   C     0.28741   0.88562   0.15978   0.00000  Uiso   1.00
C442   C     0.24060   0.93239   0.06702   0.00000  Uiso   1.00
C443   C     0.24097   0.89936   0.03937   0.00000  Uiso   1.00
C444   C     0.24048   0.90483   0.99674   0.00000  Uiso   1.00
C445   C     0.23826   0.94548   0.98082   0.00000  Uiso   1.00
C446   C     0.23734   0.97957   0.00806   0.00000  Uiso   1.00
C447   C     0.23761   0.97303   0.05129   0.00000  Uiso   1.00
C448   C     0.23692   0.99252   0.92276   0.00000  Uiso   1.00
C449   C     0.23531   0.95303   0.93844   0.00000  Uiso   1.00
C450   C     0.24465   0.13060   0.02817   0.00000  Uiso   1.00
C451   C     0.22114   0.16606   0.02009   0.00000  Uiso   1.00
C452   C     0.22482   0.20100   0.04476   0.00000  Uiso   1.00
C453   C     0.25254   0.20134   0.07779   0.00000  Uiso   1.00
C454   C     0.27689   0.16680   0.08511   0.00000  Uiso   1.00
C455   C     0.27366   0.13212   0.06019   0.00000  Uiso   1.00
H456   H     0.40434   0.74683   0.14470   0.00000  Uiso   1.00
H457   H     0.26935   0.76572   0.08166   0.00000  Uiso   1.00
H458   H     0.26582   0.78270   0.42948   0.00000  Uiso   1.00
H459   H     0.34782   0.75017   0.09463   0.00000  Uiso   1.00
H460   H     0.20551   0.93246   0.20446   0.00000  Uiso   1.00
H461   H     0.19369   0.95386   0.13320   0.00000  Uiso   1.00
H462   H     0.30213   0.88697   0.09608   0.00000  Uiso   1.00
H463   H     0.31254   0.86500   0.16675   0.00000  Uiso   1.00
H464   H     0.24353   0.86844   0.05155   0.00000  Uiso   1.00
H465   H     0.23793   0.99514   0.88981   0.00000  Uiso   1.00
H466   H     0.23192   0.92847   0.91645   0.00000  Uiso   1.00
H467   H     0.19840   0.16604   0.99588   0.00000  Uiso   1.00
H468   H     0.20484   0.22685   0.03889   0.00000  Uiso   1.00
H469   H     0.29843   0.16673   0.11043   0.00000  Uiso   1.00
H470   H     0.29404   0.10649   0.06593   0.00000  Uiso   1.00
C471   C     0.86489   0.75545   0.30190   0.00000  Uiso   1.00
C472   C     0.82375   0.75601   0.28870   0.00000  Uiso   1.00
C473   C     0.87297   0.75379   0.34432   0.00000  Uiso   1.00
N474   N     0.76533   0.62104   0.26999   0.00000  Uiso   1.00
C475   C     0.76534   0.75024   0.38947   0.00000  Uiso   1.00
C476   C     0.79173   0.75553   0.31750   0.00000  Uiso   1.00
N477   N     0.76559   0.89326   0.25427   0.00000  Uiso   1.00
C478   C     0.75664   0.72774   0.10070   0.00000  Uiso   1.00
C479   C     0.84074   0.75193   0.37296   0.00000  Uiso   1.00
O480   O     0.81374   0.75689   0.25077   0.00000  Uiso   1.00
C481   C     0.79974   0.75328   0.35985   0.00000  Uiso   1.00
O482   O     0.75640   0.69633   0.24475   0.00000  Uiso   1.00
C483   C     0.76094   0.60161   0.30909   0.00000  Uiso   1.00
C484   C     0.72754   0.57610   0.31882   0.00000  Uiso   1.00
C485   C     0.72086   0.56391   0.35961   0.00000  Uiso   1.00
C486   C     0.74767   0.57678   0.39110   0.00000  Uiso   1.00
C487   C     0.78095   0.60229   0.38063   0.00000  Uiso   1.00
C488   C     0.78741   0.61438   0.34022   0.00000  Uiso   1.00
C489   C     0.74060   0.56761   0.43298   0.00000  Uiso   1.00
C490   C     0.74097   0.60064   0.46063   0.00000  Uiso   1.00
C491   C     0.74048   0.59517   0.50326   0.00000  Uiso   1.00
C492   C     0.73826   0.55452   0.51918   0.00000  Uiso   1.00
C493   C     0.73734   0.52043   0.49194   0.00000  Uiso   1.00
C494   C     0.73761   0.52697   0.44871   0.00000  Uiso   1.00
C495   C     0.73692   0.50748   0.57724   0.00000  Uiso   1.00
C496   C     0.73531   0.54697   0.56156   0.00000  Uiso   1.00
C497   C     0.74465   0.36940   0.47183   0.00000  Uiso   1.00
C498   C     0.72114   0.33394   0.47991   0.00000  Uiso   1.00
C499   C     0.72482   0.29900   0.45524   0.00000  Uiso   1.00
C500   C     0.75254   0.29866   0.42221   0.00000  Uiso   1.00
C501   C     0.77689   0.33320   0.41489   0.00000  Uiso   1.00
C502   C     0.77366   0.36788   0.43981   0.00000  Uiso   1.00
H503   H     0.90434   0.75317   0.35530   0.00000  Uiso   1.00
H504   H     0.76935   0.73428   0.41834   0.00000  Uiso   1.00
H505   H     0.76582   0.71730   0.07052   0.00000  Uiso   1.00
H506   H     0.84782   0.74983   0.40537   0.00000  Uiso   1.00
H507   H     0.70551   0.56754   0.29554   0.00000  Uiso   1.00
H508   H     0.69369   0.54614   0.36680   0.00000  Uiso   1.00
H509   H     0.80213   0.61303   0.40392   0.00000  Uiso   1.00
H510   H     0.81254   0.63500   0.33325   0.00000  Uiso   1.00
H511   H     0.74353   0.63156   0.44845   0.00000  Uiso   1.00
H512   H     0.73793   0.50486   0.61019   0.00000  Uiso   1.00
H513   H     0.73192   0.57153   0.58355   0.00000  Uiso   1.00
H514   H     0.69840   0.33396   0.50412   0.00000  Uiso   1.00
H515   H     0.70484   0.27315   0.46111   0.00000  Uiso   1.00
H516   H     0.79843   0.33327   0.38957   0.00000  Uiso   1.00
H517   H     0.79404   0.39351   0.43407   0.00000  Uiso   1.00
C518   C     0.36489   0.25545   0.80190   0.00000  Uiso   1.00
C519   C     0.32375   0.25601   0.78870   0.00000  Uiso   1.00
C520   C     0.37297   0.25379   0.84432   0.00000  Uiso   1.00
N521   N     0.26533   0.12104   0.76999   0.00000  Uiso   1.00
C522   C     0.26534   0.25024   0.88947   0.00000  Uiso   1.00
C523   C     0.29173   0.25553   0.81750   0.00000  Uiso   1.00
N524   N     0.26559   0.39326   0.75427   0.00000  Uiso   1.00
C525   C     0.25664   0.22774   0.60070   0.00000  Uiso   1.00
C526   C     0.34074   0.25193   0.87296   0.00000  Uiso   1.00
O527   O     0.31374   0.25689   0.75077   0.00000  Uiso   1.00
C528   C     0.29974   0.25328   0.85985   0.00000  Uiso   1.00
O529   O     0.25640   0.19633   0.74475   0.00000  Uiso   1.00
C530   C     0.26094   0.10161   0.80909   0.00000  Uiso   1.00
C531   C     0.22754   0.07610   0.81882   0.00000  Uiso   1.00
C532   C     0.22086   0.06391   0.85961   0.00000  Uiso   1.00
C533   C     0.24767   0.07678   0.89110   0.00000  Uiso   1.00
C534   C     0.28095   0.10229   0.88063   0.00000  Uiso   1.00
C535   C     0.28741   0.11438   0.84022   0.00000  Uiso   1.00
C536   C     0.24060   0.06761   0.93298   0.00000  Uiso   1.00
C537   C     0.24097   0.10064   0.96063   0.00000  Uiso   1.00
C538   C     0.24048   0.09517   0.00326   0.00000  Uiso   1.00
C539   C     0.23826   0.05452   0.01918   0.00000  Uiso   1.00
C540   C     0.23734   0.02043   0.99194   0.00000  Uiso   1.00
C541   C     0.23761   0.02697   0.94871   0.00000  Uiso   1.00
C542   C     0.23692   0.00748   0.07724   0.00000  Uiso   1.00
C543   C     0.23531   0.04697   0.06156   0.00000  Uiso   1.00
C544   C     0.24465   0.86940   0.97183   0.00000  Uiso   1.00
C545   C     0.22114   0.83394   0.97991   0.00000  Uiso   1.00
C546   C     0.22482   0.79900   0.95524   0.00000  Uiso   1.00
C547   C     0.25254   0.79866   0.92221   0.00000  Uiso   1.00
C548   C     0.27689   0.83320   0.91489   0.00000  Uiso   1.00
C549   C     0.27366   0.86788   0.93981   0.00000  Uiso   1.00
H550   H     0.40434   0.25317   0.85530   0.00000  Uiso   1.00
H551   H     0.26935   0.23428   0.91834   0.00000  Uiso   1.00
H552   H     0.26582   0.21730   0.57052   0.00000  Uiso   1.00
H553   H     0.34782   0.24983   0.90537   0.00000  Uiso   1.00
H554   H     0.20551   0.06754   0.79554   0.00000  Uiso   1.00
H555   H     0.19369   0.04614   0.86680   0.00000  Uiso   1.00
H556   H     0.30213   0.11303   0.90392   0.00000  Uiso   1.00
H557   H     0.31254   0.13500   0.83325   0.00000  Uiso   1.00
H558   H     0.24353   0.13156   0.94845   0.00000  Uiso   1.00
H559   H     0.23793   0.00486   0.11019   0.00000  Uiso   1.00
H560   H     0.23192   0.07153   0.08355   0.00000  Uiso   1.00
H561   H     0.19840   0.83396   0.00412   0.00000  Uiso   1.00
H562   H     0.20484   0.77315   0.96111   0.00000  Uiso   1.00
H563   H     0.29843   0.83327   0.88957   0.00000  Uiso   1.00
H564   H     0.29404   0.89351   0.93407   0.00000  Uiso   1.00
C565   C     0.13511   0.75545   0.69810   0.00000  Uiso   1.00
C566   C     0.17625   0.75601   0.71130   0.00000  Uiso   1.00
C567   C     0.12703   0.75379   0.65568   0.00000  Uiso   1.00
N568   N     0.23467   0.62104   0.73001   0.00000  Uiso   1.00
C569   C     0.23466   0.75024   0.61053   0.00000  Uiso   1.00
C570   C     0.20827   0.75553   0.68250   0.00000  Uiso   1.00
N571   N     0.23441   0.89326   0.74573   0.00000  Uiso   1.00
C572   C     0.24336   0.72774   0.89930   0.00000  Uiso   1.00
C573   C     0.15926   0.75193   0.62704   0.00000  Uiso   1.00
O574   O     0.18626   0.75689   0.74923   0.00000  Uiso   1.00
C575   C     0.20026   0.75328   0.64015   0.00000  Uiso   1.00
O576   O     0.24360   0.69633   0.75525   0.00000  Uiso   1.00
C577   C     0.23906   0.60161   0.69091   0.00000  Uiso   1.00
C578   C     0.27246   0.57610   0.68118   0.00000  Uiso   1.00
C579   C     0.27914   0.56391   0.64039   0.00000  Uiso   1.00
C580   C     0.25233   0.57678   0.60890   0.00000  Uiso   1.00
C581   C     0.21905   0.60229   0.61937   0.00000  Uiso   1.00
C582   C     0.21259   0.61438   0.65978   0.00000  Uiso   1.00
C583   C     0.25940   0.56761   0.56702   0.00000  Uiso   1.00
C584   C     0.25903   0.60064   0.53937   0.00000  Uiso   1.00
C585   C     0.25952   0.59517   0.49674   0.00000  Uiso   1.00
C586   C     0.26174   0.55452   0.48082   0.00000  Uiso   1.00
C587   C     0.26266   0.52043   0.50806   0.00000  Uiso   1.00
C588   C     0.26239   0.52697   0.55129   0.00000  Uiso   1.00
C589   C     0.26308   0.50748   0.42276   0.00000  Uiso   1.00
C590   C     0.26469   0.54697   0.43844   0.00000  Uiso   1.00
C591   C     0.25535   0.36940   0.52817   0.00000  Uiso   1.00
C592   C     0.27886   0.33394   0.52009   0.00000  Uiso   1.00
C593   C     0.27518   0.29900   0.54476   0.00000  Uiso   1.00
C594   C     0.24746   0.29866   0.57779   0.00000  Uiso   1.00
C595   C     0.22311   0.33320   0.58511   0.00000  Uiso   1.00
C596   C     0.22634   0.36788   0.56019   0.00000  Uiso   1.00
H597   H     0.09566   0.75317   0.64470   0.00000  Uiso   1.00
H598   H     0.23065   0.73428   0.58166   0.00000  Uiso   1.00
H599   H     0.23418   0.71730   0.92948   0.00000  Uiso   1.00
H600   H     0.15218   0.74983   0.59463   0.00000  Uiso   1.00
H601   H     0.29449   0.56754   0.70446   0.00000  Uiso   1.00
H602   H     0.30631   0.54614   0.63320   0.00000  Uiso   1.00
H603   H     0.19787   0.61303   0.59608   0.00000  Uiso   1.00
H604   H     0.18746   0.63500   0.66675   0.00000  Uiso   1.00
H605   H     0.25647   0.63156   0.55155   0.00000  Uiso   1.00
H606   H     0.26207   0.50486   0.38981   0.00000  Uiso   1.00
H607   H     0.26808   0.57153   0.41645   0.00000  Uiso   1.00
H608   H     0.30160   0.33396   0.49588   0.00000  Uiso   1.00
H609   H     0.29516   0.27315   0.53889   0.00000  Uiso   1.00
H610   H     0.20157   0.33327   0.61043   0.00000  Uiso   1.00
H611   H     0.20596   0.39351   0.56593   0.00000  Uiso   1.00
C612   C     0.63511   0.25545   0.19810   0.00000  Uiso   1.00
C613   C     0.67625   0.25601   0.21130   0.00000  Uiso   1.00
C614   C     0.62703   0.25379   0.15568   0.00000  Uiso   1.00
N615   N     0.73467   0.12104   0.23001   0.00000  Uiso   1.00
C616   C     0.73466   0.25024   0.11053   0.00000  Uiso   1.00
C617   C     0.70827   0.25553   0.18250   0.00000  Uiso   1.00
N618   N     0.73441   0.39326   0.24573   0.00000  Uiso   1.00
C619   C     0.74336   0.22774   0.39930   0.00000  Uiso   1.00
C620   C     0.65926   0.25193   0.12704   0.00000  Uiso   1.00
O621   O     0.68626   0.25689   0.24923   0.00000  Uiso   1.00
C622   C     0.70026   0.25328   0.14015   0.00000  Uiso   1.00
O623   O     0.74360   0.19633   0.25525   0.00000  Uiso   1.00
C624   C     0.73906   0.10161   0.19091   0.00000  Uiso   1.00
C625   C     0.77246   0.07610   0.18118   0.00000  Uiso   1.00
C626   C     0.77914   0.06391   0.14039   0.00000  Uiso   1.00
C627   C     0.75233   0.07678   0.10890   0.00000  Uiso   1.00
C628   C     0.71905   0.10229   0.11937   0.00000  Uiso   1.00
C629   C     0.71259   0.11438   0.15978   0.00000  Uiso   1.00
C630   C     0.75940   0.06761   0.06702   0.00000  Uiso   1.00
C631   C     0.75903   0.10064   0.03937   0.00000  Uiso   1.00
C632   C     0.75952   0.09517   0.99674   0.00000  Uiso   1.00
C633   C     0.76174   0.05452   0.98082   0.00000  Uiso   1.00
C634   C     0.76266   0.02043   0.00806   0.00000  Uiso   1.00
C635   C     0.76239   0.02697   0.05129   0.00000  Uiso   1.00
C636   C     0.76308   0.00748   0.92276   0.00000  Uiso   1.00
C637   C     0.76469   0.04697   0.93844   0.00000  Uiso   1.00
C638   C     0.75535   0.86940   0.02817   0.00000  Uiso   1.00
C639   C     0.77886   0.83394   0.02009   0.00000  Uiso   1.00
C640   C     0.77518   0.79900   0.04476   0.00000  Uiso   1.00
C641   C     0.74746   0.79866   0.07779   0.00000  Uiso   1.00
C642   C     0.72311   0.83320   0.08511   0.00000  Uiso   1.00
C643   C     0.72634   0.86788   0.06019   0.00000  Uiso   1.00
H644   H     0.59566   0.25317   0.14470   0.00000  Uiso   1.00
H645   H     0.73065   0.23428   0.08166   0.00000  Uiso   1.00
H646   H     0.73418   0.21730   0.42948   0.00000  Uiso   1.00
H647   H     0.65218   0.24983   0.09463   0.00000  Uiso   1.00
H648   H     0.79449   0.06754   0.20446   0.00000  Uiso   1.00
H649   H     0.80631   0.04614   0.13320   0.00000  Uiso   1.00
H650   H     0.69787   0.11303   0.09608   0.00000  Uiso   1.00
H651   H     0.68746   0.13500   0.16675   0.00000  Uiso   1.00
H652   H     0.75647   0.13156   0.05155   0.00000  Uiso   1.00
H653   H     0.76207   0.00486   0.88981   0.00000  Uiso   1.00
H654   H     0.76808   0.07153   0.91645   0.00000  Uiso   1.00
H655   H     0.80160   0.83396   0.99588   0.00000  Uiso   1.00
H656   H     0.79516   0.77315   0.03889   0.00000  Uiso   1.00
H657   H     0.70157   0.83327   0.11043   0.00000  Uiso   1.00
H658   H     0.70596   0.89351   0.06593   0.00000  Uiso   1.00
C659   C     0.13511   0.24455   0.30190   0.00000  Uiso   1.00
C660   C     0.17625   0.24399   0.28870   0.00000  Uiso   1.00
C661   C     0.12703   0.24621   0.34432   0.00000  Uiso   1.00
N662   N     0.23467   0.37896   0.26999   0.00000  Uiso   1.00
C663   C     0.23466   0.24976   0.38947   0.00000  Uiso   1.00
C664   C     0.20827   0.24447   0.31750   0.00000  Uiso   1.00
N665   N     0.23441   0.10674   0.25427   0.00000  Uiso   1.00
C666   C     0.24336   0.27226   0.10070   0.00000  Uiso   1.00
C667   C     0.15926   0.24807   0.37296   0.00000  Uiso   1.00
O668   O     0.18626   0.24311   0.25077   0.00000  Uiso   1.00
C669   C     0.20026   0.24672   0.35985   0.00000  Uiso   1.00
O670   O     0.24360   0.30367   0.24475   0.00000  Uiso   1.00
C671   C     0.23906   0.39839   0.30909   0.00000  Uiso   1.00
C672   C     0.27246   0.42390   0.31882   0.00000  Uiso   1.00
C673   C     0.27914   0.43609   0.35961   0.00000  Uiso   1.00
C674   C     0.25233   0.42322   0.39110   0.00000  Uiso   1.00
C675   C     0.21905   0.39771   0.38063   0.00000  Uiso   1.00
C676   C     0.21259   0.38562   0.34022   0.00000  Uiso   1.00
C677   C     0.25940   0.43239   0.43298   0.00000  Uiso   1.00
C678   C     0.25903   0.39936   0.46063   0.00000  Uiso   1.00
C679   C     0.25952   0.40483   0.50326   0.00000  Uiso   1.00
C680   C     0.26174   0.44548   0.51918   0.00000  Uiso   1.00
C681   C     0.26266   0.47957   0.49194   0.00000  Uiso   1.00
C682   C     0.26239   0.47303   0.44871   0.00000  Uiso   1.00
C683   C     0.26308   0.49252   0.57724   0.00000  Uiso   1.00
C684   C     0.26469   0.45303   0.56156   0.00000  Uiso   1.00
C685   C     0.25535   0.63060   0.47183   0.00000  Uiso   1.00
C686   C     0.27886   0.66606   0.47991   0.00000  Uiso   1.00
C687   C     0.27518   0.70100   0.45524   0.00000  Uiso   1.00
C688   C     0.24746   0.70134   0.42221   0.00000  Uiso   1.00
C689   C     0.22311   0.66680   0.41489   0.00000  Uiso   1.00
C690   C     0.22634   0.63212   0.43981   0.00000  Uiso   1.00
H691   H     0.09566   0.24683   0.35530   0.00000  Uiso   1.00
H692   H     0.23065   0.26572   0.41834   0.00000  Uiso   1.00
H693   H     0.23418   0.28270   0.07052   0.00000  Uiso   1.00
H694   H     0.15218   0.25017   0.40537   0.00000  Uiso   1.00
H695   H     0.29449   0.43246   0.29554   0.00000  Uiso   1.00
H696   H     0.30631   0.45386   0.36680   0.00000  Uiso   1.00
H697   H     0.19787   0.38697   0.40392   0.00000  Uiso   1.00
H698   H     0.18746   0.36500   0.33325   0.00000  Uiso   1.00
H699   H     0.25647   0.36844   0.44845   0.00000  Uiso   1.00
H700   H     0.26207   0.49514   0.61019   0.00000  Uiso   1.00
H701   H     0.26808   0.42847   0.58355   0.00000  Uiso   1.00
H702   H     0.30160   0.66604   0.50412   0.00000  Uiso   1.00
H703   H     0.29516   0.72685   0.46111   0.00000  Uiso   1.00
H704   H     0.20157   0.66673   0.38957   0.00000  Uiso   1.00
H705   H     0.20596   0.60649   0.43407   0.00000  Uiso   1.00
C706   C     0.63511   0.74455   0.80190   0.00000  Uiso   1.00
C707   C     0.67625   0.74399   0.78870   0.00000  Uiso   1.00
C708   C     0.62703   0.74621   0.84432   0.00000  Uiso   1.00
N709   N     0.73467   0.87896   0.76999   0.00000  Uiso   1.00
C710   C     0.73466   0.74976   0.88947   0.00000  Uiso   1.00
C711   C     0.70827   0.74447   0.81750   0.00000  Uiso   1.00
N712   N     0.73441   0.60674   0.75427   0.00000  Uiso   1.00
C713   C     0.74336   0.77226   0.60070   0.00000  Uiso   1.00
C714   C     0.65926   0.74807   0.87296   0.00000  Uiso   1.00
O715   O     0.68626   0.74311   0.75077   0.00000  Uiso   1.00
C716   C     0.70026   0.74672   0.85985   0.00000  Uiso   1.00
O717   O     0.74360   0.80367   0.74475   0.00000  Uiso   1.00
C718   C     0.73906   0.89839   0.80909   0.00000  Uiso   1.00
C719   C     0.77246   0.92390   0.81882   0.00000  Uiso   1.00
C720   C     0.77914   0.93609   0.85961   0.00000  Uiso   1.00
C721   C     0.75233   0.92322   0.89110   0.00000  Uiso   1.00
C722   C     0.71905   0.89771   0.88063   0.00000  Uiso   1.00
C723   C     0.71259   0.88562   0.84022   0.00000  Uiso   1.00
C724   C     0.75940   0.93239   0.93298   0.00000  Uiso   1.00
C725   C     0.75903   0.89936   0.96063   0.00000  Uiso   1.00
C726   C     0.75952   0.90483   0.00326   0.00000  Uiso   1.00
C727   C     0.76174   0.94548   0.01918   0.00000  Uiso   1.00
C728   C     0.76266   0.97957   0.99194   0.00000  Uiso   1.00
C729   C     0.76239   0.97303   0.94871   0.00000  Uiso   1.00
C730   C     0.76308   0.99252   0.07724   0.00000  Uiso   1.00
C731   C     0.76469   0.95303   0.06156   0.00000  Uiso   1.00
C732   C     0.75535   0.13060   0.97183   0.00000  Uiso   1.00
C733   C     0.77886   0.16606   0.97991   0.00000  Uiso   1.00
C734   C     0.77518   0.20100   0.95524   0.00000  Uiso   1.00
C735   C     0.74746   0.20134   0.92221   0.00000  Uiso   1.00
C736   C     0.72311   0.16680   0.91489   0.00000  Uiso   1.00
C737   C     0.72634   0.13212   0.93981   0.00000  Uiso   1.00
H738   H     0.59566   0.74683   0.85530   0.00000  Uiso   1.00
H739   H     0.73065   0.76572   0.91834   0.00000  Uiso   1.00
H740   H     0.73418   0.78270   0.57052   0.00000  Uiso   1.00
H741   H     0.65218   0.75017   0.90537   0.00000  Uiso   1.00
H742   H     0.79449   0.93246   0.79554   0.00000  Uiso   1.00
H743   H     0.80631   0.95386   0.86680   0.00000  Uiso   1.00
H744   H     0.69787   0.88697   0.90392   0.00000  Uiso   1.00
H745   H     0.68746   0.86500   0.83325   0.00000  Uiso   1.00
H746   H     0.75647   0.86844   0.94845   0.00000  Uiso   1.00
H747   H     0.76207   0.99514   0.11019   0.00000  Uiso   1.00
H748   H     0.76808   0.92847   0.08355   0.00000  Uiso   1.00
H749   H     0.80160   0.16604   0.00412   0.00000  Uiso   1.00
H750   H     0.79516   0.22685   0.96111   0.00000  Uiso   1.00
H751   H     0.70157   0.16673   0.88957   0.00000  Uiso   1.00
H752   H     0.70596   0.10649   0.93407   0.00000  Uiso   1.00
C753   C     0.69810   0.86489   0.24455   0.00000  Uiso   1.00
C754   C     0.71130   0.82375   0.24399   0.00000  Uiso   1.00
C755   C     0.65568   0.87297   0.24621   0.00000  Uiso   1.00
N756   N     0.73001   0.76533   0.37896   0.00000  Uiso   1.00
C757   C     0.61053   0.76534   0.24976   0.00000  Uiso   1.00
C758   C     0.68250   0.79173   0.24447   0.00000  Uiso   1.00
N759   N     0.74573   0.76559   0.10674   0.00000  Uiso   1.00
C760   C     0.89930   0.75664   0.27226   0.00000  Uiso   1.00
C761   C     0.62704   0.84074   0.24807   0.00000  Uiso   1.00
O762   O     0.74923   0.81374   0.24311   0.00000  Uiso   1.00
C763   C     0.64015   0.79974   0.24672   0.00000  Uiso   1.00
O764   O     0.75525   0.75640   0.30367   0.00000  Uiso   1.00
C765   C     0.69091   0.76094   0.39839   0.00000  Uiso   1.00
C766   C     0.68118   0.72754   0.42390   0.00000  Uiso   1.00
C767   C     0.64039   0.72086   0.43609   0.00000  Uiso   1.00
C768   C     0.60890   0.74767   0.42322   0.00000  Uiso   1.00
C769   C     0.61937   0.78095   0.39771   0.00000  Uiso   1.00
C770   C     0.65978   0.78741   0.38562   0.00000  Uiso   1.00
C771   C     0.56702   0.74060   0.43239   0.00000  Uiso   1.00
C772   C     0.53937   0.74097   0.39936   0.00000  Uiso   1.00
C773   C     0.49674   0.74048   0.40483   0.00000  Uiso   1.00
C774   C     0.48082   0.73826   0.44548   0.00000  Uiso   1.00
C775   C     0.50806   0.73734   0.47957   0.00000  Uiso   1.00
C776   C     0.55129   0.73761   0.47303   0.00000  Uiso   1.00
C777   C     0.42276   0.73692   0.49252   0.00000  Uiso   1.00
C778   C     0.43844   0.73531   0.45303   0.00000  Uiso   1.00
C779   C     0.52817   0.74465   0.63060   0.00000  Uiso   1.00
C780   C     0.52009   0.72114   0.66606   0.00000  Uiso   1.00
C781   C     0.54476   0.72482   0.70100   0.00000  Uiso   1.00
C782   C     0.57779   0.75254   0.70134   0.00000  Uiso   1.00
C783   C     0.58511   0.77689   0.66680   0.00000  Uiso   1.00
C784   C     0.56019   0.77366   0.63212   0.00000  Uiso   1.00
H785   H     0.64470   0.90434   0.24683   0.00000  Uiso   1.00
H786   H     0.58166   0.76935   0.26572   0.00000  Uiso   1.00
H787   H     0.92948   0.76582   0.28270   0.00000  Uiso   1.00
H788   H     0.59463   0.84782   0.25017   0.00000  Uiso   1.00
H789   H     0.70446   0.70551   0.43246   0.00000  Uiso   1.00
H790   H     0.63320   0.69369   0.45386   0.00000  Uiso   1.00
H791   H     0.59608   0.80213   0.38697   0.00000  Uiso   1.00
H792   H     0.66675   0.81254   0.36500   0.00000  Uiso   1.00
H793   H     0.55155   0.74353   0.36844   0.00000  Uiso   1.00
H794   H     0.38981   0.73793   0.49514   0.00000  Uiso   1.00
H795   H     0.41645   0.73192   0.42847   0.00000  Uiso   1.00
H796   H     0.49588   0.69840   0.66604   0.00000  Uiso   1.00
H797   H     0.53889   0.70484   0.72685   0.00000  Uiso   1.00
H798   H     0.61043   0.79843   0.66673   0.00000  Uiso   1.00
H799   H     0.56593   0.79404   0.60649   0.00000  Uiso   1.00
C800   C     0.19810   0.36489   0.74455   0.00000  Uiso   1.00
C801   C     0.21130   0.32375   0.74399   0.00000  Uiso   1.00
C802   C     0.15568   0.37297   0.74621   0.00000  Uiso   1.00
N803   N     0.23001   0.26533   0.87896   0.00000  Uiso   1.00
C804   C     0.11053   0.26534   0.74976   0.00000  Uiso   1.00
C805   C     0.18250   0.29173   0.74447   0.00000  Uiso   1.00
N806   N     0.24573   0.26559   0.60674   0.00000  Uiso   1.00
C807   C     0.39930   0.25664   0.77226   0.00000  Uiso   1.00
C808   C     0.12704   0.34074   0.74807   0.00000  Uiso   1.00
O809   O     0.24923   0.31374   0.74311   0.00000  Uiso   1.00
C810   C     0.14015   0.29974   0.74672   0.00000  Uiso   1.00
O811   O     0.25525   0.25640   0.80367   0.00000  Uiso   1.00
C812   C     0.19091   0.26094   0.89839   0.00000  Uiso   1.00
C813   C     0.18118   0.22754   0.92390   0.00000  Uiso   1.00
C814   C     0.14039   0.22086   0.93609   0.00000  Uiso   1.00
C815   C     0.10890   0.24767   0.92322   0.00000  Uiso   1.00
C816   C     0.11937   0.28095   0.89771   0.00000  Uiso   1.00
C817   C     0.15978   0.28741   0.88562   0.00000  Uiso   1.00
C818   C     0.06702   0.24060   0.93239   0.00000  Uiso   1.00
C819   C     0.03937   0.24097   0.89936   0.00000  Uiso   1.00
C820   C     0.99674   0.24048   0.90483   0.00000  Uiso   1.00
C821   C     0.98082   0.23826   0.94548   0.00000  Uiso   1.00
C822   C     0.00806   0.23734   0.97957   0.00000  Uiso   1.00
C823   C     0.05129   0.23761   0.97303   0.00000  Uiso   1.00
C824   C     0.92276   0.23692   0.99252   0.00000  Uiso   1.00
C825   C     0.93844   0.23531   0.95303   0.00000  Uiso   1.00
C826   C     0.02817   0.24465   0.13060   0.00000  Uiso   1.00
C827   C     0.02009   0.22114   0.16606   0.00000  Uiso   1.00
C828   C     0.04476   0.22482   0.20100   0.00000  Uiso   1.00
C829   C     0.07779   0.25254   0.20134   0.00000  Uiso   1.00
C830   C     0.08511   0.27689   0.16680   0.00000  Uiso   1.00
C831   C     0.06019   0.27366   0.13212   0.00000  Uiso   1.00
H832   H     0.14470   0.40434   0.74683   0.00000  Uiso   1.00
H833   H     0.08166   0.26935   0.76572   0.00000  Uiso   1.00
H834   H     0.42948   0.26582   0.78270   0.00000  Uiso   1.00
H835   H     0.09463   0.34782   0.75017   0.00000  Uiso   1.00
H836   H     0.20446   0.20551   0.93246   0.00000  Uiso   1.00
H837   H     0.13320   0.19369   0.95386   0.00000  Uiso   1.00
H838   H     0.09608   0.30213   0.88697   0.00000  Uiso   1.00
H839   H     0.16675   0.31254   0.86500   0.00000  Uiso   1.00
H840   H     0.05155   0.24353   0.86844   0.00000  Uiso   1.00
H841   H     0.88981   0.23793   0.99514   0.00000  Uiso   1.00
H842   H     0.91645   0.23192   0.92847   0.00000  Uiso   1.00
H843   H     0.99588   0.19840   0.16604   0.00000  Uiso   1.00
H844   H     0.03889   0.20484   0.22685   0.00000  Uiso   1.00
H845   H     0.11043   0.29843   0.16673   0.00000  Uiso   1.00
H846   H     0.06593   0.29404   0.10649   0.00000  Uiso   1.00
C847   C     0.30190   0.86489   0.75545   0.00000  Uiso   1.00
C848   C     0.28870   0.82375   0.75601   0.00000  Uiso   1.00
C849   C     0.34432   0.87297   0.75379   0.00000  Uiso   1.00
N850   N     0.26999   0.76533   0.62104   0.00000  Uiso   1.00
C851   C     0.38947   0.76534   0.75024   0.00000  Uiso   1.00
C852   C     0.31750   0.79173   0.75553   0.00000  Uiso   1.00
N853   N     0.25427   0.76559   0.89326   0.00000  Uiso   1.00
C854   C     0.10070   0.75664   0.72774   0.00000  Uiso   1.00
C855   C     0.37296   0.84074   0.75193   0.00000  Uiso   1.00
O856   O     0.25077   0.81374   0.75689   0.00000  Uiso   1.00
C857   C     0.35985   0.79974   0.75328   0.00000  Uiso   1.00
O858   O     0.24475   0.75640   0.69633   0.00000  Uiso   1.00
C859   C     0.30909   0.76094   0.60161   0.00000  Uiso   1.00
C860   C     0.31882   0.72754   0.57610   0.00000  Uiso   1.00
C861   C     0.35961   0.72086   0.56391   0.00000  Uiso   1.00
C862   C     0.39110   0.74767   0.57678   0.00000  Uiso   1.00
C863   C     0.38063   0.78095   0.60229   0.00000  Uiso   1.00
C864   C     0.34022   0.78741   0.61438   0.00000  Uiso   1.00
C865   C     0.43298   0.74060   0.56761   0.00000  Uiso   1.00
C866   C     0.46063   0.74097   0.60064   0.00000  Uiso   1.00
C867   C     0.50326   0.74048   0.59517   0.00000  Uiso   1.00
C868   C     0.51918   0.73826   0.55452   0.00000  Uiso   1.00
C869   C     0.49194   0.73734   0.52043   0.00000  Uiso   1.00
C870   C     0.44871   0.73761   0.52697   0.00000  Uiso   1.00
C871   C     0.57724   0.73692   0.50748   0.00000  Uiso   1.00
C872   C     0.56156   0.73531   0.54697   0.00000  Uiso   1.00
C873   C     0.47183   0.74465   0.36940   0.00000  Uiso   1.00
C874   C     0.47991   0.72114   0.33394   0.00000  Uiso   1.00
C875   C     0.45524   0.72482   0.29900   0.00000  Uiso   1.00
C876   C     0.42221   0.75254   0.29866   0.00000  Uiso   1.00
C877   C     0.41489   0.77689   0.33320   0.00000  Uiso   1.00
C878   C     0.43981   0.77366   0.36788   0.00000  Uiso   1.00
H879   H     0.35530   0.90434   0.75317   0.00000  Uiso   1.00
H880   H     0.41834   0.76935   0.73428   0.00000  Uiso   1.00
H881   H     0.07052   0.76582   0.71730   0.00000  Uiso   1.00
H882   H     0.40537   0.84782   0.74983   0.00000  Uiso   1.00
H883   H     0.29554   0.70551   0.56754   0.00000  Uiso   1.00
H884   H     0.36680   0.69369   0.54614   0.00000  Uiso   1.00
H885   H     0.40392   0.80213   0.61303   0.00000  Uiso   1.00
H886   H     0.33325   0.81254   0.63500   0.00000  Uiso   1.00
H887   H     0.44845   0.74353   0.63156   0.00000  Uiso   1.00
H888   H     0.61019   0.73793   0.50486   0.00000  Uiso   1.00
H889   H     0.58355   0.73192   0.57153   0.00000  Uiso   1.00
H890   H     0.50412   0.69840   0.33396   0.00000  Uiso   1.00
H891   H     0.46111   0.70484   0.27315   0.00000  Uiso   1.00
H892   H     0.38957   0.79843   0.33327   0.00000  Uiso   1.00
H893   H     0.43407   0.79404   0.39351   0.00000  Uiso   1.00
C894   C     0.80190   0.36489   0.25545   0.00000  Uiso   1.00
C895   C     0.78870   0.32375   0.25601   0.00000  Uiso   1.00
C896   C     0.84432   0.37297   0.25379   0.00000  Uiso   1.00
N897   N     0.76999   0.26533   0.12104   0.00000  Uiso   1.00
C898   C     0.88947   0.26534   0.25024   0.00000  Uiso   1.00
C899   C     0.81750   0.29173   0.25553   0.00000  Uiso   1.00
N900   N     0.75427   0.26559   0.39326   0.00000  Uiso   1.00
C901   C     0.60070   0.25664   0.22774   0.00000  Uiso   1.00
C902   C     0.87296   0.34074   0.25193   0.00000  Uiso   1.00
O903   O     0.75077   0.31374   0.25689   0.00000  Uiso   1.00
C904   C     0.85985   0.29974   0.25328   0.00000  Uiso   1.00
O905   O     0.74475   0.25640   0.19633   0.00000  Uiso   1.00
C906   C     0.80909   0.26094   0.10161   0.00000  Uiso   1.00
C907   C     0.81882   0.22754   0.07610   0.00000  Uiso   1.00
C908   C     0.85961   0.22086   0.06391   0.00000  Uiso   1.00
C909   C     0.89110   0.24767   0.07678   0.00000  Uiso   1.00
C910   C     0.88063   0.28095   0.10229   0.00000  Uiso   1.00
C911   C     0.84022   0.28741   0.11438   0.00000  Uiso   1.00
C912   C     0.93298   0.24060   0.06761   0.00000  Uiso   1.00
C913   C     0.96063   0.24097   0.10064   0.00000  Uiso   1.00
C914   C     0.00326   0.24048   0.09517   0.00000  Uiso   1.00
C915   C     0.01918   0.23826   0.05452   0.00000  Uiso   1.00
C916   C     0.99194   0.23734   0.02043   0.00000  Uiso   1.00
C917   C     0.94871   0.23761   0.02697   0.00000  Uiso   1.00
C918   C     0.07724   0.23692   0.00748   0.00000  Uiso   1.00
C919   C     0.06156   0.23531   0.04697   0.00000  Uiso   1.00
C920   C     0.97183   0.24465   0.86940   0.00000  Uiso   1.00
C921   C     0.97991   0.22114   0.83394   0.00000  Uiso   1.00
C922   C     0.95524   0.22482   0.79900   0.00000  Uiso   1.00
C923   C     0.92221   0.25254   0.79866   0.00000  Uiso   1.00
C924   C     0.91489   0.27689   0.83320   0.00000  Uiso   1.00
C925   C     0.93981   0.27366   0.86788   0.00000  Uiso   1.00
H926   H     0.85530   0.40434   0.25317   0.00000  Uiso   1.00
H927   H     0.91834   0.26935   0.23428   0.00000  Uiso   1.00
H928   H     0.57052   0.26582   0.21730   0.00000  Uiso   1.00
H929   H     0.90537   0.34782   0.24983   0.00000  Uiso   1.00
H930   H     0.79554   0.20551   0.06754   0.00000  Uiso   1.00
H931   H     0.86680   0.19369   0.04614   0.00000  Uiso   1.00
H932   H     0.90392   0.30213   0.11303   0.00000  Uiso   1.00
H933   H     0.83325   0.31254   0.13500   0.00000  Uiso   1.00
H934   H     0.94845   0.24353   0.13156   0.00000  Uiso   1.00
H935   H     0.11019   0.23793   0.00486   0.00000  Uiso   1.00
H936   H     0.08355   0.23192   0.07153   0.00000  Uiso   1.00
H937   H     0.00412   0.19840   0.83396   0.00000  Uiso   1.00
H938   H     0.96111   0.20484   0.77315   0.00000  Uiso   1.00
H939   H     0.88957   0.29843   0.83327   0.00000  Uiso   1.00
H940   H     0.93407   0.29404   0.89351   0.00000  Uiso   1.00
C941   C     0.69810   0.13511   0.75545   0.00000  Uiso   1.00
C942   C     0.71130   0.17625   0.75601   0.00000  Uiso   1.00
C943   C     0.65568   0.12703   0.75379   0.00000  Uiso   1.00
N944   N     0.73001   0.23467   0.62104   0.00000  Uiso   1.00
C945   C     0.61053   0.23466   0.75024   0.00000  Uiso   1.00
C946   C     0.68250   0.20827   0.75553   0.00000  Uiso   1.00
N947   N     0.74573   0.23441   0.89326   0.00000  Uiso   1.00
C948   C     0.89930   0.24336   0.72774   0.00000  Uiso   1.00
C949   C     0.62704   0.15926   0.75193   0.00000  Uiso   1.00
O950   O     0.74923   0.18626   0.75689   0.00000  Uiso   1.00
C951   C     0.64015   0.20026   0.75328   0.00000  Uiso   1.00
O952   O     0.75525   0.24360   0.69633   0.00000  Uiso   1.00
C953   C     0.69091   0.23906   0.60161   0.00000  Uiso   1.00
C954   C     0.68118   0.27246   0.57610   0.00000  Uiso   1.00
C955   C     0.64039   0.27914   0.56391   0.00000  Uiso   1.00
C956   C     0.60890   0.25233   0.57678   0.00000  Uiso   1.00
C957   C     0.61937   0.21905   0.60229   0.00000  Uiso   1.00
C958   C     0.65978   0.21259   0.61438   0.00000  Uiso   1.00
C959   C     0.56702   0.25940   0.56761   0.00000  Uiso   1.00
C960   C     0.53937   0.25903   0.60064   0.00000  Uiso   1.00
C961   C     0.49674   0.25952   0.59517   0.00000  Uiso   1.00
C962   C     0.48082   0.26174   0.55452   0.00000  Uiso   1.00
C963   C     0.50806   0.26266   0.52043   0.00000  Uiso   1.00
C964   C     0.55129   0.26239   0.52697   0.00000  Uiso   1.00
C965   C     0.42276   0.26308   0.50748   0.00000  Uiso   1.00
C966   C     0.43844   0.26469   0.54697   0.00000  Uiso   1.00
C967   C     0.52817   0.25535   0.36940   0.00000  Uiso   1.00
C968   C     0.52009   0.27886   0.33394   0.00000  Uiso   1.00
C969   C     0.54476   0.27518   0.29900   0.00000  Uiso   1.00
C970   C     0.57779   0.24746   0.29866   0.00000  Uiso   1.00
C971   C     0.58511   0.22311   0.33320   0.00000  Uiso   1.00
C972   C     0.56019   0.22634   0.36788   0.00000  Uiso   1.00
H973   H     0.64470   0.09566   0.75317   0.00000  Uiso   1.00
H974   H     0.58166   0.23065   0.73428   0.00000  Uiso   1.00
H975   H     0.92948   0.23418   0.71730   0.00000  Uiso   1.00
H976   H     0.59463   0.15218   0.74983   0.00000  Uiso   1.00
H977   H     0.70446   0.29449   0.56754   0.00000  Uiso   1.00
H978   H     0.63320   0.30631   0.54614   0.00000  Uiso   1.00
H979   H     0.59608   0.19787   0.61303   0.00000  Uiso   1.00
H980   H     0.66675   0.18746   0.63500   0.00000  Uiso   1.00
H981   H     0.55155   0.25647   0.63156   0.00000  Uiso   1.00
H982   H     0.38981   0.26207   0.50486   0.00000  Uiso   1.00
H983   H     0.41645   0.26808   0.57153   0.00000  Uiso   1.00
H984   H     0.49588   0.30160   0.33396   0.00000  Uiso   1.00
H985   H     0.53889   0.29516   0.27315   0.00000  Uiso   1.00
H986   H     0.61043   0.20157   0.33327   0.00000  Uiso   1.00
H987   H     0.56593   0.20596   0.39351   0.00000  Uiso   1.00
C988   C     0.19810   0.63511   0.25545   0.00000  Uiso   1.00
C989   C     0.21130   0.67625   0.25601   0.00000  Uiso   1.00
C990   C     0.15568   0.62703   0.25379   0.00000  Uiso   1.00
N991   N     0.23001   0.73467   0.12104   0.00000  Uiso   1.00
C992   C     0.11053   0.73466   0.25024   0.00000  Uiso   1.00
C993   C     0.18250   0.70827   0.25553   0.00000  Uiso   1.00
N994   N     0.24573   0.73441   0.39326   0.00000  Uiso   1.00
C995   C     0.39930   0.74336   0.22774   0.00000  Uiso   1.00
C996   C     0.12704   0.65926   0.25193   0.00000  Uiso   1.00
O997   O     0.24923   0.68626   0.25689   0.00000  Uiso   1.00
C998   C     0.14015   0.70026   0.25328   0.00000  Uiso   1.00
O999   O     0.25525   0.74360   0.19633   0.00000  Uiso   1.00
C1000  C     0.19091   0.73906   0.10161   0.00000  Uiso   1.00
C1001  C     0.18118   0.77246   0.07610   0.00000  Uiso   1.00
C1002  C     0.14039   0.77914   0.06391   0.00000  Uiso   1.00
C1003  C     0.10890   0.75233   0.07678   0.00000  Uiso   1.00
C1004  C     0.11937   0.71905   0.10229   0.00000  Uiso   1.00
C1005  C     0.15978   0.71259   0.11438   0.00000  Uiso   1.00
C1006  C     0.06702   0.75940   0.06761   0.00000  Uiso   1.00
C1007  C     0.03937   0.75903   0.10064   0.00000  Uiso   1.00
C1008  C     0.99674   0.75952   0.09517   0.00000  Uiso   1.00
C1009  C     0.98082   0.76174   0.05452   0.00000  Uiso   1.00
C1010  C     0.00806   0.76266   0.02043   0.00000  Uiso   1.00
C1011  C     0.05129   0.76239   0.02697   0.00000  Uiso   1.00
C1012  C     0.92276   0.76308   0.00748   0.00000  Uiso   1.00
C1013  C     0.93844   0.76469   0.04697   0.00000  Uiso   1.00
C1014  C     0.02817   0.75535   0.86940   0.00000  Uiso   1.00
C1015  C     0.02009   0.77886   0.83394   0.00000  Uiso   1.00
C1016  C     0.04476   0.77518   0.79900   0.00000  Uiso   1.00
C1017  C     0.07779   0.74746   0.79866   0.00000  Uiso   1.00
C1018  C     0.08511   0.72311   0.83320   0.00000  Uiso   1.00
C1019  C     0.06019   0.72634   0.86788   0.00000  Uiso   1.00
H1020  H     0.14470   0.59566   0.25317   0.00000  Uiso   1.00
H1021  H     0.08166   0.73065   0.23428   0.00000  Uiso   1.00
H1022  H     0.42948   0.73418   0.21730   0.00000  Uiso   1.00
H1023  H     0.09463   0.65218   0.24983   0.00000  Uiso   1.00
H1024  H     0.20446   0.79449   0.06754   0.00000  Uiso   1.00
H1025  H     0.13320   0.80631   0.04614   0.00000  Uiso   1.00
H1026  H     0.09608   0.69787   0.11303   0.00000  Uiso   1.00
H1027  H     0.16675   0.68746   0.13500   0.00000  Uiso   1.00
H1028  H     0.05155   0.75647   0.13156   0.00000  Uiso   1.00
H1029  H     0.88981   0.76207   0.00486   0.00000  Uiso   1.00
H1030  H     0.91645   0.76808   0.07153   0.00000  Uiso   1.00
H1031  H     0.99588   0.80160   0.83396   0.00000  Uiso   1.00
H1032  H     0.03889   0.79516   0.77315   0.00000  Uiso   1.00
H1033  H     0.11043   0.70157   0.83327   0.00000  Uiso   1.00
H1034  H     0.06593   0.70596   0.89351   0.00000  Uiso   1.00
C1035  C     0.30190   0.13511   0.24455   0.00000  Uiso   1.00
C1036  C     0.28870   0.17625   0.24399   0.00000  Uiso   1.00
C1037  C     0.34432   0.12703   0.24621   0.00000  Uiso   1.00
N1038  N     0.26999   0.23467   0.37896   0.00000  Uiso   1.00
C1039  C     0.38947   0.23466   0.24976   0.00000  Uiso   1.00
C1040  C     0.31750   0.20827   0.24447   0.00000  Uiso   1.00
N1041  N     0.25427   0.23441   0.10674   0.00000  Uiso   1.00
C1042  C     0.10070   0.24336   0.27226   0.00000  Uiso   1.00
C1043  C     0.37296   0.15926   0.24807   0.00000  Uiso   1.00
O1044  O     0.25077   0.18626   0.24311   0.00000  Uiso   1.00
C1045  C     0.35985   0.20026   0.24672   0.00000  Uiso   1.00
O1046  O     0.24475   0.24360   0.30367   0.00000  Uiso   1.00
C1047  C     0.30909   0.23906   0.39839   0.00000  Uiso   1.00
C1048  C     0.31882   0.27246   0.42390   0.00000  Uiso   1.00
C1049  C     0.35961   0.27914   0.43609   0.00000  Uiso   1.00
C1050  C     0.39110   0.25233   0.42322   0.00000  Uiso   1.00
C1051  C     0.38063   0.21905   0.39771   0.00000  Uiso   1.00
C1052  C     0.34022   0.21259   0.38562   0.00000  Uiso   1.00
C1053  C     0.43298   0.25940   0.43239   0.00000  Uiso   1.00
C1054  C     0.46063   0.25903   0.39936   0.00000  Uiso   1.00
C1055  C     0.50326   0.25952   0.40483   0.00000  Uiso   1.00
C1056  C     0.51918   0.26174   0.44548   0.00000  Uiso   1.00
C1057  C     0.49194   0.26266   0.47957   0.00000  Uiso   1.00
C1058  C     0.44871   0.26239   0.47303   0.00000  Uiso   1.00
C1059  C     0.57724   0.26308   0.49252   0.00000  Uiso   1.00
C1060  C     0.56156   0.26469   0.45303   0.00000  Uiso   1.00
C1061  C     0.47183   0.25535   0.63060   0.00000  Uiso   1.00
C1062  C     0.47991   0.27886   0.66606   0.00000  Uiso   1.00
C1063  C     0.45524   0.27518   0.70100   0.00000  Uiso   1.00
C1064  C     0.42221   0.24746   0.70134   0.00000  Uiso   1.00
C1065  C     0.41489   0.22311   0.66680   0.00000  Uiso   1.00
C1066  C     0.43981   0.22634   0.63212   0.00000  Uiso   1.00
H1067  H     0.35530   0.09566   0.24683   0.00000  Uiso   1.00
H1068  H     0.41834   0.23065   0.26572   0.00000  Uiso   1.00
H1069  H     0.07052   0.23418   0.28270   0.00000  Uiso   1.00
H1070  H     0.40537   0.15218   0.25017   0.00000  Uiso   1.00
H1071  H     0.29554   0.29449   0.43246   0.00000  Uiso   1.00
H1072  H     0.36680   0.30631   0.45386   0.00000  Uiso   1.00
H1073  H     0.40392   0.19787   0.38697   0.00000  Uiso   1.00
H1074  H     0.33325   0.18746   0.36500   0.00000  Uiso   1.00
H1075  H     0.44845   0.25647   0.36844   0.00000  Uiso   1.00
H1076  H     0.61019   0.26207   0.49514   0.00000  Uiso   1.00
H1077  H     0.58355   0.26808   0.42847   0.00000  Uiso   1.00
H1078  H     0.50412   0.30160   0.66604   0.00000  Uiso   1.00
H1079  H     0.46111   0.29516   0.72685   0.00000  Uiso   1.00
H1080  H     0.38957   0.20157   0.66673   0.00000  Uiso   1.00
H1081  H     0.43407   0.20596   0.60649   0.00000  Uiso   1.00
C1082  C     0.80190   0.63511   0.74455   0.00000  Uiso   1.00
C1083  C     0.78870   0.67625   0.74399   0.00000  Uiso   1.00
C1084  C     0.84432   0.62703   0.74621   0.00000  Uiso   1.00
N1085  N     0.76999   0.73467   0.87896   0.00000  Uiso   1.00
C1086  C     0.88947   0.73466   0.74976   0.00000  Uiso   1.00
C1087  C     0.81750   0.70827   0.74447   0.00000  Uiso   1.00
N1088  N     0.75427   0.73441   0.60674   0.00000  Uiso   1.00
C1089  C     0.60070   0.74336   0.77226   0.00000  Uiso   1.00
C1090  C     0.87296   0.65926   0.74807   0.00000  Uiso   1.00
O1091  O     0.75077   0.68626   0.74311   0.00000  Uiso   1.00
C1092  C     0.85985   0.70026   0.74672   0.00000  Uiso   1.00
O1093  O     0.74475   0.74360   0.80367   0.00000  Uiso   1.00
C1094  C     0.80909   0.73906   0.89839   0.00000  Uiso   1.00
C1095  C     0.81882   0.77246   0.92390   0.00000  Uiso   1.00
C1096  C     0.85961   0.77914   0.93609   0.00000  Uiso   1.00
C1097  C     0.89110   0.75233   0.92322   0.00000  Uiso   1.00
C1098  C     0.88063   0.71905   0.89771   0.00000  Uiso   1.00
C1099  C     0.84022   0.71259   0.88562   0.00000  Uiso   1.00
C1100  C     0.93298   0.75940   0.93239   0.00000  Uiso   1.00
C1101  C     0.96063   0.75903   0.89936   0.00000  Uiso   1.00
C1102  C     0.00326   0.75952   0.90483   0.00000  Uiso   1.00
C1103  C     0.01918   0.76174   0.94548   0.00000  Uiso   1.00
C1104  C     0.99194   0.76266   0.97957   0.00000  Uiso   1.00
C1105  C     0.94871   0.76239   0.97303   0.00000  Uiso   1.00
C1106  C     0.07724   0.76308   0.99252   0.00000  Uiso   1.00
C1107  C     0.06156   0.76469   0.95303   0.00000  Uiso   1.00
C1108  C     0.97183   0.75535   0.13060   0.00000  Uiso   1.00
C1109  C     0.97991   0.77886   0.16606   0.00000  Uiso   1.00
C1110  C     0.95524   0.77518   0.20100   0.00000  Uiso   1.00
C1111  C     0.92221   0.74746   0.20134   0.00000  Uiso   1.00
C1112  C     0.91489   0.72311   0.16680   0.00000  Uiso   1.00
C1113  C     0.93981   0.72634   0.13212   0.00000  Uiso   1.00
H1114  H     0.85530   0.59566   0.74683   0.00000  Uiso   1.00
H1115  H     0.91834   0.73065   0.76572   0.00000  Uiso   1.00
H1116  H     0.57052   0.73418   0.78270   0.00000  Uiso   1.00
H1117  H     0.90537   0.65218   0.75017   0.00000  Uiso   1.00
H1118  H     0.79554   0.79449   0.93246   0.00000  Uiso   1.00
H1119  H     0.86680   0.80631   0.95386   0.00000  Uiso   1.00
H1120  H     0.90392   0.69787   0.88697   0.00000  Uiso   1.00
H1121  H     0.83325   0.68746   0.86500   0.00000  Uiso   1.00
H1122  H     0.94845   0.75647   0.86844   0.00000  Uiso   1.00
H1123  H     0.11019   0.76207   0.99514   0.00000  Uiso   1.00
H1124  H     0.08355   0.76808   0.92847   0.00000  Uiso   1.00
H1125  H     0.00412   0.80160   0.16604   0.00000  Uiso   1.00
H1126  H     0.96111   0.79516   0.22685   0.00000  Uiso   1.00
H1127  H     0.88957   0.70157   0.16673   0.00000  Uiso   1.00
H1128  H     0.93407   0.70596   0.10649   0.00000  Uiso   1.00
Ti1129 Ti    0.24512   0.75488   0.75488   0.00000  Uiso   1.00
Ti1130 Ti    0.74512   0.25488   0.25488   0.00000  Uiso   1.00
Ti1131 Ti    0.75488   0.24512   0.75488   0.00000  Uiso   1.00
Ti1132 Ti    0.25488   0.74512   0.25488   0.00000  Uiso   1.00
Ti1133 Ti    0.75488   0.75488   0.24512   0.00000  Uiso   1.00
Ti1134 Ti    0.25488   0.25488   0.74512   0.00000  Uiso   1.00
Ti1135 Ti    0.24512   0.24512   0.24512   0.00000  Uiso   1.00
Ti1136 Ti    0.74512   0.74512   0.74512   0.00000  Uiso   1.00
loop_
_geom_bond_atom_site_label_1
_geom_bond_atom_site_label_2
_geom_bond_distance
_geom_bond_site_symmetry_2
_ccdc_geom_bond_type
C1     C2      1.408   .     S
C1     C3      1.408   .     D
C1     C572    1.481   .     S
C2     C6      1.404   .     S
C2     O10     1.279   .     D
C3     C9      1.406   .     S
C3     H33     1.083   .     S
N4     C13     1.430   .     S
N4     C851    1.298   .     D
C5     C11     1.483   .     S
C5     H34     1.083   .     S
C5     N568    1.298   .     D
C6     C11     1.407   .     S
C6     O576    1.272   .     D
N7     C854    1.299   .     S
N7     C1017   1.433   .     D
C8     H35     1.083   .     S
C8     C847    1.481   .     S
C8     N571    1.299   .     D
C9     C11     1.404   .     D
C9     H36     1.083   .     S
O10    Ti1129  1.928   .     S
O12    Ti1129  1.909   .     S
O12    C852    1.272   .     D
C13    C14     1.406   .     D
C13    C18     1.395   .     S
C14    C15     1.404   .     S
C14    H37     1.081   .     S
C15    C16     1.412   .     D
C15    H38     1.084   .     S
C16    C17     1.409   .     S
C16    C19     1.416   .     S
C17    C18     1.391   .     D
C17    H39     1.084   .     S
C18    H40     1.083   .     S
C19    C20     1.404   .     D
C19    C24     1.424   .     S
C20    C21     1.401   .     S
C20    H41     1.086   .     S
C21    C22     1.425   .     S
C21    C121    1.418   .     D
C22    C23     1.422   .     D
C22    C26     1.406   .     S
C23    C24     1.425   .     S
C23    C117    1.432   .     S
C24    C119    1.406   .     D
C25    C26     1.386   .     D
C25    H42     1.078   .     S
C25    C118    1.406   .     S
C26    H43     1.080   .     S
C27    C28     1.411   .     D
C27    C32     1.409   .     S
C27    C115    1.418   .     S
C28    C29     1.399   .     S
C28    H44     1.082   .     S
C29    C30     1.405   .     D
C29    H45     1.082   .     S
C30    C31     1.398   .     S
C30    N712    1.433   .     S
C31    C32     1.396   .     D
C31    H46     1.083   .     S
C32    H47     1.083   .     S
C48    C49     1.408   .     S
C48    C50     1.408   .     D
C48    C619    1.481   .     S
C49    C53     1.404   .     S
C49    O57     1.279   .     D
C50    C56     1.406   .     S
C50    H80     1.083   .     S
N51    C60     1.430   .     S
N51    C898    1.298   .     D
C52    C58     1.483   .     S
C52    H81     1.083   .     S
C52    N615    1.298   .     D
C53    C58     1.407   .     S
C53    O623    1.272   .     D
N54    C901    1.299   .     D
N54    C970    1.433   .     S
C55    H82     1.083   .     S
C55    C894    1.481   .     S
C55    N618    1.299   .     D
C56    C58     1.404   .     D
C56    H83     1.083   .     S
O57    Ti1130  1.928   .     S
O59    Ti1130  1.909   .     S
O59    C899    1.272   .     D
C60    C61     1.406   .     S
C60    C65     1.395   .     D
C61    C62     1.404   .     D
C61    H84     1.081   .     S
C62    C63     1.412   .     S
C62    H85     1.084   .     S
C63    C64     1.409   .     D
C63    C66     1.416   .     S
C64    C65     1.391   .     S
C64    H86     1.084   .     S
C65    H87     1.083   .     S
C66    C67     1.404   .     D
C66    C71     1.424   .     S
C67    H88     1.086   .     S
C67    C68     1.401   1_545 S
C68    C69     1.425   .     D
C68    C168    1.418   .     S
C68    C67     1.401   1_565 S
C69    C73     1.406   .     S
C69    C70     1.422   1_565 S
C70    C71     1.425   .     D
C70    C69     1.422   1_545 S
C70    C164    1.432   1_645 S
C71    C166    1.406   1_655 S
C72    C73     1.386   .     D
C72    H89     1.078   .     S
C72    C165    1.406   1_655 S
C73    H90     1.080   .     S
C74    C75     1.411   .     D
C74    C79     1.409   .     S
C74    C162    1.418   .     S
C75    C76     1.399   .     S
C75    H91     1.082   1_545 S
C76    C77     1.405   .     D
C76    H92     1.082   .     S
C77    C78     1.398   .     S
C77    N665    1.433   .     S
C78    C79     1.396   .     D
C78    H93     1.083   .     S
C79    H94     1.083   .     S
H91    C75     1.082   1_565 S
C95    C96     1.408   .     S
C95    C97     1.408   .     S
C95    C384    1.481   .     D
C96    C100    1.404   .     S
C96    O104    1.279   .     D
C97    C103    1.406   .     D
C97    H127    1.083   .     S
N98    C107    1.430   .     D
N98    C945    1.298   .     S
C99    C105    1.483   .     D
C99    H128    1.083   .     S
C99    N380    1.298   .     S
C100   C105    1.407   .     S
C100   O388    1.272   .     D
N101   C948    1.299   .     D
N101   C923    1.433   .     S
C102   H129    1.083   .     S
C102   C941    1.481   .     D
C102   N383    1.299   .     S
C103   C105    1.404   .     S
C103   H130    1.083   .     S
O104   Ti1131  1.928   .     S
O106   Ti1131  1.909   .     S
O106   C946    1.272   .     D
C107   C108    1.406   .     S
C107   C112    1.395   .     S
C108   C109    1.404   .     D
C108   H131    1.081   .     S
C109   C110    1.412   .     S
C109   H132    1.084   .     S
C110   C111    1.409   .     S
C110   C113    1.416   .     D
C111   C112    1.391   .     D
C111   H133    1.084   .     S
C112   H134    1.083   .     S
C113   C114    1.404   .     S
C113   C118    1.424   .     S
C114   C115    1.401   .     D
C114   H135    1.086   .     S
C115   C116    1.425   .     S
C116   C117    1.422   .     S
C116   C120    1.406   .     D
C117   C118    1.425   .     D
C119   C120    1.386   .     S
C119   H136    1.078   .     S
C120   H137    1.080   .     S
C121   C122    1.411   .     S
C121   C126    1.409   .     S
C122   C123    1.399   .     D
C122   H138    1.082   .     S
C123   C124    1.405   .     S
C123   H139    1.082   .     S
C124   C125    1.398   .     S
C124   N524    1.433   .     D
C125   C126    1.396   .     D
C125   H140    1.083   .     S
C126   H141    1.083   .     S
C142   C143    1.408   .     S
C142   C144    1.408   .     D
C142   C431    1.481   .     S
C143   C147    1.404   .     S
C143   O151    1.279   .     D
C144   C150    1.406   .     S
C144   H174    1.083   .     S
N145   C154    1.430   .     S
N145   C992    1.298   .     D
C146   C152    1.483   .     S
C146   H175    1.083   .     S
C146   N427    1.298   .     D
C147   C152    1.407   .     S
C147   O435    1.272   .     D
N148   C995    1.299   .     D
N148   C876    1.433   .     S
C149   H176    1.083   .     S
C149   C988    1.481   .     S
C149   N430    1.299   .     D
C150   C152    1.404   .     D
C150   H177    1.083   .     S
O151   Ti1132  1.928   .     S
O153   Ti1132  1.909   .     S
O153   C993    1.272   .     D
C154   C155    1.406   .     S
C154   C159    1.395   .     D
C155   C156    1.404   .     D
C155   H178    1.081   .     S
C156   C157    1.412   .     S
C156   H179    1.084   .     S
C157   C158    1.409   .     D
C157   C160    1.416   .     S
C158   C159    1.391   .     S
C158   H180    1.084   .     S
C159   H181    1.083   .     S
C160   C161    1.404   .     S
C160   C165    1.424   .     D
C161   H182    1.086   .     S
C161   C162    1.401   1_565 D
C162   C163    1.425   .     S
C162   C161    1.401   1_545 D
C163   C167    1.406   .     S
C163   C164    1.422   1_545 D
C164   C165    1.425   .     S
C164   C70     1.432   1_465 S
C164   C163    1.422   1_565 D
C165   C72     1.406   1_455 S
C166   C167    1.386   .     D
C166   H183    1.078   .     S
C166   C71     1.406   1_455 S
C167   H184    1.080   .     S
C168   C169    1.411   .     D
C168   C173    1.409   .     S
C169   C170    1.399   .     S
C169   H185    1.082   1_565 S
C170   C171    1.405   .     D
C170   H186    1.082   .     S
C171   C172    1.398   .     S
C171   N477    1.433   .     S
C172   C173    1.396   .     D
C172   H187    1.083   .     S
C173   H188    1.083   .     S
H185   C169    1.082   1_545 S
C189   C190    1.408   .     S
C189   C191    1.408   .     S
C189   C478    1.481   .     D
C190   C194    1.404   .     S
C190   O198    1.279   .     D
C191   C197    1.406   .     D
C191   H221    1.083   .     S
N192   C201    1.430   .     S
N192   C757    1.298   .     D
C193   C199    1.483   .     D
C193   H222    1.083   .     S
C193   N474    1.298   .     S
C194   C199    1.407   .     S
C194   O482    1.272   .     D
N195   C760    1.299   .     S
N195   C1111   1.433   .     D
C196   H223    1.083   .     S
C196   C753    1.481   .     S
C196   N477    1.299   .     D
C197   C199    1.404   .     S
C197   H224    1.083   .     S
O198   Ti1133  1.928   .     S
O200   Ti1133  1.909   .     S
O200   C758    1.272   .     D
C201   C202    1.406   .     D
C201   C206    1.395   .     S
C202   C203    1.404   .     S
C202   H225    1.081   .     S
C203   C204    1.412   .     D
C203   H226    1.084   .     S
C204   C205    1.409   .     S
C204   C207    1.416   .     S
C205   C206    1.391   .     D
C205   H227    1.084   .     S
C206   H228    1.083   .     S
C207   C208    1.404   .     S
C207   C212    1.424   .     D
C208   C209    1.401   .     D
C208   H229    1.086   .     S
C209   C210    1.425   .     S
C209   C309    1.418   .     S
C210   C211    1.422   .     D
C210   C214    1.406   .     S
C211   C212    1.425   .     S
C211   C305    1.432   .     S
C212   C307    1.406   .     S
C213   C214    1.386   .     D
C213   H230    1.078   .     S
C213   C306    1.406   .     S
C214   H231    1.080   .     S
C215   C216    1.411   .     D
C215   C220    1.409   .     S
C215   C303    1.418   .     S
C216   C217    1.399   .     S
C216   H232    1.082   .     S
C217   C218    1.405   .     D
C217   H233    1.082   .     S
C218   C219    1.398   .     S
C218   N430    1.433   .     S
C219   C220    1.396   .     D
C219   H234    1.083   .     S
C220   H235    1.083   .     S
C236   C237    1.408   .     S
C236   C238    1.408   .     D
C236   C525    1.481   .     S
C237   C241    1.404   .     S
C237   O245    1.279   .     D
C238   C244    1.406   .     S
C238   H268    1.083   .     S
N239   C248    1.430   .     D
N239   C804    1.298   .     S
C240   C246    1.483   .     S
C240   H269    1.083   .     S
C240   N521    1.298   .     D
C241   C246    1.407   .     S
C241   O529    1.272   .     D
N242   C807    1.299   .     D
N242   C1064   1.433   .     S
C243   H270    1.083   .     S
C243   C800    1.481   .     D
C243   N524    1.299   .     S
C244   C246    1.404   .     D
C244   H271    1.083   .     S
O245   Ti1134  1.928   .     S
O247   Ti1134  1.909   .     S
O247   C805    1.272   .     D
C248   C249    1.406   .     S
C248   C253    1.395   .     S
C249   C250    1.404   .     D
C249   H272    1.081   .     S
C250   C251    1.412   .     S
C250   H273    1.084   .     S
C251   C252    1.409   .     S
C251   C254    1.416   .     D
C252   C253    1.391   .     D
C252   H274    1.084   .     S
C253   H275    1.083   .     S
C254   C255    1.404   .     S
C254   C259    1.424   .     S
C255   H276    1.086   .     S
C255   C256    1.401   1_545 D
C256   C257    1.425   .     S
C256   C356    1.418   .     S
C256   C255    1.401   1_565 D
C257   C261    1.406   .     S
C257   C258    1.422   1_565 D
C258   C259    1.425   .     S
C258   C257    1.422   1_545 D
C258   C352    1.432   1_445 S
C259   C354    1.406   1_455 D
C260   C261    1.386   .     D
C260   H277    1.078   .     S
C260   C353    1.406   1_455 S
C261   H278    1.080   .     S
C262   C263    1.411   .     S
C262   C267    1.409   .     S
C262   C350    1.418   .     D
C263   C264    1.399   .     D
C263   H279    1.082   1_545 S
C264   C265    1.405   .     S
C264   H280    1.082   .     S
C265   C266    1.398   .     S
C265   N383    1.433   .     D
C266   C267    1.396   .     D
C266   H281    1.083   .     S
C267   H282    1.083   .     S
H279   C263    1.082   1_565 S
C283   C284    1.408   .     S
C283   C285    1.408   .     D
C283   C666    1.481   .     S
C284   C288    1.404   .     S
C284   O292    1.279   .     D
C285   C291    1.406   .     S
C285   H315    1.083   .     S
N286   C295    1.430   .     S
N286   C1039   1.298   .     D
C287   C293    1.483   .     S
C287   H316    1.083   .     S
C287   N662    1.298   .     D
C288   C293    1.407   .     S
C288   O670    1.272   .     D
N289   C1042   1.299   .     D
N289   C829    1.433   .     S
C290   H317    1.083   .     S
C290   C1035   1.481   .     S
C290   N665    1.299   .     D
C291   C293    1.404   .     D
C291   H318    1.083   .     S
O292   Ti1135  1.928   .     S
O294   Ti1135  1.909   .     S
O294   C1040   1.272   .     D
C295   C296    1.406   .     S
C295   C300    1.395   .     D
C296   C297    1.404   .     D
C296   H319    1.081   .     S
C297   C298    1.412   .     S
C297   H320    1.084   .     S
C298   C299    1.409   .     D
C298   C301    1.416   .     S
C299   C300    1.391   .     S
C299   H321    1.084   .     S
C300   H322    1.083   .     S
C301   C302    1.404   .     S
C301   C306    1.424   .     D
C302   C303    1.401   .     D
C302   H323    1.086   .     S
C303   C304    1.425   .     S
C304   C305    1.422   .     D
C304   C308    1.406   .     S
C305   C306    1.425   .     S
C307   C308    1.386   .     D
C307   H324    1.078   .     S
C308   H325    1.080   .     S
C309   C310    1.411   .     D
C309   C314    1.409   .     S
C310   C311    1.399   .     S
C310   H326    1.082   .     S
C311   C312    1.405   .     D
C311   H327    1.082   .     S
C312   C313    1.398   .     S
C312   N618    1.433   .     S
C313   C314    1.396   .     D
C313   H328    1.083   .     S
C314   H329    1.083   .     S
C330   C331    1.408   .     S
C330   C332    1.408   .     D
C330   C713    1.481   .     S
C331   C335    1.404   .     S
C331   O339    1.279   .     D
C332   C338    1.406   .     S
C332   H362    1.083   .     S
N333   C342    1.430   .     S
N333   C1086   1.298   .     D
C334   C340    1.483   .     S
C334   H363    1.083   .     S
C334   N709    1.298   .     D
C335   C340    1.407   .     S
C335   O717    1.272   .     D
N336   C1089   1.299   .     D
N336   C782    1.433   .     S
C337   H364    1.083   .     S
C337   C1082   1.481   .     S
C337   N712    1.299   .     D
C338   C340    1.404   .     D
C338   H365    1.083   .     S
O339   Ti1136  1.928   .     S
O341   Ti1136  1.909   .     S
O341   C1087   1.272   .     D
C342   C343    1.406   .     S
C342   C347    1.395   .     D
C343   C344    1.404   .     D
C343   H366    1.081   .     S
C344   C345    1.412   .     S
C344   H367    1.084   .     S
C345   C346    1.409   .     D
C345   C348    1.416   .     S
C346   C347    1.391   .     S
C346   H368    1.084   .     S
C347   H369    1.083   .     S
C348   C349    1.404   .     D
C348   C353    1.424   .     S
C349   H370    1.086   .     S
C349   C350    1.401   1_565 S
C350   C351    1.425   .     S
C350   C349    1.401   1_545 S
C351   C355    1.406   .     D
C351   C352    1.422   1_545 S
C352   C353    1.425   .     D
C352   C258    1.432   1_665 S
C352   C351    1.422   1_565 S
C353   C260    1.406   1_655 S
C354   C355    1.386   .     S
C354   H371    1.078   .     S
C354   C259    1.406   1_655 D
C355   H372    1.080   .     S
C356   C357    1.411   .     D
C356   C361    1.409   .     S
C357   C358    1.399   .     S
C357   H373    1.082   1_565 S
C358   C359    1.405   .     D
C358   H374    1.082   .     S
C359   C360    1.398   .     S
C359   N571    1.433   .     S
C360   C361    1.396   .     D
C360   H375    1.083   .     S
C361   H376    1.083   .     S
H373   C357    1.082   1_545 S
C377   C378    1.408   .     S
C377   C379    1.408   .     D
C377   C948    1.481   .     S
C378   C382    1.404   .     S
C378   O386    1.279   .     D
C379   C385    1.406   .     S
C379   H409    1.083   .     S
N380   C389    1.430   .     D
C381   C387    1.483   .     S
C381   H410    1.083   .     S
C381   N944    1.298   .     D
C382   C387    1.407   .     S
C382   O952    1.272   .     D
C384   H411    1.083   .     S
C384   N947    1.299   .     S
C385   C387    1.404   .     D
C385   H412    1.083   .     S
O386   Ti1131  1.928   .     S
O388   Ti1131  1.909   .     S
C389   C390    1.406   .     S
C389   C394    1.395   .     S
C390   C391    1.404   .     D
C390   H413    1.081   .     S
C391   C392    1.412   .     S
C391   H414    1.084   .     S
C392   C393    1.409   .     S
C392   C395    1.416   .     D
C393   C394    1.391   .     D
C393   H415    1.084   .     S
C394   H416    1.083   .     S
C395   C396    1.404   .     S
C395   C400    1.424   .     S
C396   C397    1.401   .     D
C396   H417    1.086   .     S
C397   C398    1.425   .     S
C397   C497    1.418   .     S
C398   C399    1.422   .     S
C398   C402    1.406   .     D
C399   C400    1.425   .     D
C399   C493    1.432   .     S
C400   C495    1.406   .     S
C401   C402    1.386   .     S
C401   H418    1.078   .     S
C401   C494    1.406   .     D
C402   H419    1.080   .     S
C403   C404    1.411   .     S
C403   C408    1.409   .     D
C403   C491    1.418   .     S
C404   C405    1.399   .     D
C404   H420    1.082   .     S
C405   C406    1.405   .     S
C405   H421    1.082   .     S
C406   C407    1.398   .     D
C406   N1088   1.433   .     S
C407   C408    1.396   .     S
C407   H422    1.083   .     S
C408   H423    1.083   .     S
C424   C425    1.408   .     S
C424   C426    1.408   .     D
C424   C995    1.481   .     S
C425   C429    1.404   .     S
C425   O433    1.279   .     D
C426   C432    1.406   .     S
C426   H456    1.083   .     S
N427   C436    1.430   .     S
C428   C434    1.483   .     S
C428   H457    1.083   .     S
C428   N991    1.298   .     D
C429   C434    1.407   .     S
C429   O999    1.272   .     D
C431   H458    1.083   .     S
C431   N994    1.299   .     D
C432   C434    1.404   .     D
C432   H459    1.083   .     S
O433   Ti1132  1.928   .     S
O435   Ti1132  1.909   .     S
C436   C437    1.406   .     D
C436   C441    1.395   .     S
C437   C438    1.404   .     S
C437   H460    1.081   .     S
C438   C439    1.412   .     D
C438   H461    1.084   .     S
C439   C440    1.409   .     S
C439   C442    1.416   .     S
C440   C441    1.391   .     D
C440   H462    1.084   .     S
C441   H463    1.083   .     S
C442   C443    1.404   .     D
C442   C447    1.424   .     S
C443   H464    1.086   .     S
C443   C444    1.401   1_554 S
C444   C445    1.425   .     D
C444   C544    1.418   .     S
C444   C443    1.401   1_556 S
C445   C449    1.406   .     S
C445   C446    1.422   1_556 S
C446   C447    1.425   .     D
C446   C445    1.422   1_554 S
C446   C540    1.432   1_564 S
C447   C542    1.406   1_565 S
C448   C449    1.386   .     D
C448   H465    1.078   .     S
C448   C541    1.406   1_565 S
C449   H466    1.080   .     S
C450   C451    1.411   .     D
C450   C455    1.409   .     S
C450   C538    1.418   .     S
C451   C452    1.399   .     S
C451   H467    1.082   1_554 S
C452   C453    1.405   .     D
C452   H468    1.082   .     S
C453   C454    1.398   .     S
C453   N1041   1.433   .     S
C454   C455    1.396   .     D
C454   H469    1.083   .     S
C455   H470    1.083   .     S
H467   C451    1.082   1_556 S
C471   C472    1.408   .     S
C471   C473    1.408   .     S
C471   C760    1.481   .     D
C472   C476    1.404   .     S
C472   O480    1.279   .     D
C473   C479    1.406   .     D
C473   H503    1.083   .     S
N474   C483    1.430   .     D
C475   C481    1.483   .     D
C475   H504    1.083   .     S
C475   N756    1.298   .     S
C476   C481    1.407   .     S
C476   O764    1.272   .     D
C478   H505    1.083   .     S
C478   N759    1.299   .     S
C479   C481    1.404   .     S
C479   H506    1.083   .     S
O480   Ti1133  1.928   .     S
O482   Ti1133  1.909   .     S
C483   C484    1.406   .     S
C483   C488    1.395   .     S
C484   C485    1.404   .     D
C484   H507    1.081   .     S
C485   C486    1.412   .     S
C485   H508    1.084   .     S
C486   C487    1.409   .     S
C486   C489    1.416   .     D
C487   C488    1.391   .     D
C487   H509    1.084   .     S
C488   H510    1.083   .     S
C489   C490    1.404   .     S
C489   C494    1.424   .     S
C490   C491    1.401   .     D
C490   H511    1.086   .     S
C491   C492    1.425   .     S
C492   C493    1.422   .     D
C492   C496    1.406   .     S
C493   C494    1.425   .     S
C495   C496    1.386   .     D
C495   H512    1.078   .     S
C496   H513    1.080   .     S
C497   C498    1.411   .     D
C497   C502    1.409   .     S
C498   C499    1.399   .     S
C498   H514    1.082   .     S
C499   C500    1.405   .     D
C499   H515    1.082   .     S
C500   C501    1.398   .     S
C500   N900    1.433   .     S
C501   C502    1.396   .     D
C501   H516    1.083   .     S
C502   H517    1.083   .     S
C518   C519    1.408   .     S
C518   C520    1.408   .     D
C518   C807    1.481   .     S
C519   C523    1.404   .     S
C519   O527    1.279   .     D
C520   C526    1.406   .     S
C520   H550    1.083   .     S
N521   C530    1.430   .     S
C522   C528    1.483   .     S
C522   H551    1.083   .     S
C522   N803    1.298   .     D
C523   C528    1.407   .     S
C523   O811    1.272   .     D
C525   H552    1.083   .     S
C525   N806    1.299   .     D
C526   C528    1.404   .     D
C526   H553    1.083   .     S
O527   Ti1134  1.928   .     S
O529   Ti1134  1.909   .     S
C530   C531    1.406   .     S
C530   C535    1.395   .     D
C531   C532    1.404   .     D
C531   H554    1.081   .     S
C532   C533    1.412   .     S
C532   H555    1.084   .     S
C533   C534    1.409   .     D
C533   C536    1.416   .     S
C534   C535    1.391   .     S
C534   H556    1.084   .     S
C535   H557    1.083   .     S
C536   C537    1.404   .     D
C536   C541    1.424   .     S
C537   H558    1.086   .     S
C537   C538    1.401   1_556 S
C538   C539    1.425   .     D
C538   C537    1.401   1_554 S
C539   C543    1.406   .     S
C539   C540    1.422   1_554 S
C540   C541    1.425   .     D
C540   C446    1.432   1_546 S
C540   C539    1.422   1_556 S
C541   C448    1.406   1_545 S
C542   C543    1.386   .     D
C542   H559    1.078   .     S
C542   C447    1.406   1_545 S
C543   H560    1.080   .     S
C544   C545    1.411   .     D
C544   C549    1.409   .     S
C545   C546    1.399   .     S
C545   H561    1.082   1_556 S
C546   C547    1.405   .     D
C546   H562    1.082   .     S
C547   C548    1.398   .     S
C547   N853    1.433   .     S
C548   C549    1.396   .     D
C548   H563    1.083   .     S
C549   H564    1.083   .     S
H561   C545    1.082   1_554 S
C565   C566    1.408   .     S
C565   C567    1.408   .     S
C565   C854    1.481   .     D
C566   C570    1.404   .     S
C566   O574    1.279   .     D
C567   C573    1.406   .     D
C567   H597    1.083   .     S
N568   C577    1.430   .     S
C569   C575    1.483   .     D
C569   H598    1.083   .     S
C569   N850    1.298   .     S
C570   C575    1.407   .     S
C570   O858    1.272   .     D
C572   H599    1.083   .     S
C572   N853    1.299   .     D
C573   C575    1.404   .     S
C573   H600    1.083   .     S
O574   Ti1129  1.928   .     S
O576   Ti1129  1.909   .     S
C577   C578    1.406   .     S
C577   C582    1.395   .     D
C578   C579    1.404   .     D
C578   H601    1.081   .     S
C579   C580    1.412   .     S
C579   H602    1.084   .     S
C580   C581    1.409   .     D
C580   C583    1.416   .     S
C581   C582    1.391   .     S
C581   H603    1.084   .     S
C582   H604    1.083   .     S
C583   C584    1.404   .     D
C583   C588    1.424   .     S
C584   C585    1.401   .     S
C584   H605    1.086   .     S
C585   C586    1.425   .     D
C585   C685    1.418   .     S
C586   C587    1.422   .     S
C586   C590    1.406   .     S
C587   C588    1.425   .     S
C587   C681    1.432   .     D
C588   C683    1.406   .     D
C589   C590    1.386   .     D
C589   H606    1.078   .     S
C589   C682    1.406   .     S
C590   H607    1.080   .     S
C591   C592    1.411   .     S
C591   C596    1.409   .     D
C591   C679    1.418   .     S
C592   C593    1.399   .     D
C592   H608    1.082   .     S
C593   C594    1.405   .     S
C593   H609    1.082   .     S
C594   C595    1.398   .     D
C594   N806    1.433   .     S
C595   C596    1.396   .     S
C595   H610    1.083   .     S
C596   H611    1.083   .     S
C612   C613    1.408   .     S
C612   C614    1.408   .     D
C612   C901    1.481   .     S
C613   C617    1.404   .     S
C613   O621    1.279   .     D
C614   C620    1.406   .     S
C614   H644    1.083   .     S
N615   C624    1.430   .     S
C616   C622    1.483   .     S
C616   H645    1.083   .     S
C616   N897    1.298   .     D
C617   C622    1.407   .     S
C617   O905    1.272   .     D
C619   H646    1.083   .     S
C619   N900    1.299   .     D
C620   C622    1.404   .     D
C620   H647    1.083   .     S
O621   Ti1130  1.928   .     S
O623   Ti1130  1.909   .     S
C624   C625    1.406   .     D
C624   C629    1.395   .     S
C625   C626    1.404   .     S
C625   H648    1.081   .     S
C626   C627    1.412   .     D
C626   H649    1.084   .     S
C627   C628    1.409   .     S
C627   C630    1.416   .     S
C628   C629    1.391   .     D
C628   H650    1.084   .     S
C629   H651    1.083   .     S
C630   C631    1.404   .     D
C630   C635    1.424   .     S
C631   H652    1.086   .     S
C631   C632    1.401   1_554 S
C632   C633    1.425   .     S
C632   C732    1.418   .     D
C632   C631    1.401   1_556 S
C633   C637    1.406   .     D
C633   C634    1.422   1_556 S
C634   C635    1.425   .     S
C634   C633    1.422   1_554 S
C634   C728    1.432   1_544 D
C635   C730    1.406   1_545 D
C636   C637    1.386   .     S
C636   H653    1.078   .     S
C636   C729    1.406   1_545 D
C637   H654    1.080   .     S
C638   C639    1.411   .     S
C638   C643    1.409   .     S
C638   C726    1.418   .     D
C639   C640    1.399   .     D
C639   H655    1.082   1_554 S
C640   C641    1.405   .     S
C640   H656    1.082   .     S
C641   C642    1.398   .     S
C641   N759    1.433   .     D
C642   C643    1.396   .     D
C642   H657    1.083   .     S
C643   H658    1.083   .     S
H655   C639    1.082   1_556 S
C659   C660    1.408   .     S
C659   C661    1.408   .     D
C659   C1042   1.481   .     S
C660   C664    1.404   .     S
C660   O668    1.279   .     D
C661   C667    1.406   .     S
C661   H691    1.083   .     S
N662   C671    1.430   .     S
C663   C669    1.483   .     S
C663   H692    1.083   .     S
C663   N1038   1.298   .     D
C664   C669    1.407   .     S
C664   O1046   1.272   .     D
C666   H693    1.083   .     S
C666   N1041   1.299   .     D
C667   C669    1.404   .     D
C667   H694    1.083   .     S
O668   Ti1135  1.928   .     S
O670   Ti1135  1.909   .     S
C671   C672    1.406   .     D
C671   C676    1.395   .     S
C672   C673    1.404   .     S
C672   H695    1.081   .     S
C673   C674    1.412   .     D
C673   H696    1.084   .     S
C674   C675    1.409   .     S
C674   C677    1.416   .     S
C675   C676    1.391   .     D
C675   H697    1.084   .     S
C676   H698    1.083   .     S
C677   C678    1.404   .     S
C677   C682    1.424   .     D
C678   C679    1.401   .     D
C678   H699    1.086   .     S
C679   C680    1.425   .     S
C680   C681    1.422   .     S
C680   C684    1.406   .     D
C681   C682    1.425   .     S
C683   C684    1.386   .     S
C683   H700    1.078   .     S
C684   H701    1.080   .     S
C685   C686    1.411   .     S
C685   C690    1.409   .     D
C686   C687    1.399   .     D
C686   H702    1.082   .     S
C687   C688    1.405   .     S
C687   H703    1.082   .     S
C688   C689    1.398   .     D
C688   N994    1.433   .     S
C689   C690    1.396   .     S
C689   H704    1.083   .     S
C690   H705    1.083   .     S
C706   C707    1.408   .     S
C706   C708    1.408   .     D
C706   C1089   1.481   .     S
C707   C711    1.404   .     S
C707   O715    1.279   .     D
C708   C714    1.406   .     S
C708   H738    1.083   .     S
N709   C718    1.430   .     S
C710   C716    1.483   .     S
C710   H739    1.083   .     S
C710   N1085   1.298   .     D
C711   C716    1.407   .     S
C711   O1093   1.272   .     D
C713   H740    1.083   .     S
C713   N1088   1.299   .     D
C714   C716    1.404   .     D
C714   H741    1.083   .     S
O715   Ti1136  1.928   .     S
O717   Ti1136  1.909   .     S
C718   C719    1.406   .     S
C718   C723    1.395   .     D
C719   C720    1.404   .     D
C719   H742    1.081   .     S
C720   C721    1.412   .     S
C720   H743    1.084   .     S
C721   C722    1.409   .     D
C721   C724    1.416   .     S
C722   C723    1.391   .     S
C722   H744    1.084   .     S
C723   H745    1.083   .     S
C724   C725    1.404   .     D
C724   C729    1.424   .     S
C725   H746    1.086   .     S
C725   C726    1.401   1_556 S
C726   C727    1.425   .     S
C726   C725    1.401   1_554 S
C727   C731    1.406   .     D
C727   C728    1.422   1_554 S
C728   C729    1.425   .     S
C728   C634    1.432   1_566 D
C728   C727    1.422   1_556 S
C729   C636    1.406   1_565 D
C730   C731    1.386   .     S
C730   H747    1.078   .     S
C730   C635    1.406   1_565 D
C731   H748    1.080   .     S
C732   C733    1.411   .     S
C732   C737    1.409   .     S
C733   C734    1.399   .     D
C733   H749    1.082   1_556 S
C734   C735    1.405   .     S
C734   H750    1.082   .     S
C735   C736    1.398   .     S
C735   N947    1.433   .     D
C736   C737    1.396   .     D
C736   H751    1.083   .     S
C737   H752    1.083   .     S
H749   C733    1.082   1_554 S
C753   C754    1.408   .     S
C753   C755    1.408   .     D
C754   C758    1.404   .     S
C754   O762    1.279   .     D
C755   C761    1.406   .     S
C755   H785    1.083   .     S
N756   C765    1.430   .     D
C757   C763    1.483   .     S
C757   H786    1.083   .     S
C758   C763    1.407   .     S
C760   H787    1.083   .     S
C761   C763    1.404   .     D
C761   H788    1.083   .     S
O762   Ti1133  1.928   .     S
O764   Ti1133  1.909   .     S
C765   C766    1.406   .     S
C765   C770    1.395   .     S
C766   C767    1.404   .     D
C766   H789    1.081   .     S
C767   C768    1.412   .     S
C767   H790    1.084   .     S
C768   C769    1.409   .     S
C768   C771    1.416   .     D
C769   C770    1.391   .     D
C769   H791    1.084   .     S
C770   H792    1.083   .     S
C771   C772    1.404   .     S
C771   C776    1.424   .     S
C772   C773    1.401   .     D
C772   H793    1.086   .     S
C773   C774    1.425   .     S
C773   C873    1.418   .     S
C774   C775    1.422   .     S
C774   C778    1.406   .     D
C775   C776    1.425   .     D
C775   C869    1.432   .     S
C776   C871    1.406   .     S
C777   C778    1.386   .     S
C777   H794    1.078   .     S
C777   C870    1.406   .     D
C778   H795    1.080   .     S
C779   C780    1.411   .     S
C779   C784    1.409   .     D
C779   C867    1.418   .     S
C780   C781    1.399   .     D
C780   H796    1.082   .     S
C781   C782    1.405   .     S
C781   H797    1.082   .     S
C782   C783    1.398   .     D
C783   C784    1.396   .     S
C783   H798    1.083   .     S
C784   H799    1.083   .     S
C800   C801    1.408   .     S
C800   C802    1.408   .     S
C801   C805    1.404   .     S
C801   O809    1.279   .     D
C802   C808    1.406   .     D
C802   H832    1.083   .     S
N803   C812    1.430   .     S
C804   C810    1.483   .     D
C804   H833    1.083   .     S
C805   C810    1.407   .     S
C807   H834    1.083   .     S
C808   C810    1.404   .     S
C808   H835    1.083   .     S
O809   Ti1134  1.928   .     S
O811   Ti1134  1.909   .     S
C812   C813    1.406   .     D
C812   C817    1.395   .     S
C813   C814    1.404   .     S
C813   H836    1.081   .     S
C814   C815    1.412   .     D
C814   H837    1.084   .     S
C815   C816    1.409   .     S
C815   C818    1.416   .     S
C816   C817    1.391   .     D
C816   H838    1.084   .     S
C817   H839    1.083   .     S
C818   C819    1.404   .     D
C818   C823    1.424   .     S
C819   H840    1.086   .     S
C819   C820    1.401   1_455 S
C820   C821    1.425   .     D
C820   C920    1.418   .     S
C820   C819    1.401   1_655 S
C821   C825    1.406   .     S
C821   C822    1.422   1_655 S
C822   C823    1.425   .     D
C822   C821    1.422   1_455 S
C822   C916    1.432   1_456 S
C823   C918    1.406   1_556 S
C824   C825    1.386   .     D
C824   H841    1.078   .     S
C824   C917    1.406   1_556 S
C825   H842    1.080   .     S
C826   C827    1.411   .     D
C826   C831    1.409   .     S
C826   C914    1.418   .     S
C827   C828    1.399   .     S
C827   H843    1.082   1_455 S
C828   C829    1.405   .     D
C828   H844    1.082   .     S
C829   C830    1.398   .     S
C830   C831    1.396   .     D
C830   H845    1.083   .     S
C831   H846    1.083   .     S
H843   C827    1.082   1_655 S
C847   C848    1.408   .     S
C847   C849    1.408   .     D
C848   C852    1.404   .     S
C848   O856    1.279   .     D
C849   C855    1.406   .     S
C849   H879    1.083   .     S
N850   C859    1.430   .     D
C851   C857    1.483   .     S
C851   H880    1.083   .     S
C852   C857    1.407   .     S
C854   H881    1.083   .     S
C855   C857    1.404   .     D
C855   H882    1.083   .     S
O856   Ti1129  1.928   .     S
O858   Ti1129  1.909   .     S
C859   C860    1.406   .     S
C859   C864    1.395   .     S
C860   C861    1.404   .     D
C860   H883    1.081   .     S
C861   C862    1.412   .     S
C861   H884    1.084   .     S
C862   C863    1.409   .     S
C862   C865    1.416   .     D
C863   C864    1.391   .     D
C863   H885    1.084   .     S
C864   H886    1.083   .     S
C865   C866    1.404   .     S
C865   C870    1.424   .     S
C866   C867    1.401   .     D
C866   H887    1.086   .     S
C867   C868    1.425   .     S
C868   C869    1.422   .     D
C868   C872    1.406   .     S
C869   C870    1.425   .     S
C871   C872    1.386   .     D
C871   H888    1.078   .     S
C872   H889    1.080   .     S
C873   C874    1.411   .     D
C873   C878    1.409   .     S
C874   C875    1.399   .     S
C874   H890    1.082   .     S
C875   C876    1.405   .     D
C875   H891    1.082   .     S
C876   C877    1.398   .     S
C877   C878    1.396   .     D
C877   H892    1.083   .     S
C878   H893    1.083   .     S
C894   C895    1.408   .     S
C894   C896    1.408   .     D
C895   C899    1.404   .     S
C895   O903    1.279   .     D
C896   C902    1.406   .     S
C896   H926    1.083   .     S
N897   C906    1.430   .     S
C898   C904    1.483   .     S
C898   H927    1.083   .     S
C899   C904    1.407   .     S
C901   H928    1.083   .     S
C902   C904    1.404   .     D
C902   H929    1.083   .     S
O903   Ti1130  1.928   .     S
O905   Ti1130  1.909   .     S
C906   C907    1.406   .     S
C906   C911    1.395   .     D
C907   C908    1.404   .     D
C907   H930    1.081   .     S
C908   C909    1.412   .     S
C908   H931    1.084   .     S
C909   C910    1.409   .     D
C909   C912    1.416   .     S
C910   C911    1.391   .     S
C910   H932    1.084   .     S
C911   H933    1.083   .     S
C912   C913    1.404   .     D
C912   C917    1.424   .     S
C913   H934    1.086   .     S
C913   C914    1.401   1_655 S
C914   C915    1.425   .     D
C914   C913    1.401   1_455 S
C915   C919    1.406   .     S
C915   C916    1.422   1_455 S
C916   C917    1.425   .     D
C916   C822    1.432   1_654 S
C916   C915    1.422   1_655 S
C917   C824    1.406   1_554 S
C918   C919    1.386   .     D
C918   H935    1.078   .     S
C918   C823    1.406   1_554 S
C919   H936    1.080   .     S
C920   C921    1.411   .     D
C920   C925    1.409   .     S
C921   C922    1.399   .     S
C921   H937    1.082   1_655 S
C922   C923    1.405   .     D
C922   H938    1.082   .     S
C923   C924    1.398   .     S
C924   C925    1.396   .     D
C924   H939    1.083   .     S
C925   H940    1.083   .     S
H937   C921    1.082   1_455 S
C941   C942    1.408   .     S
C941   C943    1.408   .     S
C942   C946    1.404   .     S
C942   O950    1.279   .     D
C943   C949    1.406   .     D
C943   H973    1.083   .     S
N944   C953    1.430   .     S
C945   C951    1.483   .     D
C945   H974    1.083   .     S
C946   C951    1.407   .     S
C948   H975    1.083   .     S
C949   C951    1.404   .     S
C949   H976    1.083   .     S
O950   Ti1131  1.928   .     S
O952   Ti1131  1.909   .     S
C953   C954    1.406   .     S
C953   C958    1.395   .     D
C954   C955    1.404   .     D
C954   H977    1.081   .     S
C955   C956    1.412   .     S
C955   H978    1.084   .     S
C956   C957    1.409   .     D
C956   C959    1.416   .     S
C957   C958    1.391   .     S
C957   H979    1.084   .     S
C958   H980    1.083   .     S
C959   C960    1.404   .     D
C959   C964    1.424   .     S
C960   C961    1.401   .     S
C960   H981    1.086   .     S
C961   C962    1.425   .     D
C961   C1061   1.418   .     S
C962   C963    1.422   .     S
C962   C966    1.406   .     S
C963   C964    1.425   .     S
C963   C1057   1.432   .     D
C964   C1059   1.406   .     D
C965   C966    1.386   .     D
C965   H982    1.078   .     S
C965   C1058   1.406   .     S
C966   H983    1.080   .     S
C967   C968    1.411   .     S
C967   C972    1.409   .     D
C967   C1055   1.418   .     S
C968   C969    1.399   .     D
C968   H984    1.082   .     S
C969   C970    1.405   .     S
C969   H985    1.082   .     S
C970   C971    1.398   .     D
C971   C972    1.396   .     S
C971   H986    1.083   .     S
C972   H987    1.083   .     S
C988   C989    1.408   .     S
C988   C990    1.408   .     D
C989   C993    1.404   .     S
C989   O997    1.279   .     D
C990   C996    1.406   .     S
C990   H1020   1.083   .     S
N991   C1000   1.430   .     S
C992   C998    1.483   .     S
C992   H1021   1.083   .     S
C993   C998    1.407   .     S
C995   H1022   1.083   .     S
C996   C998    1.404   .     D
C996   H1023   1.083   .     S
O997   Ti1132  1.928   .     S
O999   Ti1132  1.909   .     S
C1000  C1001   1.406   .     D
C1000  C1005   1.395   .     S
C1001  C1002   1.404   .     S
C1001  H1024   1.081   .     S
C1002  C1003   1.412   .     D
C1002  H1025   1.084   .     S
C1003  C1004   1.409   .     S
C1003  C1006   1.416   .     S
C1004  C1005   1.391   .     D
C1004  H1026   1.084   .     S
C1005  H1027   1.083   .     S
C1006  C1007   1.404   .     D
C1006  C1011   1.424   .     S
C1007  H1028   1.086   .     S
C1007  C1008   1.401   1_455 S
C1008  C1009   1.425   .     S
C1008  C1108   1.418   .     D
C1008  C1007   1.401   1_655 S
C1009  C1013   1.406   .     D
C1009  C1010   1.422   1_655 S
C1010  C1011   1.425   .     S
C1010  C1009   1.422   1_455 S
C1010  C1104   1.432   1_454 D
C1011  C1106   1.406   1_554 D
C1012  C1013   1.386   .     S
C1012  H1029   1.078   .     S
C1012  C1105   1.406   1_554 D
C1013  H1030   1.080   .     S
C1014  C1015   1.411   .     S
C1014  C1019   1.409   .     S
C1014  C1102   1.418   .     D
C1015  C1016   1.399   .     D
C1015  H1031   1.082   1_455 S
C1016  C1017   1.405   .     S
C1016  H1032   1.082   .     S
C1017  C1018   1.398   .     S
C1018  C1019   1.396   .     D
C1018  H1033   1.083   .     S
C1019  H1034   1.083   .     S
H1031  C1015   1.082   1_655 S
C1035  C1036   1.408   .     S
C1035  C1037   1.408   .     D
C1036  C1040   1.404   .     S
C1036  O1044   1.279   .     D
C1037  C1043   1.406   .     S
C1037  H1067   1.083   .     S
N1038  C1047   1.430   .     S
C1039  C1045   1.483   .     S
C1039  H1068   1.083   .     S
C1040  C1045   1.407   .     S
C1042  H1069   1.083   .     S
C1043  C1045   1.404   .     D
C1043  H1070   1.083   .     S
O1044  Ti1135  1.928   .     S
O1046  Ti1135  1.909   .     S
C1047  C1048   1.406   .     D
C1047  C1052   1.395   .     S
C1048  C1049   1.404   .     S
C1048  H1071   1.081   .     S
C1049  C1050   1.412   .     D
C1049  H1072   1.084   .     S
C1050  C1051   1.409   .     S
C1050  C1053   1.416   .     S
C1051  C1052   1.391   .     D
C1051  H1073   1.084   .     S
C1052  H1074   1.083   .     S
C1053  C1054   1.404   .     S
C1053  C1058   1.424   .     D
C1054  C1055   1.401   .     D
C1054  H1075   1.086   .     S
C1055  C1056   1.425   .     S
C1056  C1057   1.422   .     S
C1056  C1060   1.406   .     D
C1057  C1058   1.425   .     S
C1059  C1060   1.386   .     S
C1059  H1076   1.078   .     S
C1060  H1077   1.080   .     S
C1061  C1062   1.411   .     S
C1061  C1066   1.409   .     D
C1062  C1063   1.399   .     D
C1062  H1078   1.082   .     S
C1063  C1064   1.405   .     S
C1063  H1079   1.082   .     S
C1064  C1065   1.398   .     D
C1065  C1066   1.396   .     S
C1065  H1080   1.083   .     S
C1066  H1081   1.083   .     S
C1082  C1083   1.408   .     S
C1082  C1084   1.408   .     D
C1083  C1087   1.404   .     S
C1083  O1091   1.279   .     D
C1084  C1090   1.406   .     S
C1084  H1114   1.083   .     S
N1085  C1094   1.430   .     S
C1086  C1092   1.483   .     S
C1086  H1115   1.083   .     S
C1087  C1092   1.407   .     S
C1089  H1116   1.083   .     S
C1090  C1092   1.404   .     D
C1090  H1117   1.083   .     S
O1091  Ti1136  1.928   .     S
O1093  Ti1136  1.909   .     S
C1094  C1095   1.406   .     S
C1094  C1099   1.395   .     D
C1095  C1096   1.404   .     D
C1095  H1118   1.081   .     S
C1096  C1097   1.412   .     S
C1096  H1119   1.084   .     S
C1097  C1098   1.409   .     D
C1097  C1100   1.416   .     S
C1098  C1099   1.391   .     S
C1098  H1120   1.084   .     S
C1099  H1121   1.083   .     S
C1100  C1101   1.404   .     D
C1100  C1105   1.424   .     S
C1101  H1122   1.086   .     S
C1101  C1102   1.401   1_655 S
C1102  C1103   1.425   .     S
C1102  C1101   1.401   1_455 S
C1103  C1107   1.406   .     D
C1103  C1104   1.422   1_455 S
C1104  C1105   1.425   .     S
C1104  C1010   1.432   1_656 D
C1104  C1103   1.422   1_655 S
C1105  C1012   1.406   1_556 D
C1106  C1107   1.386   .     S
C1106  H1123   1.078   .     S
C1106  C1011   1.406   1_556 D
C1107  H1124   1.080   .     S
C1108  C1109   1.411   .     S
C1108  C1113   1.409   .     S
C1109  C1110   1.399   .     D
C1109  H1125   1.082   1_655 S
C1110  C1111   1.405   .     S
C1110  H1126   1.082   .     S
C1111  C1112   1.398   .     S
C1112  C1113   1.396   .     D
C1112  H1127   1.083   .     S
C1113  H1128   1.083   .     S
H1125  C1109   1.082   1_455 S
