data_77
_audit_creation_date              2023-09-08
_audit_creation_method            'Materials Studio'
_symmetry_space_group_name_H-M    'P1'
_symmetry_Int_Tables_number       1
_symmetry_cell_setting            triclinic
loop_
_symmetry_equiv_pos_as_xyz
  x,y,z
_cell_length_a                    22.0730
_cell_length_b                    22.0730
_cell_length_c                    12.0000
_cell_angle_alpha                 90.0000
_cell_angle_beta                  90.0000
_cell_angle_gamma                 90.0000
loop_
_atom_site_label
_atom_site_type_symbol
_atom_site_fract_x
_atom_site_fract_y
_atom_site_fract_z
_atom_site_U_iso_or_equiv
_atom_site_adp_type
_atom_site_occupancy
C1     C     0.36981   0.14144   1.00699   0.00000  Uiso   1.00
C2     C     0.33488   0.19456   1.00645   0.00000  Uiso   1.00
C3     C     0.27144   0.19471   1.00623   0.00000  Uiso   1.00
C4     C     0.23640   0.14161   1.00662   0.00000  Uiso   1.00
C5     C     0.27122   0.08846   1.00750   0.00000  Uiso   1.00
C6     C     0.33464   0.08836   1.00779   0.00000  Uiso   1.00
C7     C     0.88127   0.30940   0.99569   0.00000  Uiso   1.00
C8     C     0.83274   0.26095   1.00144   0.00000  Uiso   1.00
C9     C     0.86632   0.20017   1.00336   0.00000  Uiso   1.00
N10    N     0.93491   0.20725   0.99931   0.00000  Uiso   1.00
C11    C     0.94207   0.27580   0.99441   0.00000  Uiso   1.00
C12    C     0.00040   0.31055   0.99165   0.00000  Uiso   1.00
C13    C     0.83162   0.14223   1.00597   0.00000  Uiso   1.00
C14    C     0.11859   0.97472   1.00042   0.00000  Uiso   1.00
C15    C     0.16712   0.02325   1.00298   0.00000  Uiso   1.00
C16    C     0.13364   0.08406   1.00329   0.00000  Uiso   1.00
N17    N     0.06504   0.07694   1.00125   0.00000  Uiso   1.00
C18    C     0.05784   0.00832   0.99984   0.00000  Uiso   1.00
C19    C     0.16847   0.14197   1.00388   0.00000  Uiso   1.00
C20    C     0.99979   0.97369   1.00053   0.00000  Uiso   1.00
C21    C     0.83264   0.02353   1.00662   0.00000  Uiso   1.00
C22    C     0.88106   0.97491   1.00394   0.00000  Uiso   1.00
C23    C     0.94192   0.00843   1.00189   0.00000  Uiso   1.00
N24    N     0.93484   0.07705   1.00275   0.00000  Uiso   1.00
C25    C     0.86628   0.08430   1.00560   0.00000  Uiso   1.00
C26    C     0.16744   0.26084   0.99929   0.00000  Uiso   1.00
C27    C     0.11893   0.30940   0.99374   0.00000  Uiso   1.00
C28    C     0.05807   0.27589   0.99377   0.00000  Uiso   1.00
N29    N     0.06524   0.20726   0.99878   0.00000  Uiso   1.00
C30    C     0.13388   0.20003   1.00183   0.00000  Uiso   1.00
Cu31   Cu    0.00004   0.14212   1.00051   0.00000  Uiso   1.00
C32    C     0.76365   0.14233   1.00696   0.00000  Uiso   1.00
C33    C     0.72872   0.19546   1.00643   0.00000  Uiso   1.00
C34    C     0.66528   0.19561   1.00620   0.00000  Uiso   1.00
C35    C     0.63024   0.14250   1.00659   0.00000  Uiso   1.00
C36    C     0.66506   0.08935   1.00747   0.00000  Uiso   1.00
C37    C     0.72849   0.08926   1.00777   0.00000  Uiso   1.00
N38    N     0.43407   0.14046   0.96902   0.00000  Uiso   1.00
C39    C     0.46804   0.08129   0.95918   0.00000  Uiso   1.00
C40    C     0.52765   0.08423   1.02563   0.00000  Uiso   1.00
N41    N     0.56285   0.14006   0.99257   0.00000  Uiso   1.00
C42    C     0.52779   0.19562   1.02776   0.00000  Uiso   1.00
C43    C     0.46799   0.19976   0.96206   0.00000  Uiso   1.00
C44    C     0.99993   0.90587   1.00848   0.00000  Uiso   1.00
C45    C     0.94681   0.87095   1.00852   0.00000  Uiso   1.00
C46    C     0.94666   0.80751   1.00870   0.00000  Uiso   1.00
C47    C     0.99977   0.77247   1.00898   0.00000  Uiso   1.00
C48    C     0.05292   0.80729   1.00930   0.00000  Uiso   1.00
C49    C     0.05301   0.87072   1.00918   0.00000  Uiso   1.00
C50    C     0.00018   0.51156   1.00460   0.00000  Uiso   1.00
C51    C     0.94697   0.47647   1.00463   0.00000  Uiso   1.00
C52    C     0.94704   0.41303   1.00482   0.00000  Uiso   1.00
C53    C     0.00026   0.37818   1.00509   0.00000  Uiso   1.00
C54    C     0.05330   0.41318   1.00541   0.00000  Uiso   1.00
C55    C     0.05317   0.47661   1.00529   0.00000  Uiso   1.00
N56    N     0.99927   0.57566   0.96621   0.00000  Uiso   1.00
C57    C     0.05835   0.60971   0.95577   0.00000  Uiso   1.00
C58    C     0.05544   0.66944   1.02185   0.00000  Uiso   1.00
N59    N     0.99948   0.70448   0.98892   0.00000  Uiso   1.00
C60    C     0.94405   0.66940   1.02470   0.00000  Uiso   1.00
C61    C     0.93990   0.60946   0.95941   0.00000  Uiso   1.00
C62    C     0.94625   0.80682   1.00229   0.00000  Uiso   1.00
C63    C     0.99930   0.77168   1.00257   0.00000  Uiso   1.00
C64    C     0.05251   0.80641   1.00288   0.00000  Uiso   1.00
C65    C     0.56561   0.25270   1.00073   0.00000  Uiso   1.00
C66    C     0.88708   0.70735   1.02185   0.00000  Uiso   1.00
H67    H     0.56608   0.26036   0.90679   0.00000  Uiso   1.00
H68    H     0.84718   0.69284   0.96776   0.00000  Uiso   1.00
H69    H     0.35806   0.24071   1.00617   0.00000  Uiso   1.00
H70    H     0.24572   0.23950   1.00571   0.00000  Uiso   1.00
H71    H     0.24796   0.04235   1.00802   0.00000  Uiso   1.00
H72    H     0.36039   0.04359   1.00872   0.00000  Uiso   1.00
H73    H     0.21700   0.00988   1.00422   0.00000  Uiso   1.00
H74    H     0.21733   0.27419   1.00072   0.00000  Uiso   1.00
H75    H     0.13236   0.35924   0.99059   0.00000  Uiso   1.00
H76    H     0.86792   0.35927   0.99330   0.00000  Uiso   1.00
H77    H     0.78288   0.27437   1.00339   0.00000  Uiso   1.00
H78    H     0.13196   0.92484   0.99937   0.00000  Uiso   1.00
H79    H     0.78274   0.01026   1.00882   0.00000  Uiso   1.00
H80    H     0.86759   0.92505   1.00380   0.00000  Uiso   1.00
H81    H     0.75191   0.24161   1.00616   0.00000  Uiso   1.00
H82    H     0.63956   0.24040   1.00567   0.00000  Uiso   1.00
H83    H     0.64180   0.04324   1.00798   0.00000  Uiso   1.00
H84    H     0.75425   0.04450   1.00871   0.00000  Uiso   1.00
H85    H     0.44833   0.04264   0.90766   0.00000  Uiso   1.00
H86    H     0.53899   0.04721   1.08850   0.00000  Uiso   1.00
H87    H     0.44810   0.23922   0.91289   0.00000  Uiso   1.00
H88    H     0.90079   0.49959   1.00450   0.00000  Uiso   1.00
H89    H     0.90234   0.38716   1.00476   0.00000  Uiso   1.00
H90    H     0.09949   0.39007   1.00579   0.00000  Uiso   1.00
H91    H     0.09784   0.50253   1.00577   0.00000  Uiso   1.00
H92    H     0.09694   0.58997   0.90412   0.00000  Uiso   1.00
H93    H     0.09257   0.68096   1.08440   0.00000  Uiso   1.00
H94    H     0.90038   0.58941   0.91062   0.00000  Uiso   1.00
H95    H     0.61398   0.24611   1.03175   0.00000  Uiso   1.00
H96    H     0.54466   0.29372   1.04372   0.00000  Uiso   1.00
H97    H     0.88401   0.75048   1.07379   0.00000  Uiso   1.00
C98    C     0.63019   0.85856   0.50699   0.00000  Uiso   1.00
C99    C     0.66512   0.80544   0.50645   0.00000  Uiso   1.00
C100   C     0.72856   0.80529   0.50623   0.00000  Uiso   1.00
C101   C     0.76360   0.85839   0.50662   0.00000  Uiso   1.00
C102   C     0.72878   0.91154   0.50750   0.00000  Uiso   1.00
C103   C     0.66536   0.91164   0.50779   0.00000  Uiso   1.00
C104   C     0.11873   0.69060   0.49569   0.00000  Uiso   1.00
C105   C     0.16726   0.73905   0.50144   0.00000  Uiso   1.00
C106   C     0.13368   0.79983   0.50336   0.00000  Uiso   1.00
N107   N     0.06509   0.79275   0.49931   0.00000  Uiso   1.00
C108   C     0.05793   0.72420   0.49441   0.00000  Uiso   1.00
C109   C     0.99960   0.68945   0.49165   0.00000  Uiso   1.00
C110   C     0.16838   0.85777   0.50597   0.00000  Uiso   1.00
C111   C     0.88141   0.02528   0.50042   0.00000  Uiso   1.00
C112   C     0.83288   0.97675   0.50298   0.00000  Uiso   1.00
C113   C     0.86636   0.91594   0.50329   0.00000  Uiso   1.00
N114   N     0.93496   0.92306   0.50125   0.00000  Uiso   1.00
C115   C     0.94216   0.99168   0.49984   0.00000  Uiso   1.00
C116   C     0.83153   0.85803   0.50388   0.00000  Uiso   1.00
C117   C     0.00021   0.02631   0.50053   0.00000  Uiso   1.00
C118   C     0.16736   0.97647   0.50662   0.00000  Uiso   1.00
C119   C     0.11894   0.02509   0.50394   0.00000  Uiso   1.00
C120   C     0.05808   0.99157   0.50189   0.00000  Uiso   1.00
N121   N     0.06516   0.92295   0.50275   0.00000  Uiso   1.00
C122   C     0.13372   0.91570   0.50560   0.00000  Uiso   1.00
C123   C     0.83256   0.73916   0.49929   0.00000  Uiso   1.00
C124   C     0.88107   0.69060   0.49374   0.00000  Uiso   1.00
C125   C     0.94193   0.72411   0.49377   0.00000  Uiso   1.00
N126   N     0.93476   0.79274   0.49878   0.00000  Uiso   1.00
C127   C     0.86612   0.79997   0.50183   0.00000  Uiso   1.00
Cu128  Cu    0.99996   0.85788   0.50051   0.00000  Uiso   1.00
C129   C     0.23635   0.85767   0.50696   0.00000  Uiso   1.00
C130   C     0.27128   0.80454   0.50643   0.00000  Uiso   1.00
C131   C     0.33472   0.80439   0.50620   0.00000  Uiso   1.00
C132   C     0.36976   0.85750   0.50659   0.00000  Uiso   1.00
C133   C     0.33494   0.91065   0.50747   0.00000  Uiso   1.00
C134   C     0.27151   0.91074   0.50777   0.00000  Uiso   1.00
N135   N     0.56593   0.85954   0.46902   0.00000  Uiso   1.00
C136   C     0.53196   0.91871   0.45918   0.00000  Uiso   1.00
C137   C     0.47235   0.91577   0.52563   0.00000  Uiso   1.00
N138   N     0.43715   0.85994   0.49257   0.00000  Uiso   1.00
C139   C     0.47221   0.80438   0.52776   0.00000  Uiso   1.00
C140   C     0.53201   0.80024   0.46206   0.00000  Uiso   1.00
C141   C     0.00007   0.09413   0.50848   0.00000  Uiso   1.00
C142   C     0.05319   0.12905   0.50852   0.00000  Uiso   1.00
C143   C     0.05334   0.19249   0.50870   0.00000  Uiso   1.00
C144   C     0.00023   0.22753   0.50898   0.00000  Uiso   1.00
C145   C     0.94708   0.19271   0.50930   0.00000  Uiso   1.00
C146   C     0.94699   0.12928   0.50918   0.00000  Uiso   1.00
C147   C     0.99982   0.48844   0.50460   0.00000  Uiso   1.00
C148   C     0.05303   0.52353   0.50463   0.00000  Uiso   1.00
C149   C     0.05296   0.58697   0.50482   0.00000  Uiso   1.00
C150   C     0.99974   0.62182   0.50509   0.00000  Uiso   1.00
C151   C     0.94670   0.58682   0.50541   0.00000  Uiso   1.00
C152   C     0.94683   0.52339   0.50529   0.00000  Uiso   1.00
N153   N     0.00073   0.42434   0.46621   0.00000  Uiso   1.00
C154   C     0.94165   0.39029   0.45577   0.00000  Uiso   1.00
C155   C     0.94456   0.33056   0.52185   0.00000  Uiso   1.00
N156   N     0.00052   0.29552   0.48892   0.00000  Uiso   1.00
C157   C     0.05595   0.33060   0.52470   0.00000  Uiso   1.00
C158   C     0.06010   0.39054   0.45941   0.00000  Uiso   1.00
C159   C     0.05375   0.19318   0.50229   0.00000  Uiso   1.00
C160   C     0.00070   0.22832   0.50257   0.00000  Uiso   1.00
C161   C     0.94749   0.19359   0.50288   0.00000  Uiso   1.00
C162   C     0.43439   0.74730   0.50073   0.00000  Uiso   1.00
C163   C     0.11292   0.29265   0.52185   0.00000  Uiso   1.00
H164   H     0.43392   0.73964   0.40679   0.00000  Uiso   1.00
H165   H     0.15282   0.30716   0.46776   0.00000  Uiso   1.00
H166   H     0.64194   0.75929   0.50617   0.00000  Uiso   1.00
H167   H     0.75428   0.76050   0.50571   0.00000  Uiso   1.00
H168   H     0.75204   0.95765   0.50802   0.00000  Uiso   1.00
H169   H     0.63961   0.95641   0.50872   0.00000  Uiso   1.00
H170   H     0.78300   0.99012   0.50422   0.00000  Uiso   1.00
H171   H     0.78267   0.72581   0.50072   0.00000  Uiso   1.00
H172   H     0.86764   0.64076   0.49059   0.00000  Uiso   1.00
H173   H     0.13208   0.64073   0.49330   0.00000  Uiso   1.00
H174   H     0.21712   0.72563   0.50339   0.00000  Uiso   1.00
H175   H     0.86804   0.07516   0.49937   0.00000  Uiso   1.00
H176   H     0.21726   0.98974   0.50882   0.00000  Uiso   1.00
H177   H     0.13241   0.07495   0.50380   0.00000  Uiso   1.00
H178   H     0.24809   0.75839   0.50616   0.00000  Uiso   1.00
H179   H     0.36044   0.75960   0.50567   0.00000  Uiso   1.00
H180   H     0.35820   0.95676   0.50798   0.00000  Uiso   1.00
H181   H     0.24575   0.95550   0.50871   0.00000  Uiso   1.00
H182   H     0.55167   0.95736   0.40766   0.00000  Uiso   1.00
H183   H     0.46101   0.95279   0.58850   0.00000  Uiso   1.00
H184   H     0.55190   0.76078   0.41289   0.00000  Uiso   1.00
H185   H     0.09921   0.50041   0.50450   0.00000  Uiso   1.00
H186   H     0.09766   0.61284   0.50476   0.00000  Uiso   1.00
H187   H     0.90051   0.60993   0.50579   0.00000  Uiso   1.00
H188   H     0.90216   0.49747   0.50577   0.00000  Uiso   1.00
H189   H     0.90306   0.41003   0.40412   0.00000  Uiso   1.00
H190   H     0.90743   0.31904   0.58440   0.00000  Uiso   1.00
H191   H     0.09962   0.41059   0.41062   0.00000  Uiso   1.00
H192   H     0.38602   0.75389   0.53175   0.00000  Uiso   1.00
H193   H     0.45534   0.70628   0.54372   0.00000  Uiso   1.00
H194   H     0.11599   0.24952   0.57379   0.00000  Uiso   1.00
C195   C     0.85856   0.36981   0.25699   0.00000  Uiso   1.00
C196   C     0.80544   0.33488   0.25645   0.00000  Uiso   1.00
C197   C     0.80529   0.27144   0.25623   0.00000  Uiso   1.00
C198   C     0.85839   0.23640   0.25662   0.00000  Uiso   1.00
C199   C     0.91154   0.27122   0.25750   0.00000  Uiso   1.00
C200   C     0.91164   0.33464   0.25779   0.00000  Uiso   1.00
C201   C     0.69060   0.88127   0.24569   0.00000  Uiso   1.00
C202   C     0.73905   0.83274   0.25144   0.00000  Uiso   1.00
C203   C     0.79983   0.86632   0.25336   0.00000  Uiso   1.00
N204   N     0.79275   0.93491   0.24931   0.00000  Uiso   1.00
C205   C     0.72420   0.94207   0.24441   0.00000  Uiso   1.00
C206   C     0.68945   0.00040   0.24165   0.00000  Uiso   1.00
C207   C     0.85777   0.83162   0.25597   0.00000  Uiso   1.00
C208   C     0.02528   0.11859   0.25042   0.00000  Uiso   1.00
C209   C     0.97675   0.16712   0.25298   0.00000  Uiso   1.00
C210   C     0.91594   0.13364   0.25329   0.00000  Uiso   1.00
N211   N     0.92306   0.06504   0.25125   0.00000  Uiso   1.00
C212   C     0.99168   0.05784   0.24984   0.00000  Uiso   1.00
C213   C     0.85803   0.16847   0.25388   0.00000  Uiso   1.00
C214   C     0.02631   0.99979   0.25053   0.00000  Uiso   1.00
C215   C     0.97647   0.83264   0.25662   0.00000  Uiso   1.00
C216   C     0.02509   0.88106   0.25394   0.00000  Uiso   1.00
C217   C     0.99157   0.94192   0.25189   0.00000  Uiso   1.00
N218   N     0.92295   0.93484   0.25275   0.00000  Uiso   1.00
C219   C     0.91570   0.86628   0.25560   0.00000  Uiso   1.00
C220   C     0.73916   0.16744   0.24929   0.00000  Uiso   1.00
C221   C     0.69060   0.11893   0.24374   0.00000  Uiso   1.00
C222   C     0.72411   0.05807   0.24377   0.00000  Uiso   1.00
N223   N     0.79274   0.06524   0.24878   0.00000  Uiso   1.00
C224   C     0.79997   0.13388   0.25183   0.00000  Uiso   1.00
Cu225  Cu    0.85788   0.00004   0.25051   0.00000  Uiso   1.00
C226   C     0.85767   0.76365   0.25696   0.00000  Uiso   1.00
C227   C     0.80454   0.72872   0.25643   0.00000  Uiso   1.00
C228   C     0.80439   0.66528   0.25620   0.00000  Uiso   1.00
C229   C     0.85750   0.63024   0.25659   0.00000  Uiso   1.00
C230   C     0.91065   0.66506   0.25747   0.00000  Uiso   1.00
C231   C     0.91074   0.72849   0.25777   0.00000  Uiso   1.00
N232   N     0.85954   0.43407   0.21902   0.00000  Uiso   1.00
C233   C     0.91871   0.46804   0.20918   0.00000  Uiso   1.00
C234   C     0.91577   0.52765   0.27563   0.00000  Uiso   1.00
N235   N     0.85994   0.56285   0.24257   0.00000  Uiso   1.00
C236   C     0.80438   0.52779   0.27776   0.00000  Uiso   1.00
C237   C     0.80024   0.46799   0.21206   0.00000  Uiso   1.00
C238   C     0.09413   0.99993   0.25848   0.00000  Uiso   1.00
C239   C     0.12905   0.94681   0.25852   0.00000  Uiso   1.00
C240   C     0.19249   0.94666   0.25870   0.00000  Uiso   1.00
C241   C     0.22753   0.99977   0.25898   0.00000  Uiso   1.00
C242   C     0.19271   0.05292   0.25930   0.00000  Uiso   1.00
C243   C     0.12928   0.05301   0.25918   0.00000  Uiso   1.00
C244   C     0.48844   0.00018   0.25460   0.00000  Uiso   1.00
C245   C     0.52353   0.94697   0.25463   0.00000  Uiso   1.00
C246   C     0.58697   0.94704   0.25482   0.00000  Uiso   1.00
C247   C     0.62182   0.00026   0.25509   0.00000  Uiso   1.00
C248   C     0.58682   0.05330   0.25541   0.00000  Uiso   1.00
C249   C     0.52339   0.05317   0.25529   0.00000  Uiso   1.00
N250   N     0.42434   0.99927   0.21621   0.00000  Uiso   1.00
C251   C     0.39029   0.05835   0.20577   0.00000  Uiso   1.00
C252   C     0.33056   0.05544   0.27185   0.00000  Uiso   1.00
N253   N     0.29552   0.99948   0.23892   0.00000  Uiso   1.00
C254   C     0.33060   0.94405   0.27470   0.00000  Uiso   1.00
C255   C     0.39054   0.93990   0.20941   0.00000  Uiso   1.00
C256   C     0.19318   0.94625   0.25229   0.00000  Uiso   1.00
C257   C     0.22832   0.99930   0.25257   0.00000  Uiso   1.00
C258   C     0.19359   0.05251   0.25288   0.00000  Uiso   1.00
C259   C     0.74730   0.56561   0.25073   0.00000  Uiso   1.00
C260   C     0.29265   0.88708   0.27185   0.00000  Uiso   1.00
H261   H     0.73964   0.56608   0.15679   0.00000  Uiso   1.00
H262   H     0.30716   0.84718   0.21776   0.00000  Uiso   1.00
H263   H     0.75929   0.35806   0.25617   0.00000  Uiso   1.00
H264   H     0.76050   0.24572   0.25571   0.00000  Uiso   1.00
H265   H     0.95765   0.24796   0.25802   0.00000  Uiso   1.00
H266   H     0.95641   0.36039   0.25872   0.00000  Uiso   1.00
H267   H     0.99012   0.21700   0.25422   0.00000  Uiso   1.00
H268   H     0.72581   0.21733   0.25072   0.00000  Uiso   1.00
H269   H     0.64076   0.13236   0.24059   0.00000  Uiso   1.00
H270   H     0.64073   0.86792   0.24330   0.00000  Uiso   1.00
H271   H     0.72563   0.78288   0.25339   0.00000  Uiso   1.00
H272   H     0.07516   0.13196   0.24937   0.00000  Uiso   1.00
H273   H     0.98974   0.78274   0.25882   0.00000  Uiso   1.00
H274   H     0.07495   0.86759   0.25380   0.00000  Uiso   1.00
H275   H     0.75839   0.75191   0.25616   0.00000  Uiso   1.00
H276   H     0.75960   0.63956   0.25567   0.00000  Uiso   1.00
H277   H     0.95676   0.64180   0.25798   0.00000  Uiso   1.00
H278   H     0.95550   0.75425   0.25871   0.00000  Uiso   1.00
H279   H     0.95736   0.44833   0.15766   0.00000  Uiso   1.00
H280   H     0.95279   0.53899   0.33850   0.00000  Uiso   1.00
H281   H     0.76078   0.44810   0.16289   0.00000  Uiso   1.00
H282   H     0.50041   0.90079   0.25450   0.00000  Uiso   1.00
H283   H     0.61284   0.90234   0.25476   0.00000  Uiso   1.00
H284   H     0.60993   0.09949   0.25579   0.00000  Uiso   1.00
H285   H     0.49747   0.09784   0.25577   0.00000  Uiso   1.00
H286   H     0.41003   0.09694   0.15412   0.00000  Uiso   1.00
H287   H     0.31904   0.09257   0.33440   0.00000  Uiso   1.00
H288   H     0.41059   0.90038   0.16062   0.00000  Uiso   1.00
H289   H     0.75389   0.61398   0.28175   0.00000  Uiso   1.00
H290   H     0.70628   0.54466   0.29372   0.00000  Uiso   1.00
H291   H     0.24952   0.88401   0.32379   0.00000  Uiso   1.00
C292   C     0.14144   0.63019   0.75699   0.00000  Uiso   1.00
C293   C     0.19456   0.66512   0.75645   0.00000  Uiso   1.00
C294   C     0.19471   0.72856   0.75623   0.00000  Uiso   1.00
C295   C     0.14161   0.76360   0.75662   0.00000  Uiso   1.00
C296   C     0.08846   0.72878   0.75750   0.00000  Uiso   1.00
C297   C     0.08836   0.66536   0.75779   0.00000  Uiso   1.00
C298   C     0.30940   0.11873   0.74569   0.00000  Uiso   1.00
C299   C     0.26095   0.16726   0.75144   0.00000  Uiso   1.00
C300   C     0.20017   0.13368   0.75336   0.00000  Uiso   1.00
N301   N     0.20725   0.06509   0.74931   0.00000  Uiso   1.00
C302   C     0.27580   0.05793   0.74441   0.00000  Uiso   1.00
C303   C     0.31055   0.99960   0.74165   0.00000  Uiso   1.00
C304   C     0.14223   0.16838   0.75597   0.00000  Uiso   1.00
C305   C     0.97472   0.88141   0.75042   0.00000  Uiso   1.00
C306   C     0.02325   0.83288   0.75298   0.00000  Uiso   1.00
C307   C     0.08406   0.86636   0.75329   0.00000  Uiso   1.00
N308   N     0.07694   0.93496   0.75125   0.00000  Uiso   1.00
C309   C     0.00832   0.94216   0.74984   0.00000  Uiso   1.00
C310   C     0.14197   0.83153   0.75388   0.00000  Uiso   1.00
C311   C     0.97369   0.00021   0.75053   0.00000  Uiso   1.00
C312   C     0.02353   0.16736   0.75662   0.00000  Uiso   1.00
C313   C     0.97491   0.11894   0.75394   0.00000  Uiso   1.00
C314   C     0.00843   0.05808   0.75189   0.00000  Uiso   1.00
N315   N     0.07705   0.06516   0.75275   0.00000  Uiso   1.00
C316   C     0.08430   0.13372   0.75560   0.00000  Uiso   1.00
C317   C     0.26084   0.83256   0.74929   0.00000  Uiso   1.00
C318   C     0.30940   0.88107   0.74374   0.00000  Uiso   1.00
C319   C     0.27589   0.94193   0.74377   0.00000  Uiso   1.00
N320   N     0.20726   0.93476   0.74878   0.00000  Uiso   1.00
C321   C     0.20003   0.86612   0.75183   0.00000  Uiso   1.00
Cu322  Cu    0.14212   0.99996   0.75051   0.00000  Uiso   1.00
C323   C     0.14233   0.23635   0.75696   0.00000  Uiso   1.00
C324   C     0.19546   0.27128   0.75643   0.00000  Uiso   1.00
C325   C     0.19561   0.33472   0.75620   0.00000  Uiso   1.00
C326   C     0.14250   0.36976   0.75659   0.00000  Uiso   1.00
C327   C     0.08935   0.33494   0.75747   0.00000  Uiso   1.00
C328   C     0.08926   0.27151   0.75777   0.00000  Uiso   1.00
N329   N     0.14046   0.56593   0.71902   0.00000  Uiso   1.00
C330   C     0.08129   0.53196   0.70918   0.00000  Uiso   1.00
C331   C     0.08423   0.47235   0.77563   0.00000  Uiso   1.00
N332   N     0.14006   0.43715   0.74257   0.00000  Uiso   1.00
C333   C     0.19562   0.47221   0.77776   0.00000  Uiso   1.00
C334   C     0.19976   0.53201   0.71206   0.00000  Uiso   1.00
C335   C     0.90587   0.00007   0.75848   0.00000  Uiso   1.00
C336   C     0.87095   0.05319   0.75852   0.00000  Uiso   1.00
C337   C     0.80751   0.05334   0.75870   0.00000  Uiso   1.00
C338   C     0.77247   0.00023   0.75898   0.00000  Uiso   1.00
C339   C     0.80729   0.94708   0.75930   0.00000  Uiso   1.00
C340   C     0.87072   0.94699   0.75918   0.00000  Uiso   1.00
C341   C     0.51156   0.99982   0.75460   0.00000  Uiso   1.00
C342   C     0.47647   0.05303   0.75463   0.00000  Uiso   1.00
C343   C     0.41303   0.05296   0.75482   0.00000  Uiso   1.00
C344   C     0.37818   0.99974   0.75509   0.00000  Uiso   1.00
C345   C     0.41318   0.94670   0.75541   0.00000  Uiso   1.00
C346   C     0.47661   0.94683   0.75529   0.00000  Uiso   1.00
N347   N     0.57566   0.00073   0.71621   0.00000  Uiso   1.00
C348   C     0.60971   0.94165   0.70577   0.00000  Uiso   1.00
C349   C     0.66944   0.94456   0.77185   0.00000  Uiso   1.00
N350   N     0.70448   0.00052   0.73892   0.00000  Uiso   1.00
C351   C     0.66940   0.05595   0.77470   0.00000  Uiso   1.00
C352   C     0.60946   0.06010   0.70941   0.00000  Uiso   1.00
C353   C     0.80682   0.05375   0.75229   0.00000  Uiso   1.00
C354   C     0.77168   0.00070   0.75257   0.00000  Uiso   1.00
C355   C     0.80641   0.94749   0.75288   0.00000  Uiso   1.00
C356   C     0.25270   0.43439   0.75073   0.00000  Uiso   1.00
C357   C     0.70735   0.11292   0.77185   0.00000  Uiso   1.00
H358   H     0.26036   0.43392   0.65679   0.00000  Uiso   1.00
H359   H     0.69284   0.15282   0.71776   0.00000  Uiso   1.00
H360   H     0.24071   0.64194   0.75617   0.00000  Uiso   1.00
H361   H     0.23950   0.75428   0.75571   0.00000  Uiso   1.00
H362   H     0.04235   0.75204   0.75802   0.00000  Uiso   1.00
H363   H     0.04359   0.63961   0.75872   0.00000  Uiso   1.00
H364   H     0.00988   0.78300   0.75422   0.00000  Uiso   1.00
H365   H     0.27419   0.78267   0.75072   0.00000  Uiso   1.00
H366   H     0.35924   0.86764   0.74059   0.00000  Uiso   1.00
H367   H     0.35927   0.13208   0.74330   0.00000  Uiso   1.00
H368   H     0.27437   0.21712   0.75339   0.00000  Uiso   1.00
H369   H     0.92484   0.86804   0.74937   0.00000  Uiso   1.00
H370   H     0.01026   0.21726   0.75882   0.00000  Uiso   1.00
H371   H     0.92505   0.13241   0.75380   0.00000  Uiso   1.00
H372   H     0.24161   0.24809   0.75616   0.00000  Uiso   1.00
H373   H     0.24040   0.36044   0.75567   0.00000  Uiso   1.00
H374   H     0.04324   0.35820   0.75798   0.00000  Uiso   1.00
H375   H     0.04450   0.24575   0.75871   0.00000  Uiso   1.00
H376   H     0.04264   0.55167   0.65766   0.00000  Uiso   1.00
H377   H     0.04721   0.46101   0.83850   0.00000  Uiso   1.00
H378   H     0.23922   0.55190   0.66289   0.00000  Uiso   1.00
H379   H     0.49959   0.09921   0.75450   0.00000  Uiso   1.00
H380   H     0.38716   0.09766   0.75476   0.00000  Uiso   1.00
H381   H     0.39007   0.90051   0.75579   0.00000  Uiso   1.00
H382   H     0.50253   0.90216   0.75577   0.00000  Uiso   1.00
H383   H     0.58997   0.90306   0.65412   0.00000  Uiso   1.00
H384   H     0.68096   0.90743   0.83440   0.00000  Uiso   1.00
H385   H     0.58941   0.09962   0.66062   0.00000  Uiso   1.00
H386   H     0.24611   0.38602   0.78175   0.00000  Uiso   1.00
H387   H     0.29372   0.45534   0.79372   0.00000  Uiso   1.00
H388   H     0.75048   0.11599   0.82379   0.00000  Uiso   1.00
loop_
_geom_bond_atom_site_label_1
_geom_bond_atom_site_label_2
_geom_bond_distance
_geom_bond_site_symmetry_2
_ccdc_geom_bond_type
C1     C2      1.403   .     S
C1     C6      1.406   .     D
C1     N38     1.490   .     S
C2     C3      1.400   .     D
C2     H69     1.140   .     S
C3     C4      1.404   .     S
C3     H70     1.140   .     S
C4     C5      1.403   .     D
C4     C19     1.500   .     S
C5     C6      1.400   .     S
C5     H71     1.140   .     S
C6     H72     1.140   .     S
C7     C8      1.515   .     D
C7     C11     1.533   .     S
C7     H76     1.140   .     S
C8     C9      1.533   .     S
C8     H77     1.140   .     S
C9     N10     1.523   .     D
C9     C13     1.491   .     S
N10    C11     1.522   .     S
N10    Cu31    2.033   1_655 S
C11    C12     1.499   1_655 D
C12    C28     1.485   .     S
C12    C53     1.501   .     S
C12    C11     1.499   1_455 D
C13    C25     1.490   .     D
C13    C32     1.500   .     S
C14    H78     1.140   .     S
C14    C15     1.515   1_565 S
C14    C18     1.532   1_565 D
C15    C16     1.532   .     D
C15    H73     1.140   .     S
C15    C14     1.515   1_545 S
C16    N17     1.523   .     S
C16    C19     1.492   .     S
N17    C18     1.523   .     S
N17    Cu31    2.032   .     S
C18    C14     1.532   1_545 D
C18    C20     1.492   1_445 S
C19    C30     1.492   .     D
C20    C44     1.500   .     D
C20    C18     1.492   1_665 S
C20    C23     1.490   1_565 S
C21    C25     1.533   .     S
C21    H79     1.140   .     S
C21    C22     1.515   1_545 D
C22    H80     1.140   .     S
C22    C21     1.515   1_565 D
C22    C23     1.534   1_565 S
C23    N24     1.523   .     D
C23    C20     1.490   1_545 S
C23    C22     1.534   1_545 S
N24    C25     1.522   .     S
N24    Cu31    2.033   1_655 S
C26    C27     1.517   .     D
C26    C30     1.533   .     S
C26    H74     1.140   .     S
C27    C28     1.534   .     S
C27    H75     1.140   .     S
C28    N29     1.524   .     D
N29    C30     1.524   .     S
N29    Cu31    2.034   .     S
Cu31   N10     2.033   1_455 S
Cu31   N24     2.033   1_455 S
C32    C33     1.404   .     D
C32    C37     1.405   .     S
C33    C34     1.400   .     S
C33    H81     1.140   .     S
C34    C35     1.404   .     D
C34    H82     1.140   .     S
C35    C36     1.403   .     S
C35    N41     1.498   .     S
C36    C37     1.400   .     D
C36    H83     1.140   .     S
C37    H84     1.140   .     S
N38    C39     1.511   .     S
N38    C43     1.510   .     S
C39    C40     1.540   .     D
C39    H85     1.140   .     S
C40    N41     1.510   .     S
C40    H86     1.140   .     S
N41    C42     1.510   .     S
C42    C43     1.540   .     D
C42    C65     1.546   .     S
C43    H87     1.140   .     S
C44    C45     1.403   .     S
C44    C49     1.405   1_655 S
C45    C46     1.400   .     D
C45    C62     1.418   .     S
C46    C47     1.404   .     S
C46    C63     1.407   .     S
C47    N59     1.520   .     S
C47    C62     1.406   .     S
C47    C48     1.403   1_655 S
C47    C64     1.386   1_655 S
C48    C49     1.400   .     D
C48    C47     1.403   1_455 S
C48    C63     1.423   1_455 S
C49    C64     1.422   .     S
C49    C44     1.405   1_455 S
C50    C55     1.401   .     D
C50    C51     1.407   1_455 S
C50    N56     1.488   1_455 S
C51    C52     1.400   .     D
C51    H88     1.140   .     S
C51    C50     1.407   1_655 S
C52    H89     1.140   .     S
C52    C53     1.404   1_655 S
C53    C54     1.403   .     D
C53    C52     1.404   1_455 S
C54    C55     1.400   .     S
C54    H90     1.140   .     S
C55    H91     1.140   .     S
N56    C61     1.510   .     D
N56    C50     1.488   1_655 S
N56    C57     1.510   1_655 S
C57    C58     1.540   .     D
C57    H92     1.140   .     S
C57    N56     1.510   1_455 S
C58    H93     1.140   .     S
C58    N59     1.510   1_455 S
N59    C60     1.510   .     S
N59    C63     1.492   .     S
N59    C58     1.510   1_655 S
C60    C61     1.540   .     S
C60    C66     1.511   .     D
C61    H94     1.140   .     S
C62    C63     1.405   .     S
C63    C48     1.423   1_655 S
C63    C64     1.403   1_655 S
C64    C47     1.386   1_455 S
C64    C63     1.403   1_455 S
C65    H67     1.140   .     S
C65    H95     1.140   .     S
C65    H96     1.140   .     S
C66    H68     1.140   .     S
C66    H97     1.140   .     S
H82    H95     0.658   .     S
C98    C99     1.403   .     S
C98    C103    1.406   .     D
C98    N135    1.490   .     S
C99    C100    1.400   .     D
C99    H166    1.140   .     S
C100   C101    1.404   .     S
C100   H167    1.140   .     S
C101   C102    1.403   .     D
C101   C116    1.500   .     S
C102   C103    1.400   .     S
C102   H168    1.140   .     S
C103   H169    1.140   .     S
C104   C105    1.515   .     D
C104   C108    1.533   .     S
C104   H173    1.140   .     S
C105   C106    1.533   .     S
C105   H174    1.140   .     S
C106   N107    1.523   .     D
C106   C110    1.491   .     S
N107   C108    1.522   .     S
N107   Cu128   2.033   1_455 S
C108   C109    1.499   1_455 D
C109   C125    1.485   .     S
C109   C150    1.501   .     S
C109   C108    1.499   1_655 D
C110   C122    1.490   .     D
C110   C129    1.500   .     S
C111   H175    1.140   .     S
C111   C112    1.515   1_545 S
C111   C115    1.532   1_545 D
C112   C113    1.532   .     D
C112   H170    1.140   .     S
C112   C111    1.515   1_565 S
C113   N114    1.523   .     S
C113   C116    1.492   .     S
N114   C115    1.523   .     S
N114   Cu128   2.032   .     S
C115   C111    1.532   1_565 D
C115   C117    1.492   1_665 S
C116   C127    1.492   .     D
C117   C141    1.500   .     D
C117   C115    1.492   1_445 S
C117   C120    1.490   1_545 S
C118   C122    1.533   .     S
C118   H176    1.140   .     S
C118   C119    1.515   1_565 D
C119   H177    1.140   .     S
C119   C118    1.515   1_545 D
C119   C120    1.534   1_545 S
C120   N121    1.523   .     D
C120   C117    1.490   1_565 S
C120   C119    1.534   1_565 S
N121   C122    1.522   .     S
N121   Cu128   2.033   1_455 S
C123   C124    1.517   .     D
C123   C127    1.533   .     S
C123   H171    1.140   .     S
C124   C125    1.534   .     S
C124   H172    1.140   .     S
C125   N126    1.524   .     D
N126   C127    1.524   .     S
N126   Cu128   2.034   .     S
Cu128  N107    2.033   1_655 S
Cu128  N121    2.033   1_655 S
C129   C130    1.404   .     D
C129   C134    1.405   .     S
C130   C131    1.400   .     S
C130   H178    1.140   .     S
C131   C132    1.404   .     D
C131   H179    1.140   .     S
C132   C133    1.403   .     S
C132   N138    1.498   .     S
C133   C134    1.400   .     D
C133   H180    1.140   .     S
C134   H181    1.140   .     S
N135   C136    1.511   .     S
N135   C140    1.510   .     S
C136   C137    1.540   .     D
C136   H182    1.140   .     S
C137   N138    1.510   .     S
C137   H183    1.140   .     S
N138   C139    1.510   .     S
C139   C140    1.540   .     D
C139   C162    1.546   .     S
C140   H184    1.140   .     S
C141   C142    1.403   .     S
C141   C146    1.405   1_455 S
C142   C143    1.400   .     D
C142   C159    1.418   .     S
C143   C144    1.404   .     S
C143   C160    1.407   .     S
C144   N156    1.520   .     S
C144   C159    1.406   .     S
C144   C145    1.403   1_455 S
C144   C161    1.386   1_455 S
C145   C146    1.400   .     D
C145   C144    1.403   1_655 S
C145   C160    1.423   1_655 S
C146   C161    1.422   .     S
C146   C141    1.405   1_655 S
C147   C152    1.401   .     D
C147   C148    1.407   1_655 S
C147   N153    1.488   1_655 S
C148   C149    1.400   .     D
C148   H185    1.140   .     S
C148   C147    1.407   1_455 S
C149   H186    1.140   .     S
C149   C150    1.404   1_455 S
C150   C151    1.403   .     D
C150   C149    1.404   1_655 S
C151   C152    1.400   .     S
C151   H187    1.140   .     S
C152   H188    1.140   .     S
N153   C158    1.510   .     D
N153   C147    1.488   1_455 S
N153   C154    1.510   1_455 S
C154   C155    1.540   .     D
C154   H189    1.140   .     S
C154   N153    1.510   1_655 S
C155   H190    1.140   .     S
C155   N156    1.510   1_655 S
N156   C157    1.510   .     S
N156   C160    1.492   .     S
N156   C155    1.510   1_455 S
C157   C158    1.540   .     S
C157   C163    1.511   .     D
C158   H191    1.140   .     S
C159   C160    1.405   .     S
C160   C145    1.423   1_455 S
C160   C161    1.403   1_455 S
C161   C144    1.386   1_655 S
C161   C160    1.403   1_655 S
C162   H164    1.140   .     S
C162   H192    1.140   .     S
C162   H193    1.140   .     S
C163   H165    1.140   .     S
C163   H194    1.140   .     S
H179   H192    0.658   .     S
C195   C196    1.403   .     S
C195   C200    1.406   .     D
C195   N232    1.490   .     S
C196   C197    1.400   .     D
C196   H263    1.140   .     S
C197   C198    1.404   .     S
C197   H264    1.140   .     S
C198   C199    1.403   .     D
C198   C213    1.500   .     S
C199   C200    1.400   .     S
C199   H265    1.140   .     S
C200   H266    1.140   .     S
C201   C202    1.515   .     D
C201   C205    1.533   .     S
C201   H270    1.140   .     S
C202   C203    1.533   .     S
C202   H271    1.140   .     S
C203   N204    1.523   .     D
C203   C207    1.491   .     S
N204   C205    1.522   .     S
N204   Cu225   2.033   1_565 S
C205   C206    1.499   1_565 D
C206   C222    1.485   .     S
C206   C247    1.501   .     S
C206   C205    1.499   1_545 D
C207   C219    1.490   .     D
C207   C226    1.500   .     S
C208   H272    1.140   .     S
C208   C209    1.515   1_455 S
C208   C212    1.532   1_455 D
C209   C210    1.532   .     D
C209   H267    1.140   .     S
C209   C208    1.515   1_655 S
C210   N211    1.523   .     S
C210   C213    1.492   .     S
N211   C212    1.523   .     S
N211   Cu225   2.032   .     S
C212   C208    1.532   1_655 D
C212   C214    1.492   1_645 S
C213   C224    1.492   .     D
C214   C238    1.500   .     D
C214   C212    1.492   1_465 S
C214   C217    1.490   1_455 S
C215   C219    1.533   .     S
C215   H273    1.140   .     S
C215   C216    1.515   1_655 D
C216   H274    1.140   .     S
C216   C215    1.515   1_455 D
C216   C217    1.534   1_455 S
C217   N218    1.523   .     D
C217   C214    1.490   1_655 S
C217   C216    1.534   1_655 S
N218   C219    1.522   .     S
N218   Cu225   2.033   1_565 S
C220   C221    1.517   .     D
C220   C224    1.533   .     S
C220   H268    1.140   .     S
C221   C222    1.534   .     S
C221   H269    1.140   .     S
C222   N223    1.524   .     D
N223   C224    1.524   .     S
N223   Cu225   2.034   .     S
Cu225  N204    2.033   1_545 S
Cu225  N218    2.033   1_545 S
C226   C227    1.404   .     D
C226   C231    1.405   .     S
C227   C228    1.400   .     S
C227   H275    1.140   .     S
C228   C229    1.404   .     D
C228   H276    1.140   .     S
C229   C230    1.403   .     S
C229   N235    1.498   .     S
C230   C231    1.400   .     D
C230   H277    1.140   .     S
C231   H278    1.140   .     S
N232   C233    1.511   .     S
N232   C237    1.510   .     S
C233   C234    1.540   .     D
C233   H279    1.140   .     S
C234   N235    1.510   .     S
C234   H280    1.140   .     S
N235   C236    1.510   .     S
C236   C237    1.540   .     D
C236   C259    1.546   .     S
C237   H281    1.140   .     S
C238   C239    1.403   .     S
C238   C243    1.405   1_565 S
C239   C240    1.400   .     D
C239   C256    1.418   .     S
C240   C241    1.404   .     S
C240   C257    1.407   .     S
C241   N253    1.520   .     S
C241   C256    1.406   .     S
C241   C242    1.403   1_565 S
C241   C258    1.386   1_565 S
C242   C243    1.400   .     D
C242   C241    1.403   1_545 S
C242   C257    1.423   1_545 S
C243   C258    1.422   .     S
C243   C238    1.405   1_545 S
C244   C249    1.401   .     D
C244   C245    1.407   1_545 S
C244   N250    1.488   1_545 S
C245   C246    1.400   .     D
C245   H282    1.140   .     S
C245   C244    1.407   1_565 S
C246   H283    1.140   .     S
C246   C247    1.404   1_565 S
C247   C248    1.403   .     D
C247   C246    1.404   1_545 S
C248   C249    1.400   .     S
C248   H284    1.140   .     S
C249   H285    1.140   .     S
N250   C255    1.510   .     D
N250   C244    1.488   1_565 S
N250   C251    1.510   1_565 S
C251   C252    1.540   .     D
C251   H286    1.140   .     S
C251   N250    1.510   1_545 S
C252   H287    1.140   .     S
C252   N253    1.510   1_545 S
N253   C254    1.510   .     S
N253   C257    1.492   .     S
N253   C252    1.510   1_565 S
C254   C255    1.540   .     S
C254   C260    1.511   .     D
C255   H288    1.140   .     S
C256   C257    1.405   .     S
C257   C242    1.423   1_565 S
C257   C258    1.403   1_565 S
C258   C241    1.386   1_545 S
C258   C257    1.403   1_545 S
C259   H261    1.140   .     S
C259   H289    1.140   .     S
C259   H290    1.140   .     S
C260   H262    1.140   .     S
C260   H291    1.140   .     S
H276   H289    0.658   .     S
C292   C293    1.403   .     S
C292   C297    1.406   .     D
C292   N329    1.490   .     S
C293   C294    1.400   .     D
C293   H360    1.140   .     S
C294   C295    1.404   .     S
C294   H361    1.140   .     S
C295   C296    1.403   .     D
C295   C310    1.500   .     S
C296   C297    1.400   .     S
C296   H362    1.140   .     S
C297   H363    1.140   .     S
C298   C299    1.515   .     D
C298   C302    1.533   .     S
C298   H367    1.140   .     S
C299   C300    1.533   .     S
C299   H368    1.140   .     S
C300   N301    1.523   .     D
C300   C304    1.491   .     S
N301   C302    1.522   .     S
N301   Cu322   2.033   1_545 S
C302   C303    1.499   1_545 D
C303   C319    1.485   .     S
C303   C344    1.501   .     S
C303   C302    1.499   1_565 D
C304   C316    1.490   .     D
C304   C323    1.500   .     S
C305   H369    1.140   .     S
C305   C306    1.515   1_655 S
C305   C309    1.532   1_655 D
C306   C307    1.532   .     D
C306   H364    1.140   .     S
C306   C305    1.515   1_455 S
C307   N308    1.523   .     S
C307   C310    1.492   .     S
N308   C309    1.523   .     S
N308   Cu322   2.032   .     S
C309   C305    1.532   1_455 D
C309   C311    1.492   1_465 S
C310   C321    1.492   .     D
C311   C335    1.500   .     D
C311   C309    1.492   1_645 S
C311   C314    1.490   1_655 S
C312   C316    1.533   .     S
C312   H370    1.140   .     S
C312   C313    1.515   1_455 D
C313   H371    1.140   .     S
C313   C312    1.515   1_655 D
C313   C314    1.534   1_655 S
C314   N315    1.523   .     D
C314   C311    1.490   1_455 S
C314   C313    1.534   1_455 S
N315   C316    1.522   .     S
N315   Cu322   2.033   1_545 S
C317   C318    1.517   .     D
C317   C321    1.533   .     S
C317   H365    1.140   .     S
C318   C319    1.534   .     S
C318   H366    1.140   .     S
C319   N320    1.524   .     D
N320   C321    1.524   .     S
N320   Cu322   2.034   .     S
Cu322  N301    2.033   1_565 S
Cu322  N315    2.033   1_565 S
C323   C324    1.404   .     D
C323   C328    1.405   .     S
C324   C325    1.400   .     S
C324   H372    1.140   .     S
C325   C326    1.404   .     D
C325   H373    1.140   .     S
C326   C327    1.403   .     S
C326   N332    1.498   .     S
C327   C328    1.400   .     D
C327   H374    1.140   .     S
C328   H375    1.140   .     S
N329   C330    1.511   .     S
N329   C334    1.510   .     S
C330   C331    1.540   .     D
C330   H376    1.140   .     S
C331   N332    1.510   .     S
C331   H377    1.140   .     S
N332   C333    1.510   .     S
C333   C334    1.540   .     D
C333   C356    1.546   .     S
C334   H378    1.140   .     S
C335   C336    1.403   .     S
C335   C340    1.405   1_545 S
C336   C337    1.400   .     D
C336   C353    1.418   .     S
C337   C338    1.404   .     S
C337   C354    1.407   .     S
C338   N350    1.520   .     S
C338   C353    1.406   .     S
C338   C339    1.403   1_545 S
C338   C355    1.386   1_545 S
C339   C340    1.400   .     D
C339   C338    1.403   1_565 S
C339   C354    1.423   1_565 S
C340   C355    1.422   .     S
C340   C335    1.405   1_565 S
C341   C346    1.401   .     D
C341   C342    1.407   1_565 S
C341   N347    1.488   1_565 S
C342   C343    1.400   .     D
C342   H379    1.140   .     S
C342   C341    1.407   1_545 S
C343   H380    1.140   .     S
C343   C344    1.404   1_545 S
C344   C345    1.403   .     D
C344   C343    1.404   1_565 S
C345   C346    1.400   .     S
C345   H381    1.140   .     S
C346   H382    1.140   .     S
N347   C352    1.510   .     D
N347   C341    1.488   1_545 S
N347   C348    1.510   1_545 S
C348   C349    1.540   .     D
C348   H383    1.140   .     S
C348   N347    1.510   1_565 S
C349   H384    1.140   .     S
C349   N350    1.510   1_565 S
N350   C351    1.510   .     S
N350   C354    1.492   .     S
N350   C349    1.510   1_545 S
C351   C352    1.540   .     S
C351   C357    1.511   .     D
C352   H385    1.140   .     S
C353   C354    1.405   .     S
C354   C339    1.423   1_545 S
C354   C355    1.403   1_545 S
C355   C338    1.386   1_565 S
C355   C354    1.403   1_565 S
C356   H358    1.140   .     S
C356   H386    1.140   .     S
C356   H387    1.140   .     S
C357   H359    1.140   .     S
C357   H388    1.140   .     S
H373   H386    0.658   .     S
