data_799
_audit_creation_date              2023-09-08
_audit_creation_method            'Materials Studio'
_symmetry_space_group_name_H-M    'P1'
_symmetry_Int_Tables_number       1
_symmetry_cell_setting            triclinic
loop_
_symmetry_equiv_pos_as_xyz
  x,y,z
_cell_length_a                    42.3100
_cell_length_b                    38.5000
_cell_length_c                    7.7700
_cell_angle_alpha                 81.9400
_cell_angle_beta                  99.6500
_cell_angle_gamma                 91.0500
loop_
_atom_site_label
_atom_site_type_symbol
_atom_site_fract_x
_atom_site_fract_y
_atom_site_fract_z
_atom_site_U_iso_or_equiv
_atom_site_adp_type
_atom_site_occupancy
C11    C     0.25877   0.47437   0.94364   0.00000  Uiso   1.00
C22    C     0.28784   0.45595   0.97841   0.00000  Uiso   1.00
C33    C     0.28871   0.41928   0.97736   0.00000  Uiso   1.00
C44    C     0.25946   0.39720   0.97068   0.00000  Uiso   1.00
C55    C     0.23967   0.39731   1.09873   0.00000  Uiso   1.00
C66    C     0.21254   0.37602   1.09548   0.00000  Uiso   1.00
C77    C     0.20517   0.35354   0.96765   0.00000  Uiso   1.00
C88    C     0.22513   0.35310   0.84007   0.00000  Uiso   1.00
C99    C     0.25210   0.37471   0.84214   0.00000  Uiso   1.00
C1010  C    -0.16089   0.03546   0.87947   0.00000  Uiso   1.00
C1111  C    -0.16321   0.07235   0.85482   0.00000  Uiso   1.00
C1212  C    -0.13368   0.01869   0.84895   0.00000  Uiso   1.00
C1313  C    -0.13470   0.09456   0.84179   0.00000  Uiso   1.00
C1414  C    -0.12460   0.10533   0.67996   0.00000  Uiso   1.00
C1515  C    -0.09701   0.12587   0.67394   0.00000  Uiso   1.00
C1616  C    -0.07969   0.13628   0.82858   0.00000  Uiso   1.00
C1717  C    -0.08983   0.12487   0.99067   0.00000  Uiso   1.00
C1818  C    -0.11716   0.10433   0.99663   0.00000  Uiso   1.00
N1919  N    -0.05124   0.15699   0.81876   0.00000  Uiso   1.00
C2020  C    -0.00852   0.19552   0.92357   0.00000  Uiso   1.00
C2121  C     0.00852   0.19325   0.78511   0.00000  Uiso   1.00
C2222  C     0.03773   0.21069   0.78050   0.00000  Uiso   1.00
C2323  C     0.05053   0.23042   0.91482   0.00000  Uiso   1.00
C2424  C     0.03333   0.23274   1.05249   0.00000  Uiso   1.00
C2525  C     0.00411   0.21547   1.05667   0.00000  Uiso   1.00
C2626  C     0.08150   0.24902   0.91082   0.00000  Uiso   1.00
C2727  C     0.10854   0.23271   0.87366   0.00000  Uiso   1.00
C2828  C     0.13720   0.25020   0.87056   0.00000  Uiso   1.00
C2929  C     0.14072   0.28495   0.90604   0.00000  Uiso   1.00
C3030  C     0.11385   0.30170   0.94386   0.00000  Uiso   1.00
C3131  C     0.08462   0.28395   0.94617   0.00000  Uiso   1.00
N3232  N     0.17658   0.33285   0.96676   0.00000  Uiso   1.00
C3333  C    -0.03903   0.17688   0.93485   0.00000  Uiso   1.00
C3434  C     0.17167   0.30333   0.90340   0.00000  Uiso   1.00
H3535  H     0.23613   0.46141   0.90969   0.00000  Uiso   1.00
H3636  H     0.24522   0.41400   1.20095   0.00000  Uiso   1.00
H3737  H     0.19733   0.37673   1.19403   0.00000  Uiso   1.00
H3838  H     0.21960   0.33675   0.73665   0.00000  Uiso   1.00
H3939  H     0.26711   0.37416   0.74253   0.00000  Uiso   1.00
H4040  H    -0.11412   0.03335   0.80095   0.00000  Uiso   1.00
H4141  H    -0.13787   0.09758   0.55970   0.00000  Uiso   1.00
H4242  H    -0.08923   0.13387   0.54858   0.00000  Uiso   1.00
H4343  H    -0.07640   0.13094   1.11370   0.00000  Uiso   1.00
H4444  H    -0.12454   0.09572   1.12269   0.00000  Uiso   1.00
H4545  H    -0.00067   0.17806   0.68058   0.00000  Uiso   1.00
H4646  H     0.05016   0.20900   0.67098   0.00000  Uiso   1.00
H4747  H    -0.05107   0.18017   1.04397   0.00000  Uiso   1.00
H4848  H     0.19059   0.29126   0.85395   0.00000  Uiso   1.00
C4949  C    -0.18603   0.01485   0.93640   0.00000  Uiso   1.00
C5050  C    -0.19139   0.08887   0.87063   0.00000  Uiso   1.00
H5151  H    -0.19251   0.11571   0.84765   0.00000  Uiso   1.00
C5252  C     0.37471   0.47597   1.07196   0.00000  Uiso   1.00
C5353  C     0.34661   0.45704   1.02948   0.00000  Uiso   1.00
C5454  C     0.34732   0.42065   1.01348   0.00000  Uiso   1.00
C5555  C     0.31816   0.40259   0.98827   0.00000  Uiso   1.00
C5656  C     0.37745   0.40032   1.01877   0.00000  Uiso   1.00
C5757  C     0.40174   0.41398   0.92612   0.00000  Uiso   1.00
C5858  C     0.42905   0.39414   0.92570   0.00000  Uiso   1.00
C5959  C     0.43244   0.35978   1.01339   0.00000  Uiso   1.00
C6060  C     0.40794   0.34564   1.10396   0.00000  Uiso   1.00
C6161  C     0.38092   0.36571   1.10641   0.00000  Uiso   1.00
C6262  C     0.78430   0.03185   0.96616   0.00000  Uiso   1.00
C6363  C     0.78120   0.06885   0.92873   0.00000  Uiso   1.00
C6464  C     0.76126   0.01047   1.03723   0.00000  Uiso   1.00
C6565  C     0.75267   0.08941   0.94893   0.00000  Uiso   1.00
C6666  C     0.72111   0.07865   0.89332   0.00000  Uiso   1.00
C6767  C     0.69495   0.09932   0.90455   0.00000  Uiso   1.00
C6868  C     0.69965   0.13170   0.96643   0.00000  Uiso   1.00
C6969  C     0.73103   0.14257   1.02453   0.00000  Uiso   1.00
C7070  C     0.75716   0.12176   1.01451   0.00000  Uiso   1.00
N7171  N     0.67199   0.15232   0.97077   0.00000  Uiso   1.00
C7272  C     0.64156   0.20381   0.98747   0.00000  Uiso   1.00
C7373  C     0.61160   0.18708   0.96938   0.00000  Uiso   1.00
C7474  C     0.58406   0.20447   0.98156   0.00000  Uiso   1.00
C7575  C     0.58473   0.23959   1.01223   0.00000  Uiso   1.00
C7676  C     0.61438   0.25708   1.02315   0.00000  Uiso   1.00
C7777  C     0.64250   0.23930   1.01249   0.00000  Uiso   1.00
C7878  C     0.55521   0.25790   1.03135   0.00000  Uiso   1.00
C7979  C     0.53351   0.24089   1.13319   0.00000  Uiso   1.00
C8080  C     0.50552   0.25780   1.14979   0.00000  Uiso   1.00
C8181  C     0.49861   0.29208   1.06535   0.00000  Uiso   1.00
C8282  C     0.52048   0.30944   0.96566   0.00000  Uiso   1.00
C8383  C     0.54859   0.29251   0.94945   0.00000  Uiso   1.00
N8484  N     0.46084   0.34044   1.00548   0.00000  Uiso   1.00
C8585  C     0.67165   0.18572   0.98013   0.00000  Uiso   1.00
C8686  C     0.46866   0.30903   1.08486   0.00000  Uiso   1.00
H8787  H     0.39787   0.46334   1.10967   0.00000  Uiso   1.00
H8888  H     0.39962   0.44006   0.85326   0.00000  Uiso   1.00
H8989  H     0.44759   0.40552   0.85521   0.00000  Uiso   1.00
H9090  H     0.40909   0.31926   1.17295   0.00000  Uiso   1.00
H9191  H     0.36264   0.35396   1.17773   0.00000  Uiso   1.00
H9292  H     0.74124   0.02130   1.08179   0.00000  Uiso   1.00
H9393  H     0.71642   0.05468   0.83678   0.00000  Uiso   1.00
H9494  H     0.67089   0.09064   0.85884   0.00000  Uiso   1.00
H9595  H     0.73560   0.16658   1.08158   0.00000  Uiso   1.00
H9696  H     0.78097   0.13062   1.06349   0.00000  Uiso   1.00
H9797  H     0.61597   0.28436   1.04282   0.00000  Uiso   1.00
H9898  H     0.66503   0.25330   1.02479   0.00000  Uiso   1.00
H9999  H     0.51588   0.33600   0.89989   0.00000  Uiso   1.00
H100100 H     0.56488   0.30625   0.87027   0.00000  Uiso   1.00
H101101 H     0.69339   0.20100   0.98177   0.00000  Uiso   1.00
H102102 H     0.45362   0.29454   1.16873   0.00000  Uiso   1.00
C103103 C    -0.18218   0.97590   0.97730   0.00000  Uiso   1.00
C104104 C     0.37385   0.51391   1.07316   0.00000  Uiso   1.00
C105105 C     0.34472   0.53222   1.04664   0.00000  Uiso   1.00
C106106 C     0.34386   0.56881   1.04841   0.00000  Uiso   1.00
C107107 C     0.31445   0.58600   1.02506   0.00000  Uiso   1.00
C108108 C     0.37314   0.59065   1.06729   0.00000  Uiso   1.00
C109109 C     0.39598   0.58578   1.22176   0.00000  Uiso   1.00
C110110 C     0.42442   0.60501   1.23334   0.00000  Uiso   1.00
C111111 C     0.42952   0.63071   1.09458   0.00000  Uiso   1.00
C112112 C     0.40589   0.63696   0.94342   0.00000  Uiso   1.00
C113113 C     0.37796   0.61692   0.92961   0.00000  Uiso   1.00
C114114 C     0.79063   0.95467   1.03252   0.00000  Uiso   1.00
C115115 C     0.79257   0.91777   1.05174   0.00000  Uiso   1.00
C116116 C     0.76333   0.97210   1.05807   0.00000  Uiso   1.00
C117117 C     0.76462   0.89478   1.07463   0.00000  Uiso   1.00
C118118 C     0.74956   0.89355   1.22321   0.00000  Uiso   1.00
C119119 C     0.72198   0.87338   1.23536   0.00000  Uiso   1.00
C120120 C     0.71010   0.85281   1.10404   0.00000  Uiso   1.00
C121121 C     0.72598   0.85283   0.95913   0.00000  Uiso   1.00
C122122 C     0.75292   0.87380   0.94424   0.00000  Uiso   1.00
N123123 N     0.68096   0.83362   1.11477   0.00000  Uiso   1.00
C124124 C     0.64520   0.78487   1.07606   0.00000  Uiso   1.00
C125125 C     0.61648   0.80418   1.03763   0.00000  Uiso   1.00
C126126 C     0.58705   0.78698   1.03404   0.00000  Uiso   1.00
C127127 C     0.58575   0.75020   1.07348   0.00000  Uiso   1.00
C128128 C     0.61475   0.73114   1.11700   0.00000  Uiso   1.00
C129129 C     0.64411   0.74827   1.11455   0.00000  Uiso   1.00
C130130 C     0.55426   0.73208   1.07078   0.00000  Uiso   1.00
C131131 C     0.52865   0.74783   1.12760   0.00000  Uiso   1.00
C132132 C     0.49859   0.73159   1.12068   0.00000  Uiso   1.00
C133133 C     0.49367   0.69872   1.06283   0.00000  Uiso   1.00
C134134 C     0.51921   0.68305   1.00768   0.00000  Uiso   1.00
C135135 C     0.54849   0.69943   1.00924   0.00000  Uiso   1.00
N136136 N     0.45951   0.64879   1.10481   0.00000  Uiso   1.00
C137137 C     0.67631   0.80237   1.07100   0.00000  Uiso   1.00
C138138 C     0.46197   0.68219   1.05533   0.00000  Uiso   1.00
H139139 H     0.39670   0.52692   1.09502   0.00000  Uiso   1.00
H140140 H     0.39193   0.56659   1.33118   0.00000  Uiso   1.00
H141141 H     0.44236   0.60015   1.35101   0.00000  Uiso   1.00
H142142 H     0.40958   0.65648   0.83411   0.00000  Uiso   1.00
H143143 H     0.36028   0.62152   0.81053   0.00000  Uiso   1.00
H144144 H     0.74391   0.95865   1.09384   0.00000  Uiso   1.00
H145145 H     0.75861   0.90895   1.32696   0.00000  Uiso   1.00
H146146 H     0.70992   0.87362   1.34751   0.00000  Uiso   1.00
H147147 H     0.71693   0.83756   0.85477   0.00000  Uiso   1.00
H148148 H     0.76433   0.87423   0.82907   0.00000  Uiso   1.00
H149149 H     0.61674   0.83248   1.00542   0.00000  Uiso   1.00
H150150 H     0.56527   0.80252   0.99764   0.00000  Uiso   1.00
H151151 H     0.69572   0.78822   1.03633   0.00000  Uiso   1.00
H152152 H     0.44070   0.69858   1.01689   0.00000  Uiso   1.00
C153153 C     0.25803   0.51262   0.93380   0.00000  Uiso   1.00
C154154 C     0.28579   0.53184   0.98066   0.00000  Uiso   1.00
C155155 C     0.28495   0.56873   0.98906   0.00000  Uiso   1.00
C156156 C     0.25475   0.59047   0.97080   0.00000  Uiso   1.00
C157157 C     0.22652   0.57669   1.02796   0.00000  Uiso   1.00
C158158 C     0.19967   0.59790   1.01774   0.00000  Uiso   1.00
C159159 C     0.20118   0.63405   0.96936   0.00000  Uiso   1.00
C160160 C     0.22927   0.64856   0.91744   0.00000  Uiso   1.00
C161161 C     0.25513   0.62694   0.91206   0.00000  Uiso   1.00
C162162 C    -0.15382   0.95939   0.95419   0.00000  Uiso   1.00
C163163 C    -0.15031   0.92225   0.99517   0.00000  Uiso   1.00
C164164 C    -0.13110   0.98037   0.87646   0.00000  Uiso   1.00
C165165 C    -0.12107   0.90377   1.00212   0.00000  Uiso   1.00
C166166 C    -0.09078   0.91820   1.05933   0.00000  Uiso   1.00
C167167 C    -0.06241   0.89981   1.06343   0.00000  Uiso   1.00
C168168 C    -0.06340   0.86589   1.01864   0.00000  Uiso   1.00
C169169 C    -0.09327   0.85078   0.96605   0.00000  Uiso   1.00
C170170 C    -0.12158   0.86935   0.95855   0.00000  Uiso   1.00
N171171 N    -0.03388   0.84766   1.02347   0.00000  Uiso   1.00
C172172 C    -0.00037   0.79621   1.04978   0.00000  Uiso   1.00
C173173 C     0.02466   0.81417   0.97783   0.00000  Uiso   1.00
C174174 C     0.05261   0.79628   0.96507   0.00000  Uiso   1.00
C175175 C     0.05670   0.76013   1.02827   0.00000  Uiso   1.00
C176176 C     0.03165   0.74300   1.10523   0.00000  Uiso   1.00
C177177 C     0.00397   0.76050   1.11377   0.00000  Uiso   1.00
C178178 C     0.08671   0.74149   1.01511   0.00000  Uiso   1.00
C179179 C     0.11629   0.75918   1.02647   0.00000  Uiso   1.00
C180180 C     0.14441   0.74184   1.01487   0.00000  Uiso   1.00
C181181 C     0.14369   0.70641   0.99188   0.00000  Uiso   1.00
C182182 C     0.11429   0.68869   0.97780   0.00000  Uiso   1.00
C183183 C     0.08612   0.70611   0.98742   0.00000  Uiso   1.00
N184184 N     0.17372   0.65491   0.97460   0.00000  Uiso   1.00
C185185 C    -0.03083   0.81374   1.05472   0.00000  Uiso   1.00
C186186 C     0.17370   0.68831   0.98425   0.00000  Uiso   1.00
H187187 H     0.23542   0.52516   0.87728   0.00000  Uiso   1.00
H188188 H     0.22535   0.55003   1.09155   0.00000  Uiso   1.00
H189189 H     0.17807   0.58639   1.05770   0.00000  Uiso   1.00
H190190 H     0.23109   0.67637   0.87480   0.00000  Uiso   1.00
H191191 H     0.27541   0.63925   0.86054   0.00000  Uiso   1.00
H192192 H    -0.11160   0.96918   0.82844   0.00000  Uiso   1.00
H193193 H    -0.08874   0.94346   1.10570   0.00000  Uiso   1.00
H194194 H    -0.03956   0.91168   1.10622   0.00000  Uiso   1.00
H195195 H    -0.09490   0.82500   0.92508   0.00000  Uiso   1.00
H196196 H    -0.14375   0.85706   0.90837   0.00000  Uiso   1.00
H197197 H     0.02246   0.84186   0.92844   0.00000  Uiso   1.00
H198198 H     0.07075   0.81086   0.90292   0.00000  Uiso   1.00
H199199 H     0.11292   0.66139   0.95773   0.00000  Uiso   1.00
H200200 H     0.06383   0.69192   0.96780   0.00000  Uiso   1.00
H201201 H    -0.05071   0.79764   1.08900   0.00000  Uiso   1.00
H202202 H     0.19580   0.70306   0.99466   0.00000  Uiso   1.00
C203203 C     0.82107   0.90176   1.03625   0.00000  Uiso   1.00
H204204 H     0.82226   0.87342   1.06316   0.00000  Uiso   1.00
C205205 C     0.31676   0.47480   1.00667   0.00000  Uiso   1.00
C206206 C     0.31569   0.51367   1.01413   0.00000  Uiso   1.00
C207207 C     0.22639   0.67497   0.50905   0.00000  Uiso   1.00
C208208 C     0.19688   0.69215   0.48878   0.00000  Uiso   1.00
C209209 C     0.19525   0.72819   0.50326   0.00000  Uiso   1.00
C210210 C     0.16570   0.74348   0.50652   0.00000  Uiso   1.00
C211211 C     0.22380   0.75104   0.50356   0.00000  Uiso   1.00
C212212 C     0.24041   0.75394   0.36047   0.00000  Uiso   1.00
C213213 C     0.26786   0.77450   0.36019   0.00000  Uiso   1.00
C214214 C     0.27878   0.79319   0.50020   0.00000  Uiso   1.00
C215215 C     0.26197   0.79069   0.64344   0.00000  Uiso   1.00
C216216 C     0.23451   0.76982   0.64436   0.00000  Uiso   1.00
C217217 C     0.64027   1.11537   0.43006   0.00000  Uiso   1.00
C218218 C     0.64022   1.07847   0.43131   0.00000  Uiso   1.00
C219219 C     0.61174   1.13429   0.41848   0.00000  Uiso   1.00
C220220 C     0.61236   1.05754   0.42128   0.00000  Uiso   1.00
C221221 C     0.58544   1.06566   0.28904   0.00000  Uiso   1.00
C222222 C     0.55807   1.04466   0.28424   0.00000  Uiso   1.00
C223223 C     0.55731   1.01464   0.40798   0.00000  Uiso   1.00
C224224 C     0.58448   1.00579   0.53713   0.00000  Uiso   1.00
C225225 C     0.61181   1.02664   0.54155   0.00000  Uiso   1.00
N226226 N     0.52814   0.99491   0.40535   0.00000  Uiso   1.00
C227227 C     0.49501   0.94458   0.47518   0.00000  Uiso   1.00
C228228 C     0.46547   0.96240   0.42204   0.00000  Uiso   1.00
C229229 C     0.43691   0.94548   0.43796   0.00000  Uiso   1.00
C230230 C     0.43612   0.90980   0.50590   0.00000  Uiso   1.00
C231231 C     0.46536   0.89140   0.55588   0.00000  Uiso   1.00
C232232 C     0.49450   0.90867   0.54168   0.00000  Uiso   1.00
C233233 C     0.40556   0.89169   0.52500   0.00000  Uiso   1.00
C234234 C     0.38408   0.90479   0.61998   0.00000  Uiso   1.00
C235235 C     0.35532   0.88737   0.63915   0.00000  Uiso   1.00
C236236 C     0.34744   0.85685   0.56190   0.00000  Uiso   1.00
C237237 C     0.36901   0.84378   0.46677   0.00000  Uiso   1.00
C238238 C     0.39793   0.86093   0.44977   0.00000  Uiso   1.00
N239239 N     0.30766   0.81312   0.49440   0.00000  Uiso   1.00
C240240 C     0.52627   0.96210   0.47013   0.00000  Uiso   1.00
C241241 C     0.31678   0.83902   0.58111   0.00000  Uiso   1.00
H242242 H     0.24879   0.68841   0.54228   0.00000  Uiso   1.00
H243243 H     0.23228   0.73986   0.25000   0.00000  Uiso   1.00
H244244 H     0.28070   0.77595   0.25007   0.00000  Uiso   1.00
H245245 H     0.27032   0.80395   0.75620   0.00000  Uiso   1.00
H246246 H     0.22199   0.76776   0.75608   0.00000  Uiso   1.00
H247247 H     0.58874   1.12173   0.41719   0.00000  Uiso   1.00
H248248 H     0.58571   1.08801   0.18811   0.00000  Uiso   1.00
H249249 H     0.53739   1.05173   0.18346   0.00000  Uiso   1.00
H250250 H     0.58445   0.98346   0.63841   0.00000  Uiso   1.00
H251251 H     0.63214   1.01940   0.64475   0.00000  Uiso   1.00
H252252 H     0.36363   0.82028   0.40577   0.00000  Uiso   1.00
H253253 H     0.41421   0.85041   0.37610   0.00000  Uiso   1.00
H254254 H     0.54784   0.94686   0.52327   0.00000  Uiso   1.00
H255255 H     0.30160   0.84867   0.66336   0.00000  Uiso   1.00
C256256 C    -0.32892   1.05990   0.45097   0.00000  Uiso   1.00
H257257 H    -0.33003   1.03245   0.43302   0.00000  Uiso   1.00
C258258 C     0.66985   1.13329   0.45493   0.00000  Uiso   1.00
C259259 C     0.11057   0.67012   0.39767   0.00000  Uiso   1.00
C260260 C     0.13828   0.68920   0.44783   0.00000  Uiso   1.00
C261261 C     0.13687   0.72471   0.47981   0.00000  Uiso   1.00
C262262 C     0.10627   0.74341   0.48597   0.00000  Uiso   1.00
C263263 C     0.08193   0.72670   0.56972   0.00000  Uiso   1.00
C264264 C     0.05372   0.74452   0.57592   0.00000  Uiso   1.00
C265265 C     0.04973   0.77991   0.50588   0.00000  Uiso   1.00
C266266 C     0.07405   0.79708   0.42442   0.00000  Uiso   1.00
C267267 C     0.10190   0.77906   0.41476   0.00000  Uiso   1.00
C268268 C    -0.29918   1.11368   0.47755   0.00000  Uiso   1.00
C269269 C    -0.29923   1.07685   0.47108   0.00000  Uiso   1.00
C270270 C    -0.27111   1.13224   0.52470   0.00000  Uiso   1.00
C271271 C    -0.27119   1.05602   0.48185   0.00000  Uiso   1.00
C272272 C    -0.24486   1.06871   0.40280   0.00000  Uiso   1.00
C273273 C    -0.21854   1.04727   0.40444   0.00000  Uiso   1.00
C274274 C    -0.21804   1.01218   0.48071   0.00000  Uiso   1.00
C275275 C    -0.24372   0.99921   0.56374   0.00000  Uiso   1.00
C276276 C    -0.26983   1.02074   0.56381   0.00000  Uiso   1.00
N277277 N    -0.19113   0.99081   0.47105   0.00000  Uiso   1.00
C278278 C    -0.16021   0.93796   0.49274   0.00000  Uiso   1.00
C279279 C    -0.13302   0.95609   0.44822   0.00000  Uiso   1.00
C280280 C    -0.10458   0.93802   0.45280   0.00000  Uiso   1.00
C281281 C    -0.10257   0.90143   0.50271   0.00000  Uiso   1.00
C282282 C    -0.13044   0.88320   0.53717   0.00000  Uiso   1.00
C283283 C    -0.15893   0.90133   0.53307   0.00000  Uiso   1.00
C284284 C    -0.07158   0.88243   0.51844   0.00000  Uiso   1.00
C285285 C    -0.04200   0.89712   0.58450   0.00000  Uiso   1.00
C286286 C    -0.01325   0.88031   0.58695   0.00000  Uiso   1.00
C287287 C    -0.01242   0.84750   0.52878   0.00000  Uiso   1.00
C288288 C    -0.04179   0.83159   0.47152   0.00000  Uiso   1.00
C289289 C    -0.07096   0.84893   0.46506   0.00000  Uiso   1.00
N290290 N     0.02047   0.79746   0.51407   0.00000  Uiso   1.00
N291291 N    -0.03924   0.92646   0.64809   0.00000  Uiso   1.00
S292292 S     0.00168   0.93668   0.71705   0.00000  Uiso   1.00
N293293 N     0.01205   0.89672   0.64951   0.00000  Uiso   1.00
C294294 C    -0.18965   0.95678   0.50295   0.00000  Uiso   1.00
C295295 C     0.01856   0.83068   0.52552   0.00000  Uiso   1.00
H296296 H     0.08724   0.68228   0.36444   0.00000  Uiso   1.00
H297297 H     0.08461   0.69973   0.63120   0.00000  Uiso   1.00
H298298 H     0.03518   0.73090   0.63908   0.00000  Uiso   1.00
H299299 H     0.07125   0.82417   0.36397   0.00000  Uiso   1.00
H300300 H     0.11987   0.79314   0.34929   0.00000  Uiso   1.00
H301301 H    -0.24826   1.11935   0.57172   0.00000  Uiso   1.00
H302302 H    -0.24497   1.09486   0.33319   0.00000  Uiso   1.00
H303303 H    -0.19891   1.05774   0.34001   0.00000  Uiso   1.00
H304304 H    -0.24382   0.97270   0.63104   0.00000  Uiso   1.00
H305305 H    -0.28866   1.00972   0.63318   0.00000  Uiso   1.00
H306306 H    -0.13350   0.98432   0.41269   0.00000  Uiso   1.00
H307307 H    -0.08419   0.95284   0.41624   0.00000  Uiso   1.00
H308308 H    -0.12997   0.85503   0.57459   0.00000  Uiso   1.00
H309309 H    -0.17978   0.88679   0.56596   0.00000  Uiso   1.00
H310310 H    -0.04224   0.80615   0.42701   0.00000  Uiso   1.00
H311311 H    -0.09296   0.83647   0.41311   0.00000  Uiso   1.00
H312312 H    -0.20984   0.94152   0.53839   0.00000  Uiso   1.00
H313313 H     0.04009   0.84640   0.53943   0.00000  Uiso   1.00
C314314 C     0.11220   0.63296   0.37809   0.00000  Uiso   1.00
C315315 C     0.14172   0.61565   0.40050   0.00000  Uiso   1.00
C316316 C     0.14321   0.57961   0.38888   0.00000  Uiso   1.00
C317317 C     0.11460   0.55699   0.38578   0.00000  Uiso   1.00
C318318 C     0.09521   0.55170   0.22691   0.00000  Uiso   1.00
C319319 C     0.06848   0.52969   0.22862   0.00000  Uiso   1.00
C320320 C     0.06106   0.51246   0.38830   0.00000  Uiso   1.00
C321321 C     0.08050   0.51831   0.54745   0.00000  Uiso   1.00
C322322 C     0.10707   0.54027   0.54560   0.00000  Uiso   1.00
C323323 C    -0.29990   0.18946   0.50539   0.00000  Uiso   1.00
C324324 C    -0.29956   0.22644   0.50796   0.00000  Uiso   1.00
C325325 C    -0.27140   0.17030   0.52007   0.00000  Uiso   1.00
C326326 C    -0.27109   0.24652   0.52908   0.00000  Uiso   1.00
C327327 C    -0.24541   0.23719   0.66807   0.00000  Uiso   1.00
C328328 C    -0.21751   0.25745   0.68421   0.00000  Uiso   1.00
C329329 C    -0.21507   0.28807   0.56640   0.00000  Uiso   1.00
C330330 C    -0.24098   0.29805   0.43070   0.00000  Uiso   1.00
C331331 C    -0.26869   0.27778   0.41367   0.00000  Uiso   1.00
N332332 N    -0.18551   0.30734   0.58080   0.00000  Uiso   1.00
C333333 C    -0.15171   0.35810   0.53040   0.00000  Uiso   1.00
C334334 C    -0.12281   0.33876   0.56949   0.00000  Uiso   1.00
C335335 C    -0.09329   0.35574   0.56131   0.00000  Uiso   1.00
C336336 C    -0.09203   0.39234   0.51233   0.00000  Uiso   1.00
C337337 C    -0.12100   0.41122   0.47681   0.00000  Uiso   1.00
C338338 C    -0.14990   0.39462   0.48640   0.00000  Uiso   1.00
C339339 C    -0.06085   0.41023   0.50544   0.00000  Uiso   1.00
C340340 C    -0.03568   0.40367   0.64850   0.00000  Uiso   1.00
C341341 C    -0.00679   0.42175   0.64766   0.00000  Uiso   1.00
C342342 C    -0.00226   0.44637   0.50279   0.00000  Uiso   1.00
C343343 C    -0.02705   0.45218   0.35663   0.00000  Uiso   1.00
C344344 C    -0.05616   0.43432   0.35832   0.00000  Uiso   1.00
N345345 N     0.03304   0.49060   0.38489   0.00000  Uiso   1.00
C346346 C    -0.18323   0.34071   0.52718   0.00000  Uiso   1.00
C347347 C     0.02811   0.46612   0.51085   0.00000  Uiso   1.00
H348348 H     0.08979   0.61958   0.34407   0.00000  Uiso   1.00
H349349 H     0.10075   0.56459   0.10251   0.00000  Uiso   1.00
H350350 H     0.05360   0.52582   0.10524   0.00000  Uiso   1.00
H351351 H     0.07508   0.50661   0.67384   0.00000  Uiso   1.00
H352352 H     0.12177   0.54442   0.66922   0.00000  Uiso   1.00
H353353 H    -0.24825   0.18262   0.52771   0.00000  Uiso   1.00
H354354 H    -0.24704   0.21444   0.76549   0.00000  Uiso   1.00
H355355 H    -0.19777   0.24939   0.78951   0.00000  Uiso   1.00
H356356 H    -0.23963   0.32094   0.33421   0.00000  Uiso   1.00
H357357 H    -0.28789   0.28588   0.30506   0.00000  Uiso   1.00
H358358 H    -0.12298   0.31053   0.60440   0.00000  Uiso   1.00
H359359 H    -0.07146   0.34024   0.59098   0.00000  Uiso   1.00
H360360 H    -0.02406   0.47067   0.24200   0.00000  Uiso   1.00
H361361 H    -0.07500   0.43925   0.24471   0.00000  Uiso   1.00
H362362 H    -0.20462   0.35639   0.47671   0.00000  Uiso   1.00
H363363 H     0.04627   0.45975   0.62639   0.00000  Uiso   1.00
C364364 C     0.22810   0.63710   0.50667   0.00000  Uiso   1.00
C365365 C     0.20061   0.61742   0.46050   0.00000  Uiso   1.00
C366366 C     0.20205   0.58098   0.44258   0.00000  Uiso   1.00
C367367 C     0.17284   0.56332   0.40295   0.00000  Uiso   1.00
C368368 C     0.23259   0.55981   0.46211   0.00000  Uiso   1.00
C369369 C     0.26080   0.57392   0.40600   0.00000  Uiso   1.00
C370370 C     0.28833   0.55330   0.42364   0.00000  Uiso   1.00
C371371 C     0.28775   0.51736   0.48186   0.00000  Uiso   1.00
C372372 C     0.25952   0.50254   0.53115   0.00000  Uiso   1.00
C373373 C     0.23275   0.52359   0.52544   0.00000  Uiso   1.00
C374374 C     0.63960   0.19086   0.45700   0.00000  Uiso   1.00
C375375 C     0.63978   0.22724   0.47019   0.00000  Uiso   1.00
C376376 C     0.61143   0.17236   0.41197   0.00000  Uiso   1.00
C377377 C     0.61212   0.24745   0.47647   0.00000  Uiso   1.00
C378378 C     0.58652   0.23302   0.55786   0.00000  Uiso   1.00
C379379 C     0.55976   0.25320   0.56432   0.00000  Uiso   1.00
C380380 C     0.55782   0.28855   0.49252   0.00000  Uiso   1.00
C381381 C     0.58371   0.30384   0.41817   0.00000  Uiso   1.00
C382382 C     0.61032   0.28361   0.41010   0.00000  Uiso   1.00
N383383 N     0.52950   0.30792   0.50047   0.00000  Uiso   1.00
C384384 C     0.49139   0.35588   0.43209   0.00000  Uiso   1.00
C385385 C     0.47001   0.33928   0.53718   0.00000  Uiso   1.00
C386386 C     0.44207   0.35649   0.55337   0.00000  Uiso   1.00
C387387 C     0.43502   0.39061   0.46527   0.00000  Uiso   1.00
C388388 C     0.45612   0.40672   0.35689   0.00000  Uiso   1.00
C389389 C     0.48405   0.38957   0.34108   0.00000  Uiso   1.00
C390390 C     0.40543   0.40910   0.48264   0.00000  Uiso   1.00
C391391 C     0.37623   0.39099   0.48461   0.00000  Uiso   1.00
C392392 C     0.34794   0.40883   0.49107   0.00000  Uiso   1.00
C393393 C     0.34825   0.44503   0.50047   0.00000  Uiso   1.00
C394394 C     0.37785   0.46245   0.50826   0.00000  Uiso   1.00
C395395 C     0.40555   0.44499   0.49883   0.00000  Uiso   1.00
N396396 N     0.31618   0.49700   0.48835   0.00000  Uiso   1.00
C397397 C     0.52115   0.33855   0.41289   0.00000  Uiso   1.00
C398398 C     0.31775   0.46305   0.50077   0.00000  Uiso   1.00
H399399 H     0.25128   0.62523   0.55418   0.00000  Uiso   1.00
H400400 H     0.26148   0.60044   0.33949   0.00000  Uiso   1.00
H401401 H     0.30990   0.56510   0.38448   0.00000  Uiso   1.00
H402402 H     0.25806   0.47497   0.57975   0.00000  Uiso   1.00
H403403 H     0.21225   0.51112   0.57408   0.00000  Uiso   1.00
H404404 H     0.58849   0.18527   0.36894   0.00000  Uiso   1.00
H405405 H     0.58733   0.20628   0.62207   0.00000  Uiso   1.00
H406406 H     0.54036   0.24117   0.62592   0.00000  Uiso   1.00
H407407 H     0.58387   0.33137   0.36659   0.00000  Uiso   1.00
H408408 H     0.62889   0.29649   0.34498   0.00000  Uiso   1.00
H409409 H     0.47482   0.31303   0.60677   0.00000  Uiso   1.00
H410410 H     0.42620   0.34324   0.63668   0.00000  Uiso   1.00
H411411 H     0.45073   0.43234   0.28120   0.00000  Uiso   1.00
H412412 H     0.49981   0.40256   0.25615   0.00000  Uiso   1.00
H413413 H     0.53534   0.35167   0.32006   0.00000  Uiso   1.00
H414414 H     0.29636   0.44726   0.50089   0.00000  Uiso   1.00
C415415 C    -0.32946   0.17157   0.47602   0.00000  Uiso   1.00
C416416 C    -0.32864   0.24477   0.48587   0.00000  Uiso   1.00
H417417 H    -0.32749   0.27233   0.50034   0.00000  Uiso   1.00
C418418 C     0.16844   0.67270   0.45925   0.00000  Uiso   1.00
C419419 C     0.17034   0.63463   0.43661   0.00000  Uiso   1.00
H420420 H     1.11531   1.32858  -0.02925   0.00000  Uiso   1.00
H421421 H     1.06436   1.29765  -0.02562   0.00000  Uiso   1.00
H422422 H     1.53179   0.77268   0.17808   0.00000  Uiso   1.00
H423423 H     1.47927   0.74452   0.16288   0.00000  Uiso   1.00
H424424 H     0.96133   1.38515   0.76301   0.00000  Uiso   1.00
H425425 H     1.01193   1.41687   0.76188   0.00000  Uiso   1.00
N426426 N     0.87638   1.44829   0.43551   0.00000  Uiso   1.00
S427427 S     0.83562   1.46236   0.40667   0.00000  Uiso   1.00
N428428 N     0.82337   1.41783   0.45142   0.00000  Uiso   1.00
H429429 H     1.38978   0.92825   0.68105   0.00000  Uiso   1.00
H430430 H     1.33918   0.89779   0.71390   0.00000  Uiso   1.00
H431431 H     1.16533   1.77068   0.52755   0.00000  Uiso   1.00
H432432 H     1.31512   1.61348   0.04079   0.00000  Uiso   1.00
H433433 H     1.17265   1.53608   0.38249   0.00000  Uiso   1.00
H434434 H     1.31820   1.37483  -0.02256   0.00000  Uiso   1.00
H435435 H     1.04271   1.24756   0.15834   0.00000  Uiso   1.00
H436436 H     0.99144   1.21747   0.16510   0.00000  Uiso   1.00
N437437 N     1.10982   1.19723  -0.15624   0.00000  Uiso   1.00
S438438 S     1.14870   1.18607  -0.19272   0.00000  Uiso   1.00
N439439 N     1.16217   1.22947  -0.16452   0.00000  Uiso   1.00
H440440 H     1.46570   0.86383   0.60901   0.00000  Uiso   1.00
H441441 H     1.51668   0.89398   0.58408   0.00000  Uiso   1.00
N442442 N     1.46166   0.99833   0.34914   0.00000  Uiso   1.00
S443443 S     1.42033   1.01072   0.29766   0.00000  Uiso   1.00
N444444 N     1.40939   0.96713   0.37687   0.00000  Uiso   1.00
H445445 H     1.32573   1.39428   0.48739   0.00000  Uiso   1.00
H446446 H     1.37505   1.36314   0.47734   0.00000  Uiso   1.00
N447447 N     1.38290   1.49790   0.53674   0.00000  Uiso   1.00
S448448 S     1.42436   1.50908   0.55584   0.00000  Uiso   1.00
N449449 N     1.43357   1.46587   0.52104   0.00000  Uiso   1.00
H450450 H     1.53836   1.21462   0.20224   0.00000  Uiso   1.00
H451451 H     1.48925   1.24408   0.22946   0.00000  Uiso   1.00
N452452 N     1.60603   1.15271  -0.07546   0.00000  Uiso   1.00
S453453 S     1.56431   1.14260  -0.10716   0.00000  Uiso   1.00
N454454 N     1.55566   1.18468  -0.05475   0.00000  Uiso   1.00
H455455 H     1.11798   0.78639   0.04701   0.00000  Uiso   1.00
H456456 H     1.16683   0.75606   0.02601   0.00000  Uiso   1.00
N457457 N     1.03230   0.70751   0.18600   0.00000  Uiso   1.00
S458458 S     0.99640   0.69594   0.27184   0.00000  Uiso   1.00
N459459 N     0.98154   0.73946   0.19810   0.00000  Uiso   1.00
H460460 H     1.61489   0.70301   0.15461   0.00000  Uiso   1.00
H461461 H     1.66608   0.73298   0.14560   0.00000  Uiso   1.00
N462462 N     1.51709   0.65114  -0.06542   0.00000  Uiso   1.00
S463463 S     1.55366   0.64170  -0.13586   0.00000  Uiso   1.00
N464464 N     1.57056   0.68120  -0.06538   0.00000  Uiso   1.00
loop_
_geom_bond_atom_site_label_1
_geom_bond_atom_site_label_2
_geom_bond_distance
_geom_bond_site_symmetry_2
_ccdc_geom_bond_type
C11    C22     1.398   .     D
C11    H3535   1.082   .     S
C11    C153153  1.465   .     S
C22    C33     1.414   .     S
C22    C205205  1.412   .     S
C33    C44     1.486   .     D
C33    C5555   1.397   .     S
C44    C55     1.404   .     S
C44    C99     1.404   .     S
C55    C66     1.397   .     D
C55    H3636   1.083   .     S
C66    C77     1.400   .     S
C66    H3737   1.083   .     S
C77    C88     1.408   .     S
C77    N3232   1.436   .     D
C88    C99     1.399   .     D
C88    H3838   1.082   .     S
C99    H3939   1.083   .     S
C1010  C1111   1.409   .     S
C1010  C1212   1.400   .     D
C1010  C4949   1.409   .     S
C1111  C1313   1.475   .     D
C1111  C5050   1.393   .     S
C1212  H4040   1.082   .     S
C1212  C164164  1.464   1_545 S
C1313  C1414   1.401   .     S
C1313  C1818   1.399   .     S
C1414  C1515   1.402   .     D
C1414  H4141   1.083   .     S
C1515  C1616   1.404   .     S
C1515  H4242   1.082   .     S
C1616  C1717   1.408   .     S
C1616  N1919   1.438   .     D
C1717  C1818   1.392   .     D
C1717  H4343   1.080   .     S
C1818  H4444   1.084   .     S
N1919  C3333   1.300   .     S
C2020  C2121   1.405   .     S
C2020  C2525   1.403   .     S
C2020  C3333   1.475   .     D
C2121  C2222   1.399   .     D
C2121  H4545   1.083   .     S
C2222  C2323   1.406   .     S
C2222  H4646   1.082   .     S
C2323  C2424   1.404   .     S
C2323  C2626   1.485   .     D
C2424  C2525   1.396   .     D
C2424  H435435  1.083   1_446 S
C2525  H436436  1.084   1_446 S
C2626  C2727   1.405   .     S
C2626  C3131   1.409   .     S
C2727  C2828   1.378   .     S
C2727  N437437  1.421   1_446 D
C2828  C2929   1.404   .     S
C2828  N439439  1.420   1_446 D
C2929  C3030   1.410   .     S
C2929  C3434   1.479   .     D
C3030  C3131   1.404   .     D
C3030  H420420  1.083   1_446 S
C3131  H421421  1.083   1_446 S
N3232  C3434   1.300   .     S
C3333  H4747   1.082   .     S
C3434  H4848   1.082   .     S
C4949  C6262   1.493   1_455 D
C4949  C103103  1.495   1_545 S
C5050  H5151   1.024   .     S
C5050  C6363   1.479   1_455 D
C5252  C5353   1.399   .     S
C5252  H8787   1.079   .     S
C5252  C104104  1.463   .     D
C5353  C5454   1.425   .     S
C5353  C205205  1.420   .     D
C5454  C5555   1.403   .     D
C5454  C5656   1.500   .     S
C5555  H434434  1.084   1_446 S
C5656  C5757   1.405   .     D
C5656  C6161   1.407   .     S
C5757  C5858   1.397   .     S
C5757  H8888   1.079   .     S
C5858  C5959   1.399   .     D
C5858  H8989   1.082   .     S
C5959  C6060   1.408   .     S
C5959  N8484   1.440   .     S
C6060  C6161   1.396   .     D
C6060  H9090   1.078   .     S
C6161  H9191   1.082   .     S
C6262  C6363   1.417   .     S
C6262  C6464   1.399   .     S
C6262  C4949   1.493   1_655 D
C6363  C6565   1.497   .     S
C6363  C5050   1.479   1_655 D
C6464  H9292   1.078   .     S
C6464  C116116  1.466   1_545 D
C6565  C6666   1.406   .     D
C6565  C7070   1.408   .     S
C6666  C6767   1.396   .     S
C6666  H9393   1.078   .     S
C6767  C6868   1.397   .     D
C6767  H9494   1.083   .     S
C6868  C6969   1.405   .     S
C6868  N7171   1.434   .     S
C6969  C7070   1.396   .     D
C6969  H9595   1.081   .     S
C7070  H9696   1.082   .     S
N7171  C8585   1.299   .     D
C7272  C7373   1.406   .     S
C7272  C7777   1.406   .     D
C7272  C8585   1.475   .     S
C7373  C7474   1.378   .     S
C7373  N452452  1.421   1_446 D
C7474  C7575   1.404   .     S
C7474  N454454  1.420   1_446 D
C7575  C7676   1.408   .     D
C7575  C7878   1.484   .     S
C7676  C7777   1.403   .     S
C7676  H9797   1.082   .     S
C7777  H9898   1.083   .     S
C7878  C7979   1.405   .     D
C7878  C8383   1.405   .     S
C7979  C8080   1.395   .     S
C7979  H450450  1.082   1_446 S
C8080  C8181   1.402   .     D
C8080  H451451  1.083   1_446 S
C8181  C8282   1.405   .     S
C8181  C8686   1.475   .     S
C8282  C8383   1.399   .     D
C8282  H9999   1.083   .     S
C8383  H100100  1.082   .     S
N8484  C8686   1.300   .     D
C8585  H101101  1.082   .     S
C8686  H102102  1.079   .     S
C103103 C162162  1.417   .     S
C103103 C4949   1.495   1_565 S
C103103 C114114  1.486   1_455 D
C104104 C105105  1.402   .     S
C104104 H139139  1.080   .     S
C105105 C106106  1.412   .     S
C105105 C206206  1.413   .     D
C106106 C107107  1.393   .     D
C106106 C108108  1.483   .     S
C107107 C155155  1.408   .     S
C107107 H432432  1.081   1_446 S
C108108 C109109  1.402   .     D
C108108 C113113  1.404   .     S
C109109 C110110  1.398   .     S
C109109 H140140  1.080   .     S
C110110 C111111  1.400   .     D
C110110 H141141  1.082   .     S
C111111 C112112  1.405   .     S
C111111 N136136  1.432   .     S
C112112 C113113  1.397   .     D
C112112 H142142  1.082   .     S
C113113 H143143  1.083   .     S
C114114 C115115  1.410   .     S
C114114 C116116  1.402   .     S
C114114 C103103  1.486   1_655 D
C115115 C117117  1.484   .     S
C115115 C203203  1.395   .     D
C116116 H144144  1.020   .     S
C116116 C6464   1.466   1_565 D
C117117 C118118  1.404   .     D
C117117 C122122  1.404   .     S
C118118 C119119  1.399   .     S
C118118 H145145  1.082   .     S
C119119 C120120  1.400   .     D
C119119 H146146  1.082   .     S
C120120 C121121  1.404   .     S
C120120 N123123  1.434   .     S
C121121 C122122  1.396   .     D
C121121 H147147  1.082   .     S
C122122 H148148  1.084   .     S
N123123 C137137  1.298   .     D
C124124 C125125  1.403   .     D
C124124 C129129  1.400   .     S
C124124 C137137  1.472   .     S
C125125 C126126  1.398   .     S
C125125 H149149  1.083   .     S
C126126 C127127  1.408   .     D
C126126 H150150  1.083   .     S
C127127 C128128  1.408   .     S
C127127 C130130  1.491   .     S
C128128 C129129  1.397   .     D
C128128 H460460  1.081   1_456 S
C129129 H461461  1.083   1_456 S
C130130 C131131  1.413   .     D
C130130 C135135  1.409   .     S
C131131 C132132  1.403   .     S
C131131 H422422  1.082   1_456 S
C132132 C133133  1.402   .     D
C132132 H423423  1.084   1_456 S
C133133 C134134  1.402   .     S
C133133 C138138  1.470   .     S
C134134 C135135  1.379   .     S
C134134 N462462  1.419   1_456 D
C135135 N464464  1.421   1_456 D
N136136 C138138  1.297   .     D
C137137 H151151  1.084   .     S
C138138 H152152  1.084   .     S
C153153 C154154  1.400   .     D
C153153 H187187  1.076   .     S
C154154 C155155  1.432   .     S
C154154 C206206  1.424   .     S
C155155 C156156  1.516   .     D
C156156 C157157  1.412   .     S
C156156 C161161  1.415   .     S
C157157 C158158  1.396   .     D
C157157 H188188  1.079   .     S
C158158 C159159  1.393   .     S
C158158 H189189  1.082   .     S
C159159 C160160  1.400   .     S
C159159 N184184  1.434   .     D
C160160 C161161  1.396   .     D
C160160 H190190  1.081   .     S
C161161 H191191  1.081   .     S
C162162 C163163  1.426   .     S
C162162 C164164  1.404   .     D
C163163 C165165  1.428   .     D
C163163 C203203  1.488   1_455 S
C164164 H192192  1.080   .     S
C164164 C1212   1.464   1_565 S
C165165 C166166  1.415   .     S
C165165 C170170  1.412   .     S
C166166 C167167  1.398   .     D
C166166 H193193  1.081   .     S
C167167 C168168  1.396   .     S
C167167 H194194  1.083   .     S
C168168 C169169  1.403   .     S
C168168 N171171  1.436   .     D
C169169 C170170  1.395   .     D
C169169 H195195  1.082   .     S
C170170 H196196  1.081   .     S
N171171 C185185  1.299   .     S
C172172 C173173  1.405   .     S
C172172 C177177  1.399   .     S
C172172 C185185  1.474   .     D
C173173 C174174  1.404   .     D
C173173 H197197  1.081   .     S
C174174 C175175  1.413   .     S
C174174 H198198  1.082   .     S
C175175 C176176  1.411   .     S
C175175 C178178  1.495   .     D
C176176 C177177  1.377   .     S
C176176 N457457  1.420   1_456 D
C177177 N459459  1.420   1_456 D
C178178 C179179  1.409   .     S
C178178 C183183  1.408   .     S
C179179 C180180  1.397   .     D
C179179 H455455  1.081   1_456 S
C180180 C181181  1.399   .     S
C180180 H456456  1.083   1_456 S
C181181 C182182  1.403   .     S
C181181 C186186  1.473   .     D
C182182 C183183  1.396   .     D
C182182 H199199  1.083   .     S
C183183 H200200  1.080   .     S
N184184 C186186  1.299   .     S
C185185 H201201  1.083   .     S
C186186 H202202  1.082   .     S
C203203 H204204  1.082   .     S
C203203 C163163  1.488   1_655 S
C205205 C206206  1.508   .     S
C207207 C208208  1.399   .     D
C207207 H242242  1.082   .     S
C207207 C364364  1.464   .     S
C208208 C209209  1.412   .     S
C208208 C418418  1.409   .     S
C209209 C210210  1.397   .     S
C209209 C211211  1.481   .     D
C210210 C261261  1.406   .     D
C210210 H431431  1.083   1_445 S
C211211 C212212  1.402   .     S
C211211 C216216  1.403   .     S
C212212 C213213  1.394   .     D
C212212 H243243  1.083   .     S
C213213 C214214  1.398   .     S
C213213 H244244  1.082   .     S
C214214 C215215  1.409   .     S
C214214 N239239  1.435   .     D
C215215 C216216  1.401   .     D
C215215 H245245  1.081   .     S
C216216 H246246  1.083   .     S
C217217 C218218  1.419   .     S
C217217 C219219  1.405   .     S
C217217 C258258  1.416   .     D
C218218 C220220  1.413   .     D
C218218 C256256  1.475   1_655 S
C219219 H247247  1.078   .     S
C219219 C376376  1.460   1_565 D
C220220 C221221  1.408   .     S
C220220 C225225  1.408   .     S
C221221 C222222  1.398   .     D
C221221 H248248  1.081   .     S
C222222 C223223  1.400   .     S
C222222 H249249  1.083   .     S
C223223 C224224  1.406   .     S
C223223 N226226  1.436   .     D
C224224 C225225  1.394   .     D
C224224 H250250  1.081   .     S
C225225 H251251  1.084   .     S
N226226 C240240  1.299   .     S
C227227 C228228  1.408   .     S
C227227 C232232  1.408   .     S
C227227 C240240  1.478   .     D
C228228 C229229  1.378   .     S
C228228 N442442  1.421   1_455 D
C229229 C230230  1.403   .     S
C229229 N444444  1.420   1_455 D
C230230 C231231  1.406   .     S
C230230 C233233  1.477   .     D
C231231 C232232  1.403   .     D
C231231 H440440  1.083   1_455 S
C232232 H441441  1.083   1_455 S
C233233 C234234  1.404   .     S
C233233 C238238  1.402   .     S
C234234 C235235  1.398   .     D
C234234 H429429  1.083   1_455 S
C235235 C236236  1.403   .     S
C235235 H430430  1.083   1_455 S
C236236 C237237  1.407   .     S
C236236 C241241  1.476   .     D
C237237 C238238  1.397   .     D
C237237 H252252  1.082   .     S
C238238 H253253  1.083   .     S
N239239 C241241  1.298   .     S
C240240 H254254  1.083   .     S
C241241 H255255  1.083   .     S
C256256 H257257  1.084   .     S
C256256 C269269  1.400   .     D
C256256 C218218  1.475   1_455 S
C258258 C268268  1.497   1_655 S
C258258 C415415  1.505   1_665 S
C259259 C260260  1.401   .     S
C259259 H296296  1.076   .     S
C259259 C314314  1.464   .     D
C260260 C261261  1.427   .     S
C260260 C418418  1.420   .     D
C261261 C262262  1.504   .     S
C262262 C263263  1.407   .     D
C262262 C267267  1.409   .     S
C263263 C264264  1.399   .     S
C263263 H297297  1.080   .     S
C264264 C265265  1.397   .     D
C264264 H298298  1.083   .     S
C265265 C266266  1.404   .     S
C265265 N290290  1.436   .     S
C266266 C267267  1.396   .     D
C266266 H299299  1.082   .     S
C267267 H300300  1.081   .     S
C268268 C269269  1.426   .     S
C268268 C270270  1.397   .     D
C268268 C258258  1.497   1_455 S
C269269 C271271  1.428   .     S
C270270 H301301  1.078   .     S
C270270 C325325  1.461   1_565 S
C271271 C272272  1.408   .     S
C271271 C276276  1.415   .     D
C272272 C273273  1.396   .     D
C272272 H302302  1.074   .     S
C273273 C274274  1.396   .     S
C273273 H303303  1.083   .     S
C274274 C275275  1.404   .     D
C274274 N277277  1.435   .     S
C275275 C276276  1.393   .     S
C275275 H304304  1.080   .     S
C276276 H305305  1.083   .     S
N277277 C294294  1.299   .     D
C278278 C279279  1.402   .     S
C278278 C283283  1.401   .     D
C278278 C294294  1.471   .     S
C279279 C280280  1.394   .     D
C279279 H306306  1.083   .     S
C280280 C281281  1.408   .     S
C280280 H307307  1.081   .     S
C281281 C282282  1.406   .     D
C281281 C284284  1.492   .     S
C282282 C283283  1.397   .     S
C282282 H308308  1.082   .     S
C283283 H309309  1.084   .     S
C284284 C285285  1.411   .     S
C284284 C289289  1.411   .     D
C285285 C286286  1.384   .     S
C285285 N291291  1.291   .     D
C286286 C287287  1.403   .     S
C286286 N293293  1.292   .     D
C287287 C288288  1.407   .     D
C287287 C295295  1.478   .     S
C288288 C289289  1.404   .     S
C288288 H310310  1.082   .     S
C289289 H311311  1.082   .     S
N290290 C295295  1.299   .     D
N291291 S292292  1.778   .     S
S292292 N293293  1.779   .     S
C294294 H312312  1.080   .     S
C295295 H313313  1.083   .     S
C314314 C315315  1.400   .     S
C314314 H348348  1.082   .     S
C315315 C316316  1.406   .     S
C315315 C419419  1.411   .     D
C316316 C317317  1.477   .     D
C316316 C367367  1.393   .     S
C317317 C318318  1.401   .     S
C317317 C322322  1.400   .     S
C318318 C319319  1.401   .     D
C318318 H349349  1.083   .     S
C319319 C320320  1.404   .     S
C319319 H350350  1.083   .     S
C320320 C321321  1.410   .     S
C320320 N345345  1.440   .     D
C321321 C322322  1.395   .     D
C321321 H351351  1.081   .     S
C322322 H352352  1.084   .     S
C323323 C324324  1.426   .     S
C323323 C325325  1.405   .     D
C323323 C415415  1.417   .     S
C324324 C326326  1.418   .     D
C324324 C416416  1.403   .     S
C325325 H353353  1.077   .     S
C325325 C270270  1.461   1_545 S
C326326 C327327  1.410   .     S
C326326 C331331  1.409   .     S
C327327 C328328  1.401   .     D
C327327 H354354  1.084   .     S
C328328 C329329  1.401   .     S
C328328 H355355  1.083   .     S
C329329 C330330  1.406   .     S
C329329 N332332  1.439   .     D
C330330 C331331  1.394   .     D
C330330 H356356  1.081   .     S
C331331 H357357  1.084   .     S
N332332 C346346  1.301   .     S
C333333 C334334  1.410   .     S
C333333 C338338  1.403   .     S
C333333 C346346  1.479   .     D
C334334 C335335  1.406   .     D
C334334 H358358  1.083   .     S
C335335 C336336  1.410   .     S
C335335 H359359  1.083   .     S
C336336 C337337  1.404   .     S
C336336 C339339  1.482   .     D
C337337 C338338  1.378   .     S
C337337 N426426  1.420   1_445 D
C338338 N428428  1.420   1_445 D
C339339 C340340  1.403   .     S
C339339 C344344  1.407   .     S
C340340 C341341  1.396   .     D
C340340 H424424  1.083   1_445 S
C341341 C342342  1.403   .     S
C341341 H425425  1.083   1_445 S
C342342 C343343  1.406   .     S
C342342 C347347  1.478   .     D
C343343 C344344  1.401   .     D
C343343 H360360  1.083   .     S
C344344 H361361  1.083   .     S
N345345 C347347  1.301   .     S
C346346 H362362  1.083   .     S
C347347 H363363  1.082   .     S
C364364 C365365  1.400   .     D
C364364 H399399  1.075   .     S
C365365 C366366  1.433   .     S
C365365 C419419  1.425   .     S
C366366 C367367  1.409   .     D
C366366 C368368  1.515   .     S
C367367 H433433  1.082   1_445 S
C368368 C369369  1.412   .     D
C368368 C373373  1.412   .     S
C369369 C370370  1.398   .     S
C369369 H400400  1.080   .     S
C370370 C371371  1.395   .     D
C370370 H401401  1.082   .     S
C371371 C372372  1.402   .     S
C371371 N396396  1.438   .     S
C372372 C373373  1.396   .     D
C372372 H402402  1.080   .     S
C373373 H403403  1.081   .     S
C374374 C375375  1.418   .     S
C374374 C376376  1.396   .     S
C374374 C415415  1.492   1_655 D
C375375 C377377  1.428   .     S
C375375 C416416  1.480   1_655 D
C376376 H404404  1.078   .     S
C376376 C219219  1.460   1_545 D
C377377 C378378  1.411   .     D
C377377 C382382  1.414   .     S
C378378 C379379  1.397   .     S
C378378 H405405  1.078   .     S
C379379 C380380  1.395   .     D
C379379 H406406  1.083   .     S
C380380 C381381  1.405   .     S
C380380 N383383  1.437   .     S
C381381 C382382  1.396   .     D
C381381 H407407  1.080   .     S
C382382 H408408  1.081   .     S
N383383 C397397  1.299   .     D
C384384 C385385  1.405   .     D
C384384 C389389  1.401   .     S
C384384 C397397  1.475   .     S
C385385 C386386  1.398   .     S
C385385 H409409  1.083   .     S
C386386 C387387  1.406   .     D
C386386 H410410  1.082   .     S
C387387 C388388  1.406   .     S
C387387 C390390  1.486   .     S
C388388 C389389  1.396   .     D
C388388 H411411  1.082   .     S
C389389 H412412  1.083   .     S
C390390 C391391  1.409   .     D
C390390 C395395  1.405   .     S
C391391 C392392  1.402   .     S
C391391 H446446  1.081   1_445 S
C392392 C393393  1.406   .     D
C392392 H445445  1.083   1_445 S
C393393 C394394  1.406   .     S
C393393 C398398  1.477   .     S
C394394 C395395  1.379   .     S
C394394 N447447  1.420   1_445 D
C395395 N449449  1.420   1_445 D
N396396 C398398  1.299   .     D
C397397 H413413  1.081   .     S
C398398 H414414  1.081   .     S
C415415 C258258  1.505   1_445 S
C415415 C374374  1.492   1_455 D
C416416 H417417  1.082   .     S
C416416 C375375  1.480   1_455 D
C418418 C419419  1.506   .     S
H420420 C3030   1.083   1_664 S
H421421 C3131   1.083   1_664 S
H422422 C131131  1.082   1_654 S
H423423 C132132  1.084   1_654 S
H424424 C340340  1.083   1_665 S
H425425 C341341  1.083   1_665 S
N426426 S427427  1.786   .     S
N426426 C337337  1.420   1_665 D
S427427 N428428  1.786   .     S
N428428 C338338  1.420   1_665 D
H429429 C234234  1.083   1_655 S
H430430 C235235  1.083   1_655 S
H431431 C210210  1.083   1_665 S
H432432 C107107  1.081   1_664 S
H433433 C367367  1.082   1_665 S
H434434 C5555   1.084   1_664 S
H435435 C2424   1.083   1_664 S
H436436 C2525   1.084   1_664 S
N437437 S438438  1.785   .     S
N437437 C2727   1.421   1_664 D
S438438 N439439  1.786   .     S
N439439 C2828   1.420   1_664 D
H440440 C231231  1.083   1_655 S
H441441 C232232  1.083   1_655 S
N442442 S443443  1.785   .     S
N442442 C228228  1.421   1_655 D
S443443 N444444  1.785   .     S
N444444 C229229  1.420   1_655 D
H445445 C392392  1.083   1_665 S
H446446 C391391  1.081   1_665 S
N447447 S448448  1.785   .     S
N447447 C394394  1.420   1_665 D
S448448 N449449  1.783   .     S
N449449 C395395  1.420   1_665 D
H450450 C7979   1.082   1_664 S
H451451 C8080   1.083   1_664 S
N452452 S453453  1.784   .     S
N452452 C7373   1.421   1_664 D
S453453 N454454  1.784   .     S
N454454 C7474   1.420   1_664 D
H455455 C179179  1.081   1_654 S
H456456 C180180  1.083   1_654 S
N457457 S458458  1.784   .     S
N457457 C176176  1.420   1_654 D
S458458 N459459  1.783   .     S
N459459 C177177  1.420   1_654 D
H460460 C128128  1.081   1_654 S
H461461 C129129  1.083   1_654 S
N462462 S463463  1.785   .     S
N462462 C134134  1.419   1_654 D
S463463 N464464  1.785   .     S
N464464 C135135  1.421   1_654 D
