data_8
_audit_creation_date              2023-09-08
_audit_creation_method            'Materials Studio'
_symmetry_space_group_name_H-M    'P1'
_symmetry_Int_Tables_number       1
_symmetry_cell_setting            triclinic
loop_
_symmetry_equiv_pos_as_xyz
  x,y,z
_cell_length_a                    30.6820
_cell_length_b                    30.6820
_cell_length_c                    7.5430
_cell_angle_alpha                 90.0000
_cell_angle_beta                  90.0000
_cell_angle_gamma                 90.0000
loop_
_atom_site_label
_atom_site_type_symbol
_atom_site_fract_x
_atom_site_fract_y
_atom_site_fract_z
_atom_site_U_iso_or_equiv
_atom_site_adp_type
_atom_site_occupancy
C1     C     0.01130   0.03860   0.87190   0.00000  Uiso   1.00
C2     C     0.54940   0.53510   0.26600   0.00000  Uiso   1.00
C3     C     0.06070   0.06890   0.64500   0.00000  Uiso   1.00
C4     C     0.03380   0.10620   0.63000   0.00000  Uiso   1.00
C5     C     0.99570   0.10970   0.73600   0.00000  Uiso   1.00
C6     C     0.98440   0.07590   0.85700   0.00000  Uiso   1.00
C7     C     0.04320   0.13920   0.49400   0.00000  Uiso   1.00
N8     N     0.06840   0.13500   0.35200   0.00000  Uiso   1.00
C9     C     0.07430   0.16820   0.21200   0.00000  Uiso   1.00
C10    C     0.05100   0.20780   0.22600   0.00000  Uiso   1.00
C11    C     0.55660   0.74060   0.59400   0.00000  Uiso   1.00
C12    C     0.58550   0.73370   0.44740   0.00000  Uiso   1.00
C13    C     0.60870   0.69400   0.43400   0.00000  Uiso   1.00
C14    C     0.60310   0.66130   0.56600   0.00000  Uiso   1.00
O15    O     0.12593   0.12451   0.05688   0.00000  Uiso   1.00
H16    H     0.57118   0.50482   0.27818   0.00000  Uiso   1.00
H17    H     0.59169   0.56610   0.05891   0.00000  Uiso   1.00
H18    H     0.97392   0.13998   0.72388   0.00000  Uiso   1.00
H19    H     0.95342   0.07870   0.94316   0.00000  Uiso   1.00
H20    H     0.02781   0.17319   0.50523   0.00000  Uiso   1.00
H21    H     0.02753   0.21331   0.34458   0.00000  Uiso   1.00
H22    H     0.53775   0.77280   0.60557   0.00000  Uiso   1.00
H23    H     0.13216   0.18832   0.81552   0.00000  Uiso   1.00
C24    C     0.16676   0.12530   0.98344   0.00000  Uiso   1.00
C25    C     0.83933   0.20283   0.02320   0.00000  Uiso   1.00
C26    C     0.78904   0.19920   0.03769   0.00000  Uiso   1.00
C27    C     0.77482   0.22878   0.87842   0.00000  Uiso   1.00
O28    O     0.81605   0.25308   0.81368   0.00000  Uiso   1.00
O29    O     0.91827   0.19104   0.98715   0.00000  Uiso   1.00
O30    O     0.74126   0.22217   0.73943   0.00000  Uiso   1.00
O31    O     0.12852   0.64026   0.81586   0.00000  Uiso   1.00
H32    H     0.84575   0.22448   0.89958   0.00000  Uiso   1.00
H33    H     0.84521   0.22475   0.14645   0.00000  Uiso   1.00
H34    H     0.77692   0.21296   0.17284   0.00000  Uiso   1.00
H35    H     0.77882   0.16343   0.02113   0.00000  Uiso   1.00
H36    H     0.80659   0.27898   0.71501   0.00000  Uiso   1.00
H37    H     0.14198   0.66831   0.73732   0.00000  Uiso   1.00
C38    C     0.98870   0.53860   0.87810   0.00000  Uiso   1.00
C39    C     0.95060   0.53510   0.98400   0.00000  Uiso   1.00
C40    C     0.43930   0.06890   0.60500   0.00000  Uiso   1.00
C41    C     0.46620   0.10620   0.62000   0.00000  Uiso   1.00
C42    C     0.50430   0.10970   0.51400   0.00000  Uiso   1.00
C43    C     0.01560   0.57590   0.89300   0.00000  Uiso   1.00
C44    C     0.45680   0.13920   0.75600   0.00000  Uiso   1.00
N45    N     0.43160   0.13500   0.89800   0.00000  Uiso   1.00
C46    C     0.42570   0.16820   0.03800   0.00000  Uiso   1.00
C47    C     0.44900   0.20780   0.02400   0.00000  Uiso   1.00
C48    C     0.44340   0.24060   0.15600   0.00000  Uiso   1.00
C49    C     0.91450   0.73370   0.80260   0.00000  Uiso   1.00
C50    C     0.89130   0.69400   0.81600   0.00000  Uiso   1.00
C51    C     0.89690   0.66130   0.68400   0.00000  Uiso   1.00
H52    H     0.92882   0.50482   0.97182   0.00000  Uiso   1.00
H53    H     0.40831   0.06610   0.69109   0.00000  Uiso   1.00
H54    H     0.52608   0.13998   0.52612   0.00000  Uiso   1.00
H55    H     0.04658   0.57870   0.80684   0.00000  Uiso   1.00
H56    H     0.47219   0.17319   0.74477   0.00000  Uiso   1.00
H57    H     0.47247   0.21331   0.90542   0.00000  Uiso   1.00
H58    H     0.46225   0.27280   0.14443   0.00000  Uiso   1.00
H59    H     0.86784   0.68832   0.93448   0.00000  Uiso   1.00
C60    C     0.51130   0.53860   0.37190   0.00000  Uiso   1.00
C61    C     0.04940   0.03510   0.76600   0.00000  Uiso   1.00
C62    C     0.56070   0.56890   0.14500   0.00000  Uiso   1.00
C63    C     0.53380   0.60620   0.13000   0.00000  Uiso   1.00
C64    C     0.49570   0.60970   0.23600   0.00000  Uiso   1.00
C65    C     0.48440   0.57590   0.35700   0.00000  Uiso   1.00
C66    C     0.54320   0.63920   0.99400   0.00000  Uiso   1.00
N67    N     0.56840   0.63500   0.85200   0.00000  Uiso   1.00
C68    C     0.57430   0.66820   0.71200   0.00000  Uiso   1.00
C69    C     0.55100   0.70780   0.72600   0.00000  Uiso   1.00
C70    C     0.05660   0.24060   0.09400   0.00000  Uiso   1.00
C71    C     0.08550   0.23370   0.94740   0.00000  Uiso   1.00
C72    C     0.10870   0.19400   0.93400   0.00000  Uiso   1.00
C73    C     0.10310   0.16130   0.06600   0.00000  Uiso   1.00
O74    O     0.62593   0.62451   0.55688   0.00000  Uiso   1.00
H75    H     0.07118   0.00482   0.77818   0.00000  Uiso   1.00
H76    H     0.09169   0.06610   0.55891   0.00000  Uiso   1.00
H77    H     0.47392   0.63998   0.22388   0.00000  Uiso   1.00
H78    H     0.45342   0.57870   0.44316   0.00000  Uiso   1.00
H79    H     0.52781   0.67319   0.00523   0.00000  Uiso   1.00
H80    H     0.52753   0.71331   0.84458   0.00000  Uiso   1.00
H81    H     0.03775   0.27280   0.10557   0.00000  Uiso   1.00
H82    H     0.63216   0.68832   0.31552   0.00000  Uiso   1.00
C83    C     0.66676   0.62530   0.48344   0.00000  Uiso   1.00
C84    C     0.33933   0.70283   0.52320   0.00000  Uiso   1.00
C85    C     0.28904   0.69920   0.53769   0.00000  Uiso   1.00
C86    C     0.27482   0.72878   0.37842   0.00000  Uiso   1.00
O87    O     0.31605   0.75308   0.31368   0.00000  Uiso   1.00
O88    O     0.41827   0.69104   0.48715   0.00000  Uiso   1.00
O89    O     0.24126   0.72217   0.23943   0.00000  Uiso   1.00
O90    O     0.62852   0.14026   0.31586   0.00000  Uiso   1.00
H91    H     0.34575   0.72448   0.39958   0.00000  Uiso   1.00
H92    H     0.34521   0.72475   0.64645   0.00000  Uiso   1.00
H93    H     0.27692   0.71296   0.67284   0.00000  Uiso   1.00
H94    H     0.27882   0.66343   0.52113   0.00000  Uiso   1.00
H95    H     0.30659   0.77898   0.21501   0.00000  Uiso   1.00
H96    H     0.64198   0.16831   0.23732   0.00000  Uiso   1.00
C97    C     0.48870   0.03860   0.37810   0.00000  Uiso   1.00
C98    C     0.45060   0.03510   0.48400   0.00000  Uiso   1.00
C99    C     0.93930   0.56890   0.10500   0.00000  Uiso   1.00
C100   C     0.96620   0.60620   0.12000   0.00000  Uiso   1.00
C101   C     0.00430   0.60970   0.01400   0.00000  Uiso   1.00
C102   C     0.51560   0.07590   0.39300   0.00000  Uiso   1.00
C103   C     0.95680   0.63920   0.25600   0.00000  Uiso   1.00
N104   N     0.93160   0.63500   0.39800   0.00000  Uiso   1.00
C105   C     0.92570   0.66820   0.53800   0.00000  Uiso   1.00
C106   C     0.94900   0.70780   0.52400   0.00000  Uiso   1.00
C107   C     0.94340   0.74060   0.65600   0.00000  Uiso   1.00
C108   C     0.41450   0.23370   0.30260   0.00000  Uiso   1.00
C109   C     0.39130   0.19400   0.31600   0.00000  Uiso   1.00
C110   C     0.39690   0.16130   0.18400   0.00000  Uiso   1.00
H111   H     0.42882   0.00482   0.47182   0.00000  Uiso   1.00
H112   H     0.90831   0.56610   0.19109   0.00000  Uiso   1.00
H113   H     0.02608   0.63998   0.02612   0.00000  Uiso   1.00
H114   H     0.54658   0.07870   0.30684   0.00000  Uiso   1.00
H115   H     0.97219   0.67319   0.24477   0.00000  Uiso   1.00
H116   H     0.97247   0.71331   0.40542   0.00000  Uiso   1.00
H117   H     0.96225   0.77280   0.64443   0.00000  Uiso   1.00
H118   H     0.36784   0.18832   0.43448   0.00000  Uiso   1.00
C119   C     0.98870   0.96140   0.87190   0.00000  Uiso   1.00
C120   C     0.45060   0.46490   0.26600   0.00000  Uiso   1.00
C121   C     0.93930   0.93110   0.64500   0.00000  Uiso   1.00
C122   C     0.96620   0.89380   0.63000   0.00000  Uiso   1.00
C123   C     0.00430   0.89030   0.73600   0.00000  Uiso   1.00
C124   C     0.01560   0.92410   0.85700   0.00000  Uiso   1.00
C125   C     0.95680   0.86080   0.49400   0.00000  Uiso   1.00
N126   N     0.93160   0.86500   0.35200   0.00000  Uiso   1.00
C127   C     0.92570   0.83180   0.21200   0.00000  Uiso   1.00
C128   C     0.94900   0.79220   0.22600   0.00000  Uiso   1.00
C129   C     0.44340   0.25940   0.59400   0.00000  Uiso   1.00
C130   C     0.41450   0.26630   0.44740   0.00000  Uiso   1.00
C131   C     0.39130   0.30600   0.43400   0.00000  Uiso   1.00
C132   C     0.39690   0.33870   0.56600   0.00000  Uiso   1.00
O133   O     0.87407   0.87549   0.05688   0.00000  Uiso   1.00
H134   H     0.42882   0.49518   0.27818   0.00000  Uiso   1.00
H135   H     0.40831   0.43390   0.05891   0.00000  Uiso   1.00
H136   H     0.02608   0.86002   0.72388   0.00000  Uiso   1.00
H137   H     0.04658   0.92130   0.94316   0.00000  Uiso   1.00
H138   H     0.97219   0.82681   0.50523   0.00000  Uiso   1.00
H139   H     0.97247   0.78669   0.34458   0.00000  Uiso   1.00
H140   H     0.46225   0.22720   0.60557   0.00000  Uiso   1.00
H141   H     0.86784   0.81168   0.81552   0.00000  Uiso   1.00
C142   C     0.83324   0.87470   0.98344   0.00000  Uiso   1.00
C143   C     0.16067   0.79717   0.02320   0.00000  Uiso   1.00
C144   C     0.21096   0.80080   0.03769   0.00000  Uiso   1.00
C145   C     0.22518   0.77122   0.87842   0.00000  Uiso   1.00
O146   O     0.18395   0.74692   0.81368   0.00000  Uiso   1.00
O147   O     0.08173   0.80896   0.98715   0.00000  Uiso   1.00
O148   O     0.25874   0.77783   0.73943   0.00000  Uiso   1.00
O149   O     0.87148   0.35974   0.81586   0.00000  Uiso   1.00
H150   H     0.15425   0.77552   0.89958   0.00000  Uiso   1.00
H151   H     0.15479   0.77525   0.14645   0.00000  Uiso   1.00
H152   H     0.22308   0.78704   0.17284   0.00000  Uiso   1.00
H153   H     0.22118   0.83657   0.02113   0.00000  Uiso   1.00
H154   H     0.19341   0.72102   0.71501   0.00000  Uiso   1.00
H155   H     0.85802   0.33169   0.73732   0.00000  Uiso   1.00
C156   C     0.01130   0.46140   0.87810   0.00000  Uiso   1.00
C157   C     0.04940   0.46490   0.98400   0.00000  Uiso   1.00
C158   C     0.56070   0.93110   0.60500   0.00000  Uiso   1.00
C159   C     0.53380   0.89380   0.62000   0.00000  Uiso   1.00
C160   C     0.49570   0.89030   0.51400   0.00000  Uiso   1.00
C161   C     0.98440   0.42410   0.89300   0.00000  Uiso   1.00
C162   C     0.54320   0.86080   0.75600   0.00000  Uiso   1.00
N163   N     0.56840   0.86500   0.89800   0.00000  Uiso   1.00
C164   C     0.57430   0.83180   0.03800   0.00000  Uiso   1.00
C165   C     0.55100   0.79220   0.02400   0.00000  Uiso   1.00
C166   C     0.55660   0.75940   0.15600   0.00000  Uiso   1.00
C167   C     0.08550   0.26630   0.80260   0.00000  Uiso   1.00
C168   C     0.10870   0.30600   0.81600   0.00000  Uiso   1.00
C169   C     0.10310   0.33870   0.68400   0.00000  Uiso   1.00
H170   H     0.07118   0.49518   0.97182   0.00000  Uiso   1.00
H171   H     0.59169   0.93390   0.69109   0.00000  Uiso   1.00
H172   H     0.47392   0.86002   0.52612   0.00000  Uiso   1.00
H173   H     0.95342   0.42130   0.80684   0.00000  Uiso   1.00
H174   H     0.52781   0.82681   0.74477   0.00000  Uiso   1.00
H175   H     0.52753   0.78669   0.90542   0.00000  Uiso   1.00
H176   H     0.53775   0.72720   0.14443   0.00000  Uiso   1.00
H177   H     0.13216   0.31168   0.93448   0.00000  Uiso   1.00
C178   C     0.48870   0.46140   0.37190   0.00000  Uiso   1.00
C179   C     0.95060   0.96490   0.76600   0.00000  Uiso   1.00
C180   C     0.43930   0.43110   0.14500   0.00000  Uiso   1.00
C181   C     0.46620   0.39380   0.13000   0.00000  Uiso   1.00
C182   C     0.50430   0.39030   0.23600   0.00000  Uiso   1.00
C183   C     0.51560   0.42410   0.35700   0.00000  Uiso   1.00
C184   C     0.45680   0.36080   0.99400   0.00000  Uiso   1.00
N185   N     0.43160   0.36500   0.85200   0.00000  Uiso   1.00
C186   C     0.42570   0.33180   0.71200   0.00000  Uiso   1.00
C187   C     0.44900   0.29220   0.72600   0.00000  Uiso   1.00
C188   C     0.94340   0.75940   0.09400   0.00000  Uiso   1.00
C189   C     0.91450   0.76630   0.94740   0.00000  Uiso   1.00
C190   C     0.89130   0.80600   0.93400   0.00000  Uiso   1.00
C191   C     0.89690   0.83870   0.06600   0.00000  Uiso   1.00
O192   O     0.37407   0.37549   0.55688   0.00000  Uiso   1.00
H193   H     0.92882   0.99518   0.77818   0.00000  Uiso   1.00
H194   H     0.90831   0.93390   0.55891   0.00000  Uiso   1.00
H195   H     0.52608   0.36002   0.22388   0.00000  Uiso   1.00
H196   H     0.54658   0.42130   0.44316   0.00000  Uiso   1.00
H197   H     0.47219   0.32681   0.00523   0.00000  Uiso   1.00
H198   H     0.47247   0.28669   0.84458   0.00000  Uiso   1.00
H199   H     0.96225   0.72720   0.10557   0.00000  Uiso   1.00
H200   H     0.36784   0.31168   0.31552   0.00000  Uiso   1.00
C201   C     0.33324   0.37470   0.48344   0.00000  Uiso   1.00
C202   C     0.66067   0.29717   0.52320   0.00000  Uiso   1.00
C203   C     0.71096   0.30080   0.53769   0.00000  Uiso   1.00
C204   C     0.72518   0.27122   0.37842   0.00000  Uiso   1.00
O205   O     0.68395   0.24692   0.31368   0.00000  Uiso   1.00
O206   O     0.58173   0.30896   0.48715   0.00000  Uiso   1.00
O207   O     0.75874   0.27783   0.23943   0.00000  Uiso   1.00
O208   O     0.37148   0.85974   0.31586   0.00000  Uiso   1.00
H209   H     0.65425   0.27552   0.39958   0.00000  Uiso   1.00
H210   H     0.65479   0.27525   0.64645   0.00000  Uiso   1.00
H211   H     0.72308   0.28704   0.67284   0.00000  Uiso   1.00
H212   H     0.72118   0.33657   0.52113   0.00000  Uiso   1.00
H213   H     0.69341   0.22102   0.21501   0.00000  Uiso   1.00
H214   H     0.35802   0.83169   0.23732   0.00000  Uiso   1.00
C215   C     0.51130   0.96140   0.37810   0.00000  Uiso   1.00
C216   C     0.54940   0.96490   0.48400   0.00000  Uiso   1.00
C217   C     0.06070   0.43110   0.10500   0.00000  Uiso   1.00
C218   C     0.03380   0.39380   0.12000   0.00000  Uiso   1.00
C219   C     0.99570   0.39030   0.01400   0.00000  Uiso   1.00
C220   C     0.48440   0.92410   0.39300   0.00000  Uiso   1.00
C221   C     0.04320   0.36080   0.25600   0.00000  Uiso   1.00
N222   N     0.06840   0.36500   0.39800   0.00000  Uiso   1.00
C223   C     0.07430   0.33180   0.53800   0.00000  Uiso   1.00
C224   C     0.05100   0.29220   0.52400   0.00000  Uiso   1.00
C225   C     0.05660   0.25940   0.65600   0.00000  Uiso   1.00
C226   C     0.58550   0.76630   0.30260   0.00000  Uiso   1.00
C227   C     0.60870   0.80600   0.31600   0.00000  Uiso   1.00
C228   C     0.60310   0.83870   0.18400   0.00000  Uiso   1.00
H229   H     0.57118   0.99518   0.47182   0.00000  Uiso   1.00
H230   H     0.09169   0.43390   0.19109   0.00000  Uiso   1.00
H231   H     0.97392   0.36002   0.02612   0.00000  Uiso   1.00
H232   H     0.45342   0.92130   0.30684   0.00000  Uiso   1.00
H233   H     0.02781   0.32681   0.24477   0.00000  Uiso   1.00
H234   H     0.02753   0.28669   0.40542   0.00000  Uiso   1.00
H235   H     0.03775   0.22720   0.64443   0.00000  Uiso   1.00
H236   H     0.63216   0.81168   0.43448   0.00000  Uiso   1.00
C237   C     0.03860   0.98870   0.12810   0.00000  Uiso   1.00
C238   C     0.53510   0.45060   0.73400   0.00000  Uiso   1.00
C239   C     0.06890   0.93930   0.35500   0.00000  Uiso   1.00
C240   C     0.10620   0.96620   0.37000   0.00000  Uiso   1.00
C241   C     0.10970   0.00430   0.26400   0.00000  Uiso   1.00
C242   C     0.07590   0.01560   0.14300   0.00000  Uiso   1.00
C243   C     0.13920   0.95680   0.50600   0.00000  Uiso   1.00
N244   N     0.13500   0.93160   0.64800   0.00000  Uiso   1.00
C245   C     0.16820   0.92570   0.78800   0.00000  Uiso   1.00
C246   C     0.20780   0.94900   0.77400   0.00000  Uiso   1.00
C247   C     0.74060   0.44340   0.40600   0.00000  Uiso   1.00
C248   C     0.73370   0.41450   0.55260   0.00000  Uiso   1.00
C249   C     0.69400   0.39130   0.56600   0.00000  Uiso   1.00
C250   C     0.66130   0.39690   0.43400   0.00000  Uiso   1.00
O251   O     0.12451   0.87407   0.94312   0.00000  Uiso   1.00
H252   H     0.50482   0.42882   0.72182   0.00000  Uiso   1.00
H253   H     0.56610   0.40831   0.94109   0.00000  Uiso   1.00
H254   H     0.13998   0.02608   0.27612   0.00000  Uiso   1.00
H255   H     0.07870   0.04658   0.05684   0.00000  Uiso   1.00
H256   H     0.17319   0.97219   0.49477   0.00000  Uiso   1.00
H257   H     0.21331   0.97247   0.65542   0.00000  Uiso   1.00
H258   H     0.77280   0.46225   0.39443   0.00000  Uiso   1.00
H259   H     0.18832   0.86784   0.18448   0.00000  Uiso   1.00
C260   C     0.12530   0.83324   0.01656   0.00000  Uiso   1.00
C261   C     0.20283   0.16067   0.97680   0.00000  Uiso   1.00
C262   C     0.19920   0.21096   0.96231   0.00000  Uiso   1.00
C263   C     0.22878   0.22518   0.12158   0.00000  Uiso   1.00
O264   O     0.25308   0.18395   0.18632   0.00000  Uiso   1.00
O265   O     0.19104   0.08173   0.01285   0.00000  Uiso   1.00
O266   O     0.22217   0.25874   0.26057   0.00000  Uiso   1.00
O267   O     0.64026   0.87148   0.18414   0.00000  Uiso   1.00
H268   H     0.22448   0.15425   0.10042   0.00000  Uiso   1.00
H269   H     0.22475   0.15479   0.85355   0.00000  Uiso   1.00
H270   H     0.21296   0.22308   0.82716   0.00000  Uiso   1.00
H271   H     0.16343   0.22118   0.97887   0.00000  Uiso   1.00
H272   H     0.27898   0.19341   0.28499   0.00000  Uiso   1.00
H273   H     0.66831   0.85802   0.26268   0.00000  Uiso   1.00
C274   C     0.53860   0.01130   0.12190   0.00000  Uiso   1.00
C275   C     0.53510   0.04940   0.01600   0.00000  Uiso   1.00
C276   C     0.06890   0.56070   0.39500   0.00000  Uiso   1.00
C277   C     0.10620   0.53380   0.38000   0.00000  Uiso   1.00
C278   C     0.10970   0.49570   0.48600   0.00000  Uiso   1.00
C279   C     0.57590   0.98440   0.10700   0.00000  Uiso   1.00
C280   C     0.13920   0.54320   0.24400   0.00000  Uiso   1.00
N281   N     0.13500   0.56840   0.10200   0.00000  Uiso   1.00
C282   C     0.16820   0.57430   0.96200   0.00000  Uiso   1.00
C283   C     0.20780   0.55100   0.97600   0.00000  Uiso   1.00
C284   C     0.24060   0.55660   0.84400   0.00000  Uiso   1.00
C285   C     0.73370   0.08550   0.19740   0.00000  Uiso   1.00
C286   C     0.69400   0.10870   0.18400   0.00000  Uiso   1.00
C287   C     0.66130   0.10310   0.31600   0.00000  Uiso   1.00
H288   H     0.50482   0.07118   0.02818   0.00000  Uiso   1.00
H289   H     0.06610   0.59169   0.30891   0.00000  Uiso   1.00
H290   H     0.13998   0.47392   0.47388   0.00000  Uiso   1.00
H291   H     0.57870   0.95342   0.19316   0.00000  Uiso   1.00
H292   H     0.17319   0.52781   0.25523   0.00000  Uiso   1.00
H293   H     0.21331   0.52753   0.09458   0.00000  Uiso   1.00
H294   H     0.27280   0.53775   0.85557   0.00000  Uiso   1.00
H295   H     0.68832   0.13216   0.06552   0.00000  Uiso   1.00
C296   C     0.53860   0.48870   0.62810   0.00000  Uiso   1.00
C297   C     0.03510   0.95060   0.23400   0.00000  Uiso   1.00
C298   C     0.56890   0.43930   0.85500   0.00000  Uiso   1.00
C299   C     0.60620   0.46620   0.87000   0.00000  Uiso   1.00
C300   C     0.60970   0.50430   0.76400   0.00000  Uiso   1.00
C301   C     0.57590   0.51560   0.64300   0.00000  Uiso   1.00
C302   C     0.63920   0.45680   0.00600   0.00000  Uiso   1.00
N303   N     0.63500   0.43160   0.14800   0.00000  Uiso   1.00
C304   C     0.66820   0.42570   0.28800   0.00000  Uiso   1.00
C305   C     0.70780   0.44900   0.27400   0.00000  Uiso   1.00
C306   C     0.24060   0.94340   0.90600   0.00000  Uiso   1.00
C307   C     0.23370   0.91450   0.05260   0.00000  Uiso   1.00
C308   C     0.19400   0.89130   0.06600   0.00000  Uiso   1.00
C309   C     0.16130   0.89690   0.93400   0.00000  Uiso   1.00
O310   O     0.62451   0.37407   0.44312   0.00000  Uiso   1.00
H311   H     0.00482   0.92882   0.22182   0.00000  Uiso   1.00
H312   H     0.06610   0.90831   0.44109   0.00000  Uiso   1.00
H313   H     0.63998   0.52608   0.77612   0.00000  Uiso   1.00
H314   H     0.57870   0.54658   0.55684   0.00000  Uiso   1.00
H315   H     0.67319   0.47219   0.99477   0.00000  Uiso   1.00
H316   H     0.71331   0.47247   0.15542   0.00000  Uiso   1.00
H317   H     0.27280   0.96225   0.89443   0.00000  Uiso   1.00
H318   H     0.68832   0.36784   0.68448   0.00000  Uiso   1.00
C319   C     0.62530   0.33324   0.51656   0.00000  Uiso   1.00
C320   C     0.70283   0.66067   0.47680   0.00000  Uiso   1.00
C321   C     0.69920   0.71096   0.46231   0.00000  Uiso   1.00
C322   C     0.72878   0.72518   0.62158   0.00000  Uiso   1.00
O323   O     0.75308   0.68395   0.68632   0.00000  Uiso   1.00
O324   O     0.69104   0.58173   0.51285   0.00000  Uiso   1.00
O325   O     0.72217   0.75874   0.76057   0.00000  Uiso   1.00
O326   O     0.14026   0.37148   0.68414   0.00000  Uiso   1.00
H327   H     0.72448   0.65425   0.60042   0.00000  Uiso   1.00
H328   H     0.72475   0.65479   0.35355   0.00000  Uiso   1.00
H329   H     0.71296   0.72308   0.32716   0.00000  Uiso   1.00
H330   H     0.66343   0.72118   0.47887   0.00000  Uiso   1.00
H331   H     0.77898   0.69341   0.78499   0.00000  Uiso   1.00
H332   H     0.16831   0.35802   0.76268   0.00000  Uiso   1.00
C333   C     0.03860   0.51130   0.62190   0.00000  Uiso   1.00
C334   C     0.03510   0.54940   0.51600   0.00000  Uiso   1.00
C335   C     0.56890   0.06070   0.89500   0.00000  Uiso   1.00
C336   C     0.60620   0.03380   0.88000   0.00000  Uiso   1.00
C337   C     0.60970   0.99570   0.98600   0.00000  Uiso   1.00
C338   C     0.07590   0.48440   0.60700   0.00000  Uiso   1.00
C339   C     0.63920   0.04320   0.74400   0.00000  Uiso   1.00
N340   N     0.63500   0.06840   0.60200   0.00000  Uiso   1.00
C341   C     0.66820   0.07430   0.46200   0.00000  Uiso   1.00
C342   C     0.70780   0.05100   0.47600   0.00000  Uiso   1.00
C343   C     0.74060   0.05660   0.34400   0.00000  Uiso   1.00
C344   C     0.23370   0.58550   0.69740   0.00000  Uiso   1.00
C345   C     0.19400   0.60870   0.68400   0.00000  Uiso   1.00
C346   C     0.16130   0.60310   0.81600   0.00000  Uiso   1.00
H347   H     0.00482   0.57118   0.52818   0.00000  Uiso   1.00
H348   H     0.56610   0.09169   0.80891   0.00000  Uiso   1.00
H349   H     0.63998   0.97392   0.97388   0.00000  Uiso   1.00
H350   H     0.07870   0.45342   0.69316   0.00000  Uiso   1.00
H351   H     0.67319   0.02781   0.75523   0.00000  Uiso   1.00
H352   H     0.71331   0.02753   0.59458   0.00000  Uiso   1.00
H353   H     0.77280   0.03775   0.35557   0.00000  Uiso   1.00
H354   H     0.18832   0.63216   0.56552   0.00000  Uiso   1.00
C355   C     0.96140   0.01130   0.12810   0.00000  Uiso   1.00
C356   C     0.46490   0.54940   0.73400   0.00000  Uiso   1.00
C357   C     0.93110   0.06070   0.35500   0.00000  Uiso   1.00
C358   C     0.89380   0.03380   0.37000   0.00000  Uiso   1.00
C359   C     0.89030   0.99570   0.26400   0.00000  Uiso   1.00
C360   C     0.92410   0.98440   0.14300   0.00000  Uiso   1.00
C361   C     0.86080   0.04320   0.50600   0.00000  Uiso   1.00
N362   N     0.86500   0.06840   0.64800   0.00000  Uiso   1.00
C363   C     0.83180   0.07430   0.78800   0.00000  Uiso   1.00
C364   C     0.79220   0.05100   0.77400   0.00000  Uiso   1.00
C365   C     0.25940   0.55660   0.40600   0.00000  Uiso   1.00
C366   C     0.26630   0.58550   0.55260   0.00000  Uiso   1.00
C367   C     0.30600   0.60870   0.56600   0.00000  Uiso   1.00
C368   C     0.33870   0.60310   0.43400   0.00000  Uiso   1.00
O369   O     0.87549   0.12593   0.94312   0.00000  Uiso   1.00
H370   H     0.49518   0.57118   0.72182   0.00000  Uiso   1.00
H371   H     0.43390   0.59169   0.94109   0.00000  Uiso   1.00
H372   H     0.86002   0.97392   0.27612   0.00000  Uiso   1.00
H373   H     0.92130   0.95342   0.05684   0.00000  Uiso   1.00
H374   H     0.82681   0.02781   0.49477   0.00000  Uiso   1.00
H375   H     0.78669   0.02753   0.65542   0.00000  Uiso   1.00
H376   H     0.22720   0.53775   0.39443   0.00000  Uiso   1.00
H377   H     0.81168   0.13216   0.18448   0.00000  Uiso   1.00
C378   C     0.87470   0.16676   0.01656   0.00000  Uiso   1.00
C379   C     0.79717   0.83933   0.97680   0.00000  Uiso   1.00
C380   C     0.80080   0.78904   0.96231   0.00000  Uiso   1.00
C381   C     0.77122   0.77482   0.12158   0.00000  Uiso   1.00
O382   O     0.74692   0.81605   0.18632   0.00000  Uiso   1.00
O383   O     0.80896   0.91827   0.01285   0.00000  Uiso   1.00
O384   O     0.77783   0.74126   0.26057   0.00000  Uiso   1.00
O385   O     0.35974   0.12852   0.18414   0.00000  Uiso   1.00
H386   H     0.77552   0.84575   0.10042   0.00000  Uiso   1.00
H387   H     0.77525   0.84521   0.85355   0.00000  Uiso   1.00
H388   H     0.78704   0.77692   0.82716   0.00000  Uiso   1.00
H389   H     0.83657   0.77882   0.97887   0.00000  Uiso   1.00
H390   H     0.72102   0.80659   0.28499   0.00000  Uiso   1.00
H391   H     0.33169   0.14198   0.26268   0.00000  Uiso   1.00
C392   C     0.46140   0.98870   0.12190   0.00000  Uiso   1.00
C393   C     0.46490   0.95060   0.01600   0.00000  Uiso   1.00
C394   C     0.93110   0.43930   0.39500   0.00000  Uiso   1.00
C395   C     0.89380   0.46620   0.38000   0.00000  Uiso   1.00
C396   C     0.89030   0.50430   0.48600   0.00000  Uiso   1.00
C397   C     0.42410   0.01560   0.10700   0.00000  Uiso   1.00
C398   C     0.86080   0.45680   0.24400   0.00000  Uiso   1.00
N399   N     0.86500   0.43160   0.10200   0.00000  Uiso   1.00
C400   C     0.83180   0.42570   0.96200   0.00000  Uiso   1.00
C401   C     0.79220   0.44900   0.97600   0.00000  Uiso   1.00
C402   C     0.75940   0.44340   0.84400   0.00000  Uiso   1.00
C403   C     0.26630   0.91450   0.19740   0.00000  Uiso   1.00
C404   C     0.30600   0.89130   0.18400   0.00000  Uiso   1.00
C405   C     0.33870   0.89690   0.31600   0.00000  Uiso   1.00
H406   H     0.49518   0.92882   0.02818   0.00000  Uiso   1.00
H407   H     0.93390   0.40831   0.30891   0.00000  Uiso   1.00
H408   H     0.86002   0.52608   0.47388   0.00000  Uiso   1.00
H409   H     0.42130   0.04658   0.19316   0.00000  Uiso   1.00
H410   H     0.82681   0.47219   0.25523   0.00000  Uiso   1.00
H411   H     0.78669   0.47247   0.09458   0.00000  Uiso   1.00
H412   H     0.72720   0.46225   0.85557   0.00000  Uiso   1.00
H413   H     0.31168   0.86784   0.06552   0.00000  Uiso   1.00
C414   C     0.46140   0.51130   0.62810   0.00000  Uiso   1.00
C415   C     0.96490   0.04940   0.23400   0.00000  Uiso   1.00
C416   C     0.43110   0.56070   0.85500   0.00000  Uiso   1.00
C417   C     0.39380   0.53380   0.87000   0.00000  Uiso   1.00
C418   C     0.39030   0.49570   0.76400   0.00000  Uiso   1.00
C419   C     0.42410   0.48440   0.64300   0.00000  Uiso   1.00
C420   C     0.36080   0.54320   0.00600   0.00000  Uiso   1.00
N421   N     0.36500   0.56840   0.14800   0.00000  Uiso   1.00
C422   C     0.33180   0.57430   0.28800   0.00000  Uiso   1.00
C423   C     0.29220   0.55100   0.27400   0.00000  Uiso   1.00
C424   C     0.75940   0.05660   0.90600   0.00000  Uiso   1.00
C425   C     0.76630   0.08550   0.05260   0.00000  Uiso   1.00
C426   C     0.80600   0.10870   0.06600   0.00000  Uiso   1.00
C427   C     0.83870   0.10310   0.93400   0.00000  Uiso   1.00
O428   O     0.37549   0.62593   0.44312   0.00000  Uiso   1.00
H429   H     0.99518   0.07118   0.22182   0.00000  Uiso   1.00
H430   H     0.93390   0.09169   0.44109   0.00000  Uiso   1.00
H431   H     0.36002   0.47392   0.77612   0.00000  Uiso   1.00
H432   H     0.42130   0.45342   0.55684   0.00000  Uiso   1.00
H433   H     0.32681   0.52781   0.99477   0.00000  Uiso   1.00
H434   H     0.28669   0.52753   0.15542   0.00000  Uiso   1.00
H435   H     0.72720   0.03775   0.89443   0.00000  Uiso   1.00
H436   H     0.31168   0.63216   0.68448   0.00000  Uiso   1.00
C437   C     0.37470   0.66676   0.51656   0.00000  Uiso   1.00
C438   C     0.29717   0.33933   0.47680   0.00000  Uiso   1.00
C439   C     0.30080   0.28904   0.46231   0.00000  Uiso   1.00
C440   C     0.27122   0.27482   0.62158   0.00000  Uiso   1.00
O441   O     0.24692   0.31605   0.68632   0.00000  Uiso   1.00
O442   O     0.30896   0.41827   0.51285   0.00000  Uiso   1.00
O443   O     0.27783   0.24126   0.76057   0.00000  Uiso   1.00
O444   O     0.85974   0.62852   0.68414   0.00000  Uiso   1.00
H445   H     0.27552   0.34575   0.60042   0.00000  Uiso   1.00
H446   H     0.27525   0.34521   0.35355   0.00000  Uiso   1.00
H447   H     0.28704   0.27692   0.32716   0.00000  Uiso   1.00
H448   H     0.33657   0.27882   0.47887   0.00000  Uiso   1.00
H449   H     0.22102   0.30659   0.78499   0.00000  Uiso   1.00
H450   H     0.83169   0.64198   0.76268   0.00000  Uiso   1.00
C451   C     0.96140   0.48870   0.62190   0.00000  Uiso   1.00
C452   C     0.96490   0.45060   0.51600   0.00000  Uiso   1.00
C453   C     0.43110   0.93930   0.89500   0.00000  Uiso   1.00
C454   C     0.39380   0.96620   0.88000   0.00000  Uiso   1.00
C455   C     0.39030   0.00430   0.98600   0.00000  Uiso   1.00
C456   C     0.92410   0.51560   0.60700   0.00000  Uiso   1.00
C457   C     0.36080   0.95680   0.74400   0.00000  Uiso   1.00
N458   N     0.36500   0.93160   0.60200   0.00000  Uiso   1.00
C459   C     0.33180   0.92570   0.46200   0.00000  Uiso   1.00
C460   C     0.29220   0.94900   0.47600   0.00000  Uiso   1.00
C461   C     0.25940   0.94340   0.34400   0.00000  Uiso   1.00
C462   C     0.76630   0.41450   0.69740   0.00000  Uiso   1.00
C463   C     0.80600   0.39130   0.68400   0.00000  Uiso   1.00
C464   C     0.83870   0.39690   0.81600   0.00000  Uiso   1.00
H465   H     0.99518   0.42882   0.52818   0.00000  Uiso   1.00
H466   H     0.43390   0.90831   0.80891   0.00000  Uiso   1.00
H467   H     0.36002   0.02608   0.97388   0.00000  Uiso   1.00
H468   H     0.92130   0.54658   0.69316   0.00000  Uiso   1.00
H469   H     0.32681   0.97219   0.75523   0.00000  Uiso   1.00
H470   H     0.28669   0.97247   0.59458   0.00000  Uiso   1.00
H471   H     0.22720   0.96225   0.35557   0.00000  Uiso   1.00
H472   H     0.81168   0.36784   0.56552   0.00000  Uiso   1.00
C473   C     0.00000   0.00000   0.00000   0.00000  Uiso   1.00
C474   C     0.50000   0.50000   0.50000   0.00000  Uiso   1.00
C475   C     0.00000   0.50000   0.75000   0.00000  Uiso   1.00
C476   C     0.50000   0.00000   0.25000   0.00000  Uiso   1.00
loop_
_geom_bond_atom_site_label_1
_geom_bond_atom_site_label_2
_geom_bond_distance
_geom_bond_site_symmetry_2
_ccdc_geom_bond_type
C1     C6      1.415   1_455 D
C1     C61     1.420   .     S
C1     C473    1.567   1_556 S
C2     H16     1.148   .     S
C2     C60     1.420   .     S
C2     C62     1.424   .     D
C3     C4      1.416   .     S
C3     C61     1.424   .     D
C3     H76     1.155   .     S
C4     C5      1.420   1_455 D
C4     C7      1.470   .     S
C5     C4      1.420   1_655 D
C5     C6      1.424   .     S
C5     H18     1.148   .     S
C6     C1      1.415   1_655 D
C6     H19     1.155   .     S
C7     N8      1.327   .     D
C7     H20     1.148   .     S
N8     C9      1.478   .     S
C9     C10     1.414   .     S
C9     C73     1.428   .     D
C10    H21     1.161   .     S
C10    C70     1.426   .     D
C11    C12     1.433   .     S
C11    H22     1.148   .     S
C11    C69     1.426   .     D
C12    C13     1.414   .     D
C12    C226    1.481   .     S
C13    C14     1.424   .     S
C13    H82     1.161   .     S
C14    C68     1.428   .     D
C14    O74     1.330   .     S
O15    C24     1.370   1_554 S
O15    C73     1.330   .     S
H17    C62     1.155   .     S
H23    C72     1.161   .     S
C24    O15     1.370   1_556 S
C24    C261    1.551   .     S
C24    O265    1.546   1_556 D
C25    C26     1.551   .     S
C25    H32     1.162   1_554 S
C25    H33     1.162   .     S
C25    C378    1.551   .     S
C26    C27     1.568   1_554 S
C26    H34     1.164   .     S
C26    H35     1.148   .     S
C27    C26     1.568   1_556 S
C27    O28     1.547   .     S
C27    O30     1.483   .     D
O28    H36     1.127   .     S
O29    C378    1.546   1_556 D
O31    H37     1.123   .     S
O31    C346    1.520   .     S
H32    C25     1.162   1_556 S
C38    C39     1.420   .     S
C38    C43     1.415   1_655 D
C38    C475    1.567   1_655 S
C39    H52     1.148   .     S
C39    C99     1.424   1_556 D
C40    C41     1.416   .     S
C40    H53     1.155   .     S
C40    C98     1.424   .     D
C41    C42     1.420   .     D
C41    C44     1.470   .     S
C42    H54     1.148   .     S
C42    C102    1.424   .     S
C43    C38     1.415   1_455 D
C43    H55     1.155   .     S
C43    C101    1.424   1_556 S
C44    N45     1.327   .     D
C44    H56     1.148   .     S
N45    C46     1.478   1_556 S
C46    N45     1.478   1_554 S
C46    C47     1.414   .     S
C46    C110    1.428   .     D
C47    C48     1.426   .     D
C47    H57     1.161   1_554 S
C48    H58     1.148   .     S
C48    C108    1.433   .     S
C49    C50     1.414   .     D
C49    C107    1.433   .     S
C49    C189    1.481   .     S
C50    C51     1.424   .     S
C50    H59     1.161   .     S
C51    C105    1.428   .     D
C51    O444    1.520   .     S
H57    C47     1.161   1_556 S
C60    C65     1.415   .     D
C60    C474    1.567   .     S
C61    H75     1.148   .     S
C62    C63     1.416   .     S
C63    C64     1.420   .     D
C63    C66     1.470   1_554 S
C64    C65     1.424   .     S
C64    H77     1.148   .     S
C65    H78     1.155   .     S
C66    C63     1.470   1_556 S
C66    N67     1.327   .     D
C66    H79     1.148   1_556 S
N67    C68     1.478   .     S
C68    C69     1.414   .     S
C69    H80     1.161   .     S
C70    C71     1.433   1_554 S
C70    H81     1.148   .     S
C71    C70     1.433   1_556 S
C71    C72     1.414   .     D
C71    C167    1.481   .     S
C72    C73     1.424   1_556 S
C73    C72     1.424   1_554 S
O74    C83     1.370   .     S
H79    C66     1.148   1_554 S
C83    C320    1.551   .     S
C83    O324    1.546   .     D
C84    C85     1.551   .     S
C84    H91     1.162   .     S
C84    H92     1.162   .     S
C84    C437    1.551   .     S
C85    C86     1.568   .     S
C85    H93     1.164   .     S
C85    H94     1.148   .     S
C86    O87     1.547   .     S
C86    O89     1.483   .     D
O87    H95     1.127   .     S
O88    C437    1.546   .     D
O90    H96     1.123   .     S
O90    C287    1.520   .     S
C97    C98     1.420   .     S
C97    C102    1.415   .     D
C97    C476    1.567   .     S
C98    H111    1.148   .     S
C99    C39     1.424   1_554 D
C99    C100    1.416   .     S
C99    H112    1.155   .     S
C100   C101    1.420   1_655 D
C100   C103    1.470   .     S
C101   C100    1.420   1_455 D
C101   C43     1.424   1_554 S
C101   H113    1.148   .     S
C102   H114    1.155   .     S
C103   N104    1.327   .     D
C103   H115    1.148   .     S
N104   C105    1.478   .     S
C105   C106    1.414   .     S
C106   C107    1.426   .     D
C106   H116    1.161   .     S
C107   H117    1.148   .     S
C108   C109    1.414   .     D
C108   C130    1.481   .     S
C109   C110    1.424   .     S
C109   H118    1.161   .     S
C110   O385    1.520   .     S
C119   C124    1.415   1_655 S
C119   C179    1.420   .     D
C119   C473    1.567   1_666 S
C120   H134    1.148   .     S
C120   C178    1.420   .     S
C120   C180    1.424   .     D
C121   C122    1.416   .     D
C121   C179    1.424   .     S
C121   H194    1.155   .     S
C122   C123    1.420   1_655 S
C122   C125    1.470   .     S
C123   C122    1.420   1_455 S
C123   C124    1.424   .     D
C123   H136    1.148   .     S
C124   C119    1.415   1_455 S
C124   H137    1.155   .     S
C125   N126    1.327   .     D
C125   H138    1.148   .     S
N126   C127    1.478   .     S
C127   C128    1.414   .     D
C127   C191    1.428   .     S
C128   H139    1.161   .     S
C128   C188    1.426   .     S
C129   C130    1.433   .     D
C129   H140    1.148   .     S
C129   C187    1.426   .     S
C130   C131    1.414   .     S
C131   C132    1.424   .     D
C131   H200    1.161   .     S
C132   C186    1.428   .     S
C132   O192    1.330   .     S
O133   C142    1.370   1_554 S
O133   C191    1.330   .     S
H135   C180    1.155   .     S
H141   C190    1.161   .     S
C142   O133    1.370   1_556 S
C142   C379    1.551   .     S
C142   O383    1.546   1_556 D
C143   C144    1.551   .     S
C143   H150    1.162   1_554 S
C143   H151    1.162   .     S
C143   C260    1.551   .     S
C144   C145    1.568   1_554 S
C144   H152    1.164   .     S
C144   H153    1.148   .     S
C145   C144    1.568   1_556 S
C145   O146    1.547   .     S
C145   O148    1.483   .     D
O146   H154    1.127   .     S
O147   C260    1.546   1_556 D
O149   H155    1.123   .     S
O149   C464    1.520   .     S
H150   C143    1.162   1_556 S
C156   C157    1.420   .     S
C156   C161    1.415   1_455 D
C156   C475    1.567   .     S
C157   H170    1.148   .     S
C157   C217    1.424   1_556 D
C158   C159    1.416   .     D
C158   H171    1.155   .     S
C158   C216    1.424   .     S
C159   C160    1.420   .     S
C159   C162    1.470   .     S
C160   H172    1.148   .     S
C160   C220    1.424   .     D
C161   C156    1.415   1_655 D
C161   H173    1.155   .     S
C161   C219    1.424   1_556 S
C162   N163    1.327   .     D
C162   H174    1.148   .     S
N163   C164    1.478   1_556 S
C164   N163    1.478   1_554 S
C164   C165    1.414   .     D
C164   C228    1.428   .     S
C165   C166    1.426   .     S
C165   H175    1.161   1_554 S
C166   H176    1.148   .     S
C166   C226    1.433   .     D
C167   C168    1.414   .     S
C167   C225    1.433   .     D
C168   C169    1.424   .     D
C168   H177    1.161   .     S
C169   C223    1.428   .     S
C169   O326    1.520   .     S
H175   C165    1.161   1_556 S
C178   C183    1.415   .     D
C178   C474    1.567   .     S
C179   H193    1.148   .     S
C180   C181    1.416   .     S
C181   C182    1.420   .     D
C181   C184    1.470   1_554 S
C182   C183    1.424   .     S
C182   H195    1.148   .     S
C183   H196    1.155   .     S
C184   C181    1.470   1_556 S
C184   N185    1.327   .     D
C184   H197    1.148   1_556 S
N185   C186    1.478   .     S
C186   C187    1.414   .     D
C187   H198    1.161   .     S
C188   C189    1.433   1_554 D
C188   H199    1.148   .     S
C189   C188    1.433   1_556 D
C189   C190    1.414   .     S
C190   C191    1.424   1_556 D
C191   C190    1.424   1_554 D
O192   C201    1.370   .     S
H197   C184    1.148   1_554 S
C201   C438    1.551   .     S
C201   O442    1.546   .     D
C202   C203    1.551   .     S
C202   H209    1.162   .     S
C202   H210    1.162   .     S
C202   C319    1.551   .     S
C203   C204    1.568   .     S
C203   H211    1.164   .     S
C203   H212    1.148   .     S
C204   O205    1.547   .     S
C204   O207    1.483   .     D
O205   H213    1.127   .     S
O206   C319    1.546   .     D
O208   H214    1.123   .     S
O208   C405    1.520   .     S
C215   C216    1.420   .     D
C215   C220    1.415   .     S
C215   C476    1.567   1_565 S
C216   H229    1.148   .     S
C217   C157    1.424   1_554 D
C217   C218    1.416   .     S
C217   H230    1.155   .     S
C218   C219    1.420   1_455 D
C218   C221    1.470   .     S
C219   C218    1.420   1_655 D
C219   C161    1.424   1_554 S
C219   H231    1.148   .     S
C220   H232    1.155   .     S
C221   N222    1.327   .     D
C221   H233    1.148   .     S
N222   C223    1.478   .     S
C223   C224    1.414   .     D
C224   C225    1.426   .     S
C224   H234    1.161   .     S
C225   H235    1.148   .     S
C226   C227    1.414   .     S
C227   C228    1.424   .     D
C227   H236    1.161   .     S
C228   O267    1.520   .     S
C237   C242    1.415   1_565 S
C237   C297    1.420   .     D
C237   C473    1.567   1_565 S
C238   H252    1.148   .     S
C238   C296    1.420   .     S
C238   C298    1.424   .     D
C239   C240    1.416   .     D
C239   C297    1.424   .     S
C239   H312    1.155   .     S
C240   C241    1.420   1_565 S
C240   C243    1.470   .     S
C241   C240    1.420   1_545 S
C241   C242    1.424   .     D
C241   H254    1.148   .     S
C242   C237    1.415   1_545 S
C242   H255    1.155   .     S
C243   N244    1.327   .     D
C243   H256    1.148   .     S
N244   C245    1.478   .     S
C245   C246    1.414   .     D
C245   C309    1.428   .     S
C246   H257    1.161   .     S
C246   C306    1.426   .     S
C247   C248    1.433   .     S
C247   H258    1.148   .     S
C247   C305    1.426   .     D
C248   C249    1.414   .     D
C248   C462    1.481   .     S
C249   C250    1.424   .     S
C249   H318    1.161   .     S
C250   C304    1.428   .     D
C250   O310    1.330   .     S
O251   C260    1.370   1_556 S
O251   C309    1.330   .     S
H253   C298    1.155   .     S
H259   C308    1.161   .     S
C260   O251    1.370   1_554 S
C260   O147    1.546   1_554 D
C261   C262    1.551   .     S
C261   H268    1.162   1_556 S
C261   H269    1.162   .     S
C262   C263    1.568   1_556 S
C262   H270    1.164   .     S
C262   H271    1.148   .     S
C263   C262    1.568   1_554 S
C263   O264    1.547   .     S
C263   O266    1.483   .     D
O264   H272    1.127   .     S
O265   C24     1.546   1_554 D
O267   H273    1.123   .     S
H268   C261    1.162   1_554 S
C274   C275    1.420   .     D
C274   C279    1.415   1_545 S
C274   C476    1.567   .     S
C275   H288    1.148   .     S
C275   C335    1.424   1_554 S
C276   C277    1.416   .     S
C276   H289    1.155   .     S
C276   C334    1.424   .     D
C277   C278    1.420   .     D
C277   C280    1.470   .     S
C278   H290    1.148   .     S
C278   C338    1.424   .     S
C279   C274    1.415   1_565 S
C279   H291    1.155   .     S
C279   C337    1.424   1_554 D
C280   N281    1.327   .     D
C280   H292    1.148   .     S
N281   C282    1.478   1_554 S
C282   N281    1.478   1_556 S
C282   C283    1.414   .     S
C282   C346    1.428   .     D
C283   C284    1.426   .     D
C283   H293    1.161   1_556 S
C284   H294    1.148   .     S
C284   C344    1.433   .     S
C285   C286    1.414   .     D
C285   C343    1.433   .     S
C285   C425    1.481   .     S
C286   C287    1.424   .     S
C286   H295    1.161   .     S
C287   C341    1.428   .     D
H293   C283    1.161   1_554 S
C296   C301    1.415   .     D
C296   C474    1.567   .     S
C297   H311    1.148   .     S
C298   C299    1.416   .     S
C299   C300    1.420   .     D
C299   C302    1.470   1_556 S
C300   C301    1.424   .     S
C300   H313    1.148   .     S
C301   H314    1.155   .     S
C302   C299    1.470   1_554 S
C302   N303    1.327   .     D
C302   H315    1.148   1_554 S
N303   C304    1.478   .     S
C304   C305    1.414   .     S
C305   H316    1.161   .     S
C306   C307    1.433   1_556 D
C306   H317    1.148   .     S
C307   C306    1.433   1_554 D
C307   C308    1.414   .     S
C307   C403    1.481   .     S
C308   C309    1.424   1_554 D
C309   C308    1.424   1_556 D
O310   C319    1.370   .     S
H315   C302    1.148   1_556 S
C320   C321    1.551   .     S
C320   H327    1.162   .     S
C320   H328    1.162   .     S
C321   C322    1.568   .     S
C321   H329    1.164   .     S
C321   H330    1.148   .     S
C322   O323    1.547   .     S
C322   O325    1.483   .     D
O323   H331    1.127   .     S
O326   H332    1.123   .     S
C333   C334    1.420   .     S
C333   C338    1.415   .     D
C333   C475    1.567   .     S
C334   H347    1.148   .     S
C335   C275    1.424   1_556 S
C335   C336    1.416   .     D
C335   H348    1.155   .     S
C336   C337    1.420   1_545 S
C336   C339    1.470   .     S
C337   C279    1.424   1_556 D
C337   C336    1.420   1_565 S
C337   H349    1.148   .     S
C338   H350    1.155   .     S
C339   N340    1.327   .     D
C339   H351    1.148   .     S
N340   C341    1.478   .     S
C341   C342    1.414   .     S
C342   C343    1.426   .     D
C342   H352    1.161   .     S
C343   H353    1.148   .     S
C344   C345    1.414   .     D
C344   C366    1.481   .     S
C345   C346    1.424   .     S
C345   H354    1.161   .     S
C355   C360    1.415   1_545 S
C355   C415    1.420   .     D
C355   C473    1.567   1_655 S
C356   H370    1.148   .     S
C356   C414    1.420   .     S
C356   C416    1.424   .     D
C357   C358    1.416   .     D
C357   C415    1.424   .     S
C357   H430    1.155   .     S
C358   C359    1.420   1_545 S
C358   C361    1.470   .     S
C359   C358    1.420   1_565 S
C359   C360    1.424   .     D
C359   H372    1.148   .     S
C360   C355    1.415   1_565 S
C360   H373    1.155   .     S
C361   N362    1.327   .     D
C361   H374    1.148   .     S
N362   C363    1.478   .     S
C363   C364    1.414   .     S
C363   C427    1.428   .     D
C364   H375    1.161   .     S
C364   C424    1.426   .     D
C365   C366    1.433   .     D
C365   H376    1.148   .     S
C365   C423    1.426   .     S
C366   C367    1.414   .     S
C367   C368    1.424   .     D
C367   H436    1.161   .     S
C368   C422    1.428   .     S
C368   O428    1.330   .     S
O369   C378    1.370   1_556 S
O369   C427    1.330   .     S
H371   C416    1.155   .     S
H377   C426    1.161   .     S
C378   O29     1.546   1_554 D
C378   O369    1.370   1_554 S
C379   C380    1.551   .     S
C379   H386    1.162   1_556 S
C379   H387    1.162   .     S
C380   C381    1.568   1_556 S
C380   H388    1.164   .     S
C380   H389    1.148   .     S
C381   C380    1.568   1_554 S
C381   O382    1.547   .     S
C381   O384    1.483   .     D
O382   H390    1.127   .     S
O383   C142    1.546   1_554 D
O385   H391    1.123   .     S
H386   C379    1.162   1_554 S
C392   C393    1.420   .     D
C392   C397    1.415   1_565 S
C392   C476    1.567   1_565 S
C393   H406    1.148   .     S
C393   C453    1.424   1_554 S
C394   C395    1.416   .     S
C394   H407    1.155   .     S
C394   C452    1.424   .     D
C395   C396    1.420   .     D
C395   C398    1.470   .     S
C396   H408    1.148   .     S
C396   C456    1.424   .     S
C397   C392    1.415   1_545 S
C397   H409    1.155   .     S
C397   C455    1.424   1_554 D
C398   N399    1.327   .     D
C398   H410    1.148   .     S
N399   C400    1.478   1_554 S
C400   N399    1.478   1_556 S
C400   C401    1.414   .     S
C400   C464    1.428   .     D
C401   C402    1.426   .     D
C401   H411    1.161   1_556 S
C402   H412    1.148   .     S
C402   C462    1.433   .     S
C403   C404    1.414   .     S
C403   C461    1.433   .     D
C404   C405    1.424   .     D
C404   H413    1.161   .     S
C405   C459    1.428   .     S
H411   C401    1.161   1_554 S
C414   C419    1.415   .     D
C414   C474    1.567   .     S
C415   H429    1.148   .     S
C416   C417    1.416   .     S
C417   C418    1.420   .     D
C417   C420    1.470   1_556 S
C418   C419    1.424   .     S
C418   H431    1.148   .     S
C419   H432    1.155   .     S
C420   C417    1.470   1_554 S
C420   N421    1.327   .     D
C420   H433    1.148   1_554 S
N421   C422    1.478   .     S
C422   C423    1.414   .     D
C423   H434    1.161   .     S
C424   C425    1.433   1_556 S
C424   H435    1.148   .     S
C425   C424    1.433   1_554 S
C425   C426    1.414   .     D
C426   C427    1.424   1_554 S
C427   C426    1.424   1_556 S
O428   C437    1.370   .     S
H433   C420    1.148   1_556 S
C438   C439    1.551   .     S
C438   H445    1.162   .     S
C438   H446    1.162   .     S
C439   C440    1.568   .     S
C439   H447    1.164   .     S
C439   H448    1.148   .     S
C440   O441    1.547   .     S
C440   O443    1.483   .     D
O441   H449    1.127   .     S
O444   H450    1.123   .     S
C451   C452    1.420   .     S
C451   C456    1.415   .     D
C451   C475    1.567   1_655 S
C452   H465    1.148   .     S
C453   C393    1.424   1_556 S
C453   C454    1.416   .     D
C453   H466    1.155   .     S
C454   C455    1.420   1_565 S
C454   C457    1.470   .     S
C455   C397    1.424   1_556 D
C455   C454    1.420   1_545 S
C455   H467    1.148   .     S
C456   H468    1.155   .     S
C457   N458    1.327   .     D
C457   H469    1.148   .     S
N458   C459    1.478   .     S
C459   C460    1.414   .     D
C460   C461    1.426   .     S
C460   H470    1.161   .     S
C461   H471    1.148   .     S
C462   C463    1.414   .     D
C463   C464    1.424   .     S
C463   H472    1.161   .     S
C473   C355    1.567   1_455 S
C473   C237    1.567   1_545 S
C473   C1      1.567   1_554 S
C473   C119    1.567   1_444 S
C475   C38     1.567   1_455 S
C475   C451    1.567   1_455 S
C476   C215    1.567   1_545 S
C476   C392    1.567   1_545 S
