data_813
_audit_creation_date              2023-09-08
_audit_creation_method            'Materials Studio'
_symmetry_space_group_name_H-M    'P1'
_symmetry_Int_Tables_number       1
_symmetry_cell_setting            triclinic
loop_
_symmetry_equiv_pos_as_xyz
  x,y,z
_cell_length_a                    50.1100
_cell_length_b                    50.1100
_cell_length_c                    50.1100
_cell_angle_alpha                 90.0000
_cell_angle_beta                  90.0000
_cell_angle_gamma                 90.0000
loop_
_atom_site_label
_atom_site_type_symbol
_atom_site_fract_x
_atom_site_fract_y
_atom_site_fract_z
_atom_site_U_iso_or_equiv
_atom_site_adp_type
_atom_site_occupancy
C1     C     0.46212   0.09726   0.42538   0.00000  Uiso   1.00
C2     C     0.48354   0.07958   0.42835   0.00000  Uiso   1.00
C3     C     0.50317   0.08387   0.44794   0.00000  Uiso   1.00
C4     C     0.50057   0.10672   0.46440   0.00000  Uiso   1.00
C5     C     0.47874   0.12447   0.46150   0.00000  Uiso   1.00
C6     C     0.45925   0.11971   0.44184   0.00000  Uiso   1.00
C7     C     0.52594   0.06446   0.45082   0.00000  Uiso   1.00
N1     N     0.52882   0.04387   0.43313   0.00000  Uiso   1.00
C8     C     0.65049   0.18822   0.58068   0.00000  Uiso   1.00
C9     C     0.63779   0.16598   0.59215   0.00000  Uiso   1.00
C10    C     0.63745   0.20067   0.55898   0.00000  Uiso   1.00
O1     O     0.65044   0.15130   0.61191   0.00000  Uiso   1.00
N2     N     0.56269   0.06398   0.63624   0.00000  Uiso   1.00
C11    C     0.57350   0.15784   0.55155   0.00000  Uiso   1.00
H1     H     0.44734   0.09336   0.41012   0.00000  Uiso   1.00
H2     H     0.48464   0.06245   0.41523   0.00000  Uiso   1.00
H3     H     0.51548   0.11091   0.47946   0.00000  Uiso   1.00
H4     H     0.47719   0.14165   0.47450   0.00000  Uiso   1.00
H5     H     0.64657   0.21776   0.54937   0.00000  Uiso   1.00
H6     H     0.56330   0.16701   0.53485   0.00000  Uiso   1.00
C12    C     0.46212   0.59726   0.92538   0.00000  Uiso   1.00
C13    C     0.48354   0.57958   0.92835   0.00000  Uiso   1.00
C14    C     0.50317   0.58387   0.94794   0.00000  Uiso   1.00
C15    C     0.50057   0.60672   0.96440   0.00000  Uiso   1.00
C16    C     0.47874   0.62447   0.96150   0.00000  Uiso   1.00
C17    C     0.45925   0.61971   0.94184   0.00000  Uiso   1.00
C18    C     0.52594   0.56446   0.95082   0.00000  Uiso   1.00
N3     N     0.52882   0.54387   0.93313   0.00000  Uiso   1.00
C19    C     0.65049   0.68822   0.08068   0.00000  Uiso   1.00
C20    C     0.63779   0.66598   0.09215   0.00000  Uiso   1.00
C21    C     0.63745   0.70067   0.05898   0.00000  Uiso   1.00
O2     O     0.65044   0.65130   0.11191   0.00000  Uiso   1.00
N4     N     0.56269   0.56398   0.13624   0.00000  Uiso   1.00
C22    C     0.57350   0.65784   0.05155   0.00000  Uiso   1.00
H7     H     0.44734   0.59336   0.91012   0.00000  Uiso   1.00
H8     H     0.48464   0.56245   0.91523   0.00000  Uiso   1.00
H9     H     0.51548   0.61091   0.97946   0.00000  Uiso   1.00
H10    H     0.47719   0.64165   0.97450   0.00000  Uiso   1.00
H11    H     0.64657   0.71776   0.04937   0.00000  Uiso   1.00
H12    H     0.56330   0.66701   0.03485   0.00000  Uiso   1.00
C23    C     0.96212   0.09726   0.92538   0.00000  Uiso   1.00
C24    C     0.98354   0.07958   0.92835   0.00000  Uiso   1.00
C25    C     0.00317   0.08387   0.94794   0.00000  Uiso   1.00
C26    C     0.00057   0.10672   0.96440   0.00000  Uiso   1.00
C27    C     0.97874   0.12447   0.96150   0.00000  Uiso   1.00
C28    C     0.95925   0.11971   0.94184   0.00000  Uiso   1.00
C29    C     0.02594   0.06446   0.95082   0.00000  Uiso   1.00
N5     N     0.02882   0.04387   0.93313   0.00000  Uiso   1.00
C30    C     0.15049   0.18822   0.08068   0.00000  Uiso   1.00
C31    C     0.13779   0.16598   0.09215   0.00000  Uiso   1.00
C32    C     0.13745   0.20067   0.05898   0.00000  Uiso   1.00
O3     O     0.15044   0.15130   0.11191   0.00000  Uiso   1.00
N6     N     0.06269   0.06398   0.13624   0.00000  Uiso   1.00
C33    C     0.07350   0.15784   0.05155   0.00000  Uiso   1.00
H13    H     0.94734   0.09336   0.91012   0.00000  Uiso   1.00
H14    H     0.98464   0.06245   0.91523   0.00000  Uiso   1.00
H15    H     0.01548   0.11091   0.97946   0.00000  Uiso   1.00
H16    H     0.97719   0.14165   0.97450   0.00000  Uiso   1.00
H17    H     0.14657   0.21776   0.04937   0.00000  Uiso   1.00
H18    H     0.06330   0.16701   0.03485   0.00000  Uiso   1.00
C34    C     0.96212   0.59726   0.42538   0.00000  Uiso   1.00
C35    C     0.98354   0.57958   0.42835   0.00000  Uiso   1.00
C36    C     0.00317   0.58387   0.44794   0.00000  Uiso   1.00
C37    C     0.00057   0.60672   0.46440   0.00000  Uiso   1.00
C38    C     0.97874   0.62447   0.46150   0.00000  Uiso   1.00
C39    C     0.95925   0.61971   0.44184   0.00000  Uiso   1.00
C40    C     0.02594   0.56446   0.45082   0.00000  Uiso   1.00
N7     N     0.02882   0.54387   0.43313   0.00000  Uiso   1.00
C41    C     0.15049   0.68822   0.58068   0.00000  Uiso   1.00
C42    C     0.13779   0.66598   0.59215   0.00000  Uiso   1.00
C43    C     0.13745   0.70067   0.55898   0.00000  Uiso   1.00
O4     O     0.15044   0.65130   0.61191   0.00000  Uiso   1.00
N8     N     0.06269   0.56398   0.63624   0.00000  Uiso   1.00
C44    C     0.07350   0.65784   0.55155   0.00000  Uiso   1.00
H19    H     0.94734   0.59336   0.41012   0.00000  Uiso   1.00
H20    H     0.98464   0.56245   0.41523   0.00000  Uiso   1.00
H21    H     0.01548   0.61091   0.47946   0.00000  Uiso   1.00
H22    H     0.97719   0.64165   0.47450   0.00000  Uiso   1.00
H23    H     0.14657   0.71776   0.54937   0.00000  Uiso   1.00
H24    H     0.06330   0.66701   0.53485   0.00000  Uiso   1.00
C45    C     0.53788   0.40274   0.92538   0.00000  Uiso   1.00
C46    C     0.51646   0.42042   0.92835   0.00000  Uiso   1.00
C47    C     0.49683   0.41613   0.94794   0.00000  Uiso   1.00
C48    C     0.49943   0.39328   0.96440   0.00000  Uiso   1.00
C49    C     0.52126   0.37553   0.96150   0.00000  Uiso   1.00
C50    C     0.54075   0.38029   0.94184   0.00000  Uiso   1.00
C51    C     0.47406   0.43554   0.95082   0.00000  Uiso   1.00
N9     N     0.47118   0.45613   0.93313   0.00000  Uiso   1.00
C52    C     0.34951   0.31178   0.08068   0.00000  Uiso   1.00
C53    C     0.36221   0.33402   0.09215   0.00000  Uiso   1.00
C54    C     0.36255   0.29933   0.05898   0.00000  Uiso   1.00
O5     O     0.34956   0.34870   0.11191   0.00000  Uiso   1.00
N10    N     0.43731   0.43602   0.13624   0.00000  Uiso   1.00
C55    C     0.42650   0.34216   0.05155   0.00000  Uiso   1.00
H25    H     0.55266   0.40664   0.91012   0.00000  Uiso   1.00
H26    H     0.51536   0.43755   0.91523   0.00000  Uiso   1.00
H27    H     0.48452   0.38909   0.97946   0.00000  Uiso   1.00
H28    H     0.52281   0.35835   0.97450   0.00000  Uiso   1.00
H29    H     0.35343   0.28224   0.04937   0.00000  Uiso   1.00
H30    H     0.43670   0.33299   0.03485   0.00000  Uiso   1.00
C56    C     0.53788   0.90274   0.42538   0.00000  Uiso   1.00
C57    C     0.51646   0.92042   0.42835   0.00000  Uiso   1.00
C58    C     0.49683   0.91613   0.44794   0.00000  Uiso   1.00
C59    C     0.49943   0.89328   0.46440   0.00000  Uiso   1.00
C60    C     0.52126   0.87553   0.46150   0.00000  Uiso   1.00
C61    C     0.54075   0.88029   0.44184   0.00000  Uiso   1.00
C62    C     0.47406   0.93554   0.45082   0.00000  Uiso   1.00
N11    N     0.47118   0.95613   0.43313   0.00000  Uiso   1.00
C63    C     0.34951   0.81178   0.58068   0.00000  Uiso   1.00
C64    C     0.36221   0.83402   0.59215   0.00000  Uiso   1.00
C65    C     0.36255   0.79933   0.55898   0.00000  Uiso   1.00
O6     O     0.34956   0.84870   0.61191   0.00000  Uiso   1.00
N12    N     0.43731   0.93602   0.63624   0.00000  Uiso   1.00
C66    C     0.42650   0.84216   0.55155   0.00000  Uiso   1.00
H31    H     0.55266   0.90664   0.41012   0.00000  Uiso   1.00
H32    H     0.51536   0.93755   0.41523   0.00000  Uiso   1.00
H33    H     0.48452   0.88909   0.47946   0.00000  Uiso   1.00
H34    H     0.52281   0.85835   0.47450   0.00000  Uiso   1.00
H35    H     0.35343   0.78224   0.54937   0.00000  Uiso   1.00
H36    H     0.43670   0.83299   0.53485   0.00000  Uiso   1.00
C67    C     0.03788   0.40274   0.42538   0.00000  Uiso   1.00
C68    C     0.01646   0.42042   0.42835   0.00000  Uiso   1.00
C69    C     0.99683   0.41613   0.44794   0.00000  Uiso   1.00
C70    C     0.99943   0.39328   0.46440   0.00000  Uiso   1.00
C71    C     0.02126   0.37553   0.46150   0.00000  Uiso   1.00
C72    C     0.04075   0.38029   0.44184   0.00000  Uiso   1.00
C73    C     0.97406   0.43554   0.45082   0.00000  Uiso   1.00
N13    N     0.97118   0.45613   0.43313   0.00000  Uiso   1.00
C74    C     0.84951   0.31178   0.58068   0.00000  Uiso   1.00
C75    C     0.86221   0.33402   0.59215   0.00000  Uiso   1.00
C76    C     0.86255   0.29933   0.55898   0.00000  Uiso   1.00
O7     O     0.84956   0.34870   0.61191   0.00000  Uiso   1.00
N14    N     0.93731   0.43602   0.63624   0.00000  Uiso   1.00
C77    C     0.92650   0.34216   0.55155   0.00000  Uiso   1.00
H37    H     0.05266   0.40664   0.41012   0.00000  Uiso   1.00
H38    H     0.01536   0.43755   0.41523   0.00000  Uiso   1.00
H39    H     0.98452   0.38909   0.47946   0.00000  Uiso   1.00
H40    H     0.02281   0.35835   0.47450   0.00000  Uiso   1.00
H41    H     0.85343   0.28224   0.54937   0.00000  Uiso   1.00
H42    H     0.93670   0.33299   0.53485   0.00000  Uiso   1.00
C78    C     0.03788   0.90274   0.92538   0.00000  Uiso   1.00
C79    C     0.01646   0.92042   0.92835   0.00000  Uiso   1.00
C80    C     0.99683   0.91613   0.94794   0.00000  Uiso   1.00
C81    C     0.99943   0.89328   0.96440   0.00000  Uiso   1.00
C82    C     0.02126   0.87553   0.96150   0.00000  Uiso   1.00
C83    C     0.04075   0.88029   0.94184   0.00000  Uiso   1.00
C84    C     0.97406   0.93554   0.95082   0.00000  Uiso   1.00
N15    N     0.97118   0.95613   0.93313   0.00000  Uiso   1.00
C85    C     0.84951   0.81178   0.08068   0.00000  Uiso   1.00
C86    C     0.86221   0.83402   0.09215   0.00000  Uiso   1.00
C87    C     0.86255   0.79933   0.05898   0.00000  Uiso   1.00
O8     O     0.84956   0.84870   0.11191   0.00000  Uiso   1.00
N16    N     0.93731   0.93602   0.13624   0.00000  Uiso   1.00
C88    C     0.92650   0.84216   0.05155   0.00000  Uiso   1.00
H43    H     0.05266   0.90664   0.91012   0.00000  Uiso   1.00
H44    H     0.01536   0.93755   0.91523   0.00000  Uiso   1.00
H45    H     0.98452   0.88909   0.97946   0.00000  Uiso   1.00
H46    H     0.02281   0.85835   0.97450   0.00000  Uiso   1.00
H47    H     0.85343   0.78224   0.04937   0.00000  Uiso   1.00
H48    H     0.93670   0.83299   0.03485   0.00000  Uiso   1.00
C89    C     0.03788   0.59726   0.57462   0.00000  Uiso   1.00
C90    C     0.01646   0.57958   0.57165   0.00000  Uiso   1.00
C91    C     0.99683   0.58387   0.55206   0.00000  Uiso   1.00
C92    C     0.99943   0.60672   0.53560   0.00000  Uiso   1.00
C93    C     0.02126   0.62447   0.53850   0.00000  Uiso   1.00
C94    C     0.04075   0.61971   0.55816   0.00000  Uiso   1.00
C95    C     0.97406   0.56446   0.54918   0.00000  Uiso   1.00
N17    N     0.97118   0.54387   0.56687   0.00000  Uiso   1.00
C96    C     0.84951   0.68822   0.41932   0.00000  Uiso   1.00
C97    C     0.86221   0.66598   0.40785   0.00000  Uiso   1.00
C98    C     0.86255   0.70067   0.44102   0.00000  Uiso   1.00
O9     O     0.84956   0.65130   0.38809   0.00000  Uiso   1.00
N18    N     0.93731   0.56398   0.36376   0.00000  Uiso   1.00
C99    C     0.92650   0.65784   0.44845   0.00000  Uiso   1.00
H49    H     0.05266   0.59336   0.58988   0.00000  Uiso   1.00
H50    H     0.01536   0.56245   0.58477   0.00000  Uiso   1.00
H51    H     0.98452   0.61091   0.52054   0.00000  Uiso   1.00
H52    H     0.02281   0.64165   0.52550   0.00000  Uiso   1.00
H53    H     0.85343   0.71776   0.45063   0.00000  Uiso   1.00
H54    H     0.93670   0.66701   0.46515   0.00000  Uiso   1.00
C100   C     0.03788   0.09726   0.07462   0.00000  Uiso   1.00
C101   C     0.01646   0.07958   0.07165   0.00000  Uiso   1.00
C102   C     0.99683   0.08387   0.05206   0.00000  Uiso   1.00
C103   C     0.99943   0.10672   0.03560   0.00000  Uiso   1.00
C104   C     0.02126   0.12447   0.03850   0.00000  Uiso   1.00
C105   C     0.04075   0.11971   0.05816   0.00000  Uiso   1.00
C106   C     0.97406   0.06446   0.04918   0.00000  Uiso   1.00
N19    N     0.97118   0.04387   0.06687   0.00000  Uiso   1.00
C107   C     0.84951   0.18822   0.91932   0.00000  Uiso   1.00
C108   C     0.86221   0.16598   0.90785   0.00000  Uiso   1.00
C109   C     0.86255   0.20067   0.94102   0.00000  Uiso   1.00
O10    O     0.84956   0.15130   0.88809   0.00000  Uiso   1.00
N20    N     0.93731   0.06398   0.86376   0.00000  Uiso   1.00
C110   C     0.92650   0.15784   0.94845   0.00000  Uiso   1.00
H55    H     0.05266   0.09336   0.08988   0.00000  Uiso   1.00
H56    H     0.01536   0.06245   0.08477   0.00000  Uiso   1.00
H57    H     0.98452   0.11091   0.02054   0.00000  Uiso   1.00
H58    H     0.02281   0.14165   0.02550   0.00000  Uiso   1.00
H59    H     0.85343   0.21776   0.95063   0.00000  Uiso   1.00
H60    H     0.93670   0.16701   0.96515   0.00000  Uiso   1.00
C111   C     0.53788   0.59726   0.07462   0.00000  Uiso   1.00
C112   C     0.51646   0.57958   0.07165   0.00000  Uiso   1.00
C113   C     0.49683   0.58387   0.05206   0.00000  Uiso   1.00
C114   C     0.49943   0.60672   0.03560   0.00000  Uiso   1.00
C115   C     0.52126   0.62447   0.03850   0.00000  Uiso   1.00
C116   C     0.54075   0.61971   0.05816   0.00000  Uiso   1.00
C117   C     0.47406   0.56446   0.04918   0.00000  Uiso   1.00
N21    N     0.47118   0.54387   0.06687   0.00000  Uiso   1.00
C118   C     0.34951   0.68822   0.91932   0.00000  Uiso   1.00
C119   C     0.36221   0.66598   0.90785   0.00000  Uiso   1.00
C120   C     0.36255   0.70067   0.94102   0.00000  Uiso   1.00
O11    O     0.34956   0.65130   0.88809   0.00000  Uiso   1.00
N22    N     0.43731   0.56398   0.86376   0.00000  Uiso   1.00
C121   C     0.42650   0.65784   0.94845   0.00000  Uiso   1.00
H61    H     0.55266   0.59336   0.08988   0.00000  Uiso   1.00
H62    H     0.51536   0.56245   0.08477   0.00000  Uiso   1.00
H63    H     0.48452   0.61091   0.02054   0.00000  Uiso   1.00
H64    H     0.52281   0.64165   0.02550   0.00000  Uiso   1.00
H65    H     0.35343   0.71776   0.95063   0.00000  Uiso   1.00
H66    H     0.43670   0.66701   0.96515   0.00000  Uiso   1.00
C122   C     0.53788   0.09726   0.57462   0.00000  Uiso   1.00
C123   C     0.51646   0.07958   0.57165   0.00000  Uiso   1.00
C124   C     0.49683   0.08387   0.55206   0.00000  Uiso   1.00
C125   C     0.49943   0.10672   0.53560   0.00000  Uiso   1.00
C126   C     0.52126   0.12447   0.53850   0.00000  Uiso   1.00
C127   C     0.54075   0.11971   0.55816   0.00000  Uiso   1.00
C128   C     0.47406   0.06446   0.54918   0.00000  Uiso   1.00
N23    N     0.47118   0.04387   0.56687   0.00000  Uiso   1.00
C129   C     0.34951   0.18822   0.41932   0.00000  Uiso   1.00
C130   C     0.36221   0.16598   0.40785   0.00000  Uiso   1.00
C131   C     0.36255   0.20067   0.44102   0.00000  Uiso   1.00
O12    O     0.34956   0.15130   0.38809   0.00000  Uiso   1.00
N24    N     0.43731   0.06398   0.36376   0.00000  Uiso   1.00
C132   C     0.42650   0.15784   0.44845   0.00000  Uiso   1.00
H67    H     0.55266   0.09336   0.58988   0.00000  Uiso   1.00
H68    H     0.51536   0.06245   0.58477   0.00000  Uiso   1.00
H69    H     0.48452   0.11091   0.52054   0.00000  Uiso   1.00
H70    H     0.52281   0.14165   0.52550   0.00000  Uiso   1.00
H71    H     0.35343   0.21776   0.45063   0.00000  Uiso   1.00
H72    H     0.43670   0.16701   0.46515   0.00000  Uiso   1.00
C133   C     0.96212   0.90274   0.07462   0.00000  Uiso   1.00
C134   C     0.98354   0.92042   0.07165   0.00000  Uiso   1.00
C135   C     0.00317   0.91613   0.05206   0.00000  Uiso   1.00
C136   C     0.00057   0.89328   0.03560   0.00000  Uiso   1.00
C137   C     0.97874   0.87553   0.03850   0.00000  Uiso   1.00
C138   C     0.95925   0.88029   0.05816   0.00000  Uiso   1.00
C139   C     0.02594   0.93554   0.04918   0.00000  Uiso   1.00
N25    N     0.02882   0.95613   0.06687   0.00000  Uiso   1.00
C140   C     0.15049   0.81178   0.91932   0.00000  Uiso   1.00
C141   C     0.13779   0.83402   0.90785   0.00000  Uiso   1.00
C142   C     0.13745   0.79933   0.94102   0.00000  Uiso   1.00
O13    O     0.15044   0.84870   0.88809   0.00000  Uiso   1.00
N26    N     0.06269   0.93602   0.86376   0.00000  Uiso   1.00
C143   C     0.07350   0.84216   0.94845   0.00000  Uiso   1.00
H73    H     0.94734   0.90664   0.08988   0.00000  Uiso   1.00
H74    H     0.98464   0.93755   0.08477   0.00000  Uiso   1.00
H75    H     0.01548   0.88909   0.02054   0.00000  Uiso   1.00
H76    H     0.97719   0.85835   0.02550   0.00000  Uiso   1.00
H77    H     0.14657   0.78224   0.95063   0.00000  Uiso   1.00
H78    H     0.06330   0.83299   0.96515   0.00000  Uiso   1.00
C144   C     0.96212   0.40274   0.57462   0.00000  Uiso   1.00
C145   C     0.98354   0.42042   0.57165   0.00000  Uiso   1.00
C146   C     0.00317   0.41613   0.55206   0.00000  Uiso   1.00
C147   C     0.00057   0.39328   0.53560   0.00000  Uiso   1.00
C148   C     0.97874   0.37553   0.53850   0.00000  Uiso   1.00
C149   C     0.95925   0.38029   0.55816   0.00000  Uiso   1.00
C150   C     0.02594   0.43554   0.54918   0.00000  Uiso   1.00
N27    N     0.02882   0.45613   0.56687   0.00000  Uiso   1.00
C151   C     0.15049   0.31178   0.41932   0.00000  Uiso   1.00
C152   C     0.13779   0.33402   0.40785   0.00000  Uiso   1.00
C153   C     0.13745   0.29933   0.44102   0.00000  Uiso   1.00
O14    O     0.15044   0.34870   0.38809   0.00000  Uiso   1.00
N28    N     0.06269   0.43602   0.36376   0.00000  Uiso   1.00
C154   C     0.07350   0.34216   0.44845   0.00000  Uiso   1.00
H79    H     0.94734   0.40664   0.58988   0.00000  Uiso   1.00
H80    H     0.98464   0.43755   0.58477   0.00000  Uiso   1.00
H81    H     0.01548   0.38909   0.52054   0.00000  Uiso   1.00
H82    H     0.97719   0.35835   0.52550   0.00000  Uiso   1.00
H83    H     0.14657   0.28224   0.45063   0.00000  Uiso   1.00
H84    H     0.06330   0.33299   0.46515   0.00000  Uiso   1.00
C155   C     0.46212   0.90274   0.57462   0.00000  Uiso   1.00
C156   C     0.48354   0.92042   0.57165   0.00000  Uiso   1.00
C157   C     0.50317   0.91613   0.55206   0.00000  Uiso   1.00
C158   C     0.50057   0.89328   0.53560   0.00000  Uiso   1.00
C159   C     0.47874   0.87553   0.53850   0.00000  Uiso   1.00
C160   C     0.45925   0.88029   0.55816   0.00000  Uiso   1.00
C161   C     0.52594   0.93554   0.54918   0.00000  Uiso   1.00
N29    N     0.52882   0.95613   0.56687   0.00000  Uiso   1.00
C162   C     0.65049   0.81178   0.41932   0.00000  Uiso   1.00
C163   C     0.63779   0.83402   0.40785   0.00000  Uiso   1.00
C164   C     0.63745   0.79933   0.44102   0.00000  Uiso   1.00
O15    O     0.65044   0.84870   0.38809   0.00000  Uiso   1.00
N30    N     0.56269   0.93602   0.36376   0.00000  Uiso   1.00
C165   C     0.57350   0.84216   0.44845   0.00000  Uiso   1.00
H85    H     0.44734   0.90664   0.58988   0.00000  Uiso   1.00
H86    H     0.48464   0.93755   0.58477   0.00000  Uiso   1.00
H87    H     0.51548   0.88909   0.52054   0.00000  Uiso   1.00
H88    H     0.47719   0.85835   0.52550   0.00000  Uiso   1.00
H89    H     0.64657   0.78224   0.45063   0.00000  Uiso   1.00
H90    H     0.56330   0.83299   0.46515   0.00000  Uiso   1.00
C166   C     0.46212   0.40274   0.07462   0.00000  Uiso   1.00
C167   C     0.48354   0.42042   0.07165   0.00000  Uiso   1.00
C168   C     0.50317   0.41613   0.05206   0.00000  Uiso   1.00
C169   C     0.50057   0.39328   0.03560   0.00000  Uiso   1.00
C170   C     0.47874   0.37553   0.03850   0.00000  Uiso   1.00
C171   C     0.45925   0.38029   0.05816   0.00000  Uiso   1.00
C172   C     0.52594   0.43554   0.04918   0.00000  Uiso   1.00
N31    N     0.52882   0.45613   0.06687   0.00000  Uiso   1.00
C173   C     0.65049   0.31178   0.91932   0.00000  Uiso   1.00
C174   C     0.63779   0.33402   0.90785   0.00000  Uiso   1.00
C175   C     0.63745   0.29933   0.94102   0.00000  Uiso   1.00
O16    O     0.65044   0.34870   0.88809   0.00000  Uiso   1.00
N32    N     0.56269   0.43602   0.86376   0.00000  Uiso   1.00
C176   C     0.57350   0.34216   0.94845   0.00000  Uiso   1.00
H91    H     0.44734   0.40664   0.08988   0.00000  Uiso   1.00
H92    H     0.48464   0.43755   0.08477   0.00000  Uiso   1.00
H93    H     0.51548   0.38909   0.02054   0.00000  Uiso   1.00
H94    H     0.47719   0.35835   0.02550   0.00000  Uiso   1.00
H95    H     0.64657   0.28224   0.95063   0.00000  Uiso   1.00
H96    H     0.56330   0.33299   0.96515   0.00000  Uiso   1.00
C177   C     0.42538   0.46212   0.09726   0.00000  Uiso   1.00
C178   C     0.42835   0.48354   0.07958   0.00000  Uiso   1.00
C179   C     0.44794   0.50317   0.08387   0.00000  Uiso   1.00
C180   C     0.46440   0.50057   0.10672   0.00000  Uiso   1.00
C181   C     0.46150   0.47874   0.12447   0.00000  Uiso   1.00
C182   C     0.44184   0.45925   0.11971   0.00000  Uiso   1.00
C183   C     0.45082   0.52594   0.06446   0.00000  Uiso   1.00
N33    N     0.43313   0.52882   0.04387   0.00000  Uiso   1.00
C184   C     0.58068   0.65049   0.18822   0.00000  Uiso   1.00
C185   C     0.59215   0.63779   0.16598   0.00000  Uiso   1.00
C186   C     0.55898   0.63745   0.20067   0.00000  Uiso   1.00
O17    O     0.61191   0.65044   0.15130   0.00000  Uiso   1.00
N34    N     0.63624   0.56269   0.06398   0.00000  Uiso   1.00
C187   C     0.55155   0.57350   0.15784   0.00000  Uiso   1.00
H97    H     0.41012   0.44734   0.09336   0.00000  Uiso   1.00
H98    H     0.41523   0.48464   0.06245   0.00000  Uiso   1.00
H99    H     0.47946   0.51548   0.11091   0.00000  Uiso   1.00
H100   H     0.47450   0.47719   0.14165   0.00000  Uiso   1.00
H101   H     0.54937   0.64657   0.21776   0.00000  Uiso   1.00
H102   H     0.53485   0.56330   0.16701   0.00000  Uiso   1.00
C188   C     0.42538   0.96212   0.59726   0.00000  Uiso   1.00
C189   C     0.42835   0.98354   0.57958   0.00000  Uiso   1.00
C190   C     0.44794   0.00317   0.58387   0.00000  Uiso   1.00
C191   C     0.46440   0.00057   0.60672   0.00000  Uiso   1.00
C192   C     0.46150   0.97874   0.62447   0.00000  Uiso   1.00
C193   C     0.44184   0.95925   0.61971   0.00000  Uiso   1.00
C194   C     0.45082   0.02594   0.56446   0.00000  Uiso   1.00
N35    N     0.43313   0.02882   0.54387   0.00000  Uiso   1.00
C195   C     0.58068   0.15049   0.68822   0.00000  Uiso   1.00
C196   C     0.59215   0.13779   0.66598   0.00000  Uiso   1.00
C197   C     0.55898   0.13745   0.70067   0.00000  Uiso   1.00
O18    O     0.61191   0.15044   0.65130   0.00000  Uiso   1.00
N36    N     0.63624   0.06269   0.56398   0.00000  Uiso   1.00
C198   C     0.55155   0.07350   0.65784   0.00000  Uiso   1.00
H103   H     0.41012   0.94734   0.59336   0.00000  Uiso   1.00
H104   H     0.41523   0.98464   0.56245   0.00000  Uiso   1.00
H105   H     0.47946   0.01548   0.61091   0.00000  Uiso   1.00
H106   H     0.47450   0.97719   0.64165   0.00000  Uiso   1.00
H107   H     0.54937   0.14657   0.71776   0.00000  Uiso   1.00
H108   H     0.53485   0.06330   0.66701   0.00000  Uiso   1.00
C199   C     0.92538   0.46212   0.59726   0.00000  Uiso   1.00
C200   C     0.92835   0.48354   0.57958   0.00000  Uiso   1.00
C201   C     0.94794   0.50317   0.58387   0.00000  Uiso   1.00
C202   C     0.96440   0.50057   0.60672   0.00000  Uiso   1.00
C203   C     0.96150   0.47874   0.62447   0.00000  Uiso   1.00
C204   C     0.94184   0.45925   0.61971   0.00000  Uiso   1.00
C205   C     0.95082   0.52594   0.56446   0.00000  Uiso   1.00
N37    N     0.93313   0.52882   0.54387   0.00000  Uiso   1.00
C206   C     0.08068   0.65049   0.68822   0.00000  Uiso   1.00
C207   C     0.09215   0.63779   0.66598   0.00000  Uiso   1.00
C208   C     0.05898   0.63745   0.70067   0.00000  Uiso   1.00
O19    O     0.11191   0.65044   0.65130   0.00000  Uiso   1.00
N38    N     0.13624   0.56269   0.56398   0.00000  Uiso   1.00
C209   C     0.05155   0.57350   0.65784   0.00000  Uiso   1.00
H109   H     0.91012   0.44734   0.59336   0.00000  Uiso   1.00
H110   H     0.91523   0.48464   0.56245   0.00000  Uiso   1.00
H111   H     0.97946   0.51548   0.61091   0.00000  Uiso   1.00
H112   H     0.97450   0.47719   0.64165   0.00000  Uiso   1.00
H113   H     0.04937   0.64657   0.71776   0.00000  Uiso   1.00
H114   H     0.03485   0.56330   0.66701   0.00000  Uiso   1.00
C210   C     0.92538   0.96212   0.09726   0.00000  Uiso   1.00
C211   C     0.92835   0.98354   0.07958   0.00000  Uiso   1.00
C212   C     0.94794   0.00317   0.08387   0.00000  Uiso   1.00
C213   C     0.96440   0.00057   0.10672   0.00000  Uiso   1.00
C214   C     0.96150   0.97874   0.12447   0.00000  Uiso   1.00
C215   C     0.94184   0.95925   0.11971   0.00000  Uiso   1.00
C216   C     0.95082   0.02594   0.06446   0.00000  Uiso   1.00
N39    N     0.93313   0.02882   0.04387   0.00000  Uiso   1.00
C217   C     0.08068   0.15049   0.18822   0.00000  Uiso   1.00
C218   C     0.09215   0.13779   0.16598   0.00000  Uiso   1.00
C219   C     0.05898   0.13745   0.20067   0.00000  Uiso   1.00
O20    O     0.11191   0.15044   0.15130   0.00000  Uiso   1.00
N40    N     0.13624   0.06269   0.06398   0.00000  Uiso   1.00
C220   C     0.05155   0.07350   0.15784   0.00000  Uiso   1.00
H115   H     0.91012   0.94734   0.09336   0.00000  Uiso   1.00
H116   H     0.91523   0.98464   0.06245   0.00000  Uiso   1.00
H117   H     0.97946   0.01548   0.11091   0.00000  Uiso   1.00
H118   H     0.97450   0.97719   0.14165   0.00000  Uiso   1.00
H119   H     0.04937   0.14657   0.21776   0.00000  Uiso   1.00
H120   H     0.03485   0.06330   0.16701   0.00000  Uiso   1.00
C221   C     0.92538   0.53788   0.40274   0.00000  Uiso   1.00
C222   C     0.92835   0.51646   0.42042   0.00000  Uiso   1.00
C223   C     0.94794   0.49683   0.41613   0.00000  Uiso   1.00
C224   C     0.96440   0.49943   0.39328   0.00000  Uiso   1.00
C225   C     0.96150   0.52126   0.37553   0.00000  Uiso   1.00
C226   C     0.94184   0.54075   0.38029   0.00000  Uiso   1.00
C227   C     0.95082   0.47406   0.43554   0.00000  Uiso   1.00
N41    N     0.93313   0.47118   0.45613   0.00000  Uiso   1.00
C228   C     0.08068   0.34951   0.31178   0.00000  Uiso   1.00
C229   C     0.09215   0.36221   0.33402   0.00000  Uiso   1.00
C230   C     0.05898   0.36255   0.29933   0.00000  Uiso   1.00
O21    O     0.11191   0.34956   0.34870   0.00000  Uiso   1.00
N42    N     0.13624   0.43731   0.43602   0.00000  Uiso   1.00
C231   C     0.05155   0.42650   0.34216   0.00000  Uiso   1.00
H121   H     0.91012   0.55266   0.40664   0.00000  Uiso   1.00
H122   H     0.91523   0.51536   0.43755   0.00000  Uiso   1.00
H123   H     0.97946   0.48452   0.38909   0.00000  Uiso   1.00
H124   H     0.97450   0.52281   0.35835   0.00000  Uiso   1.00
H125   H     0.04937   0.35343   0.28224   0.00000  Uiso   1.00
H126   H     0.03485   0.43670   0.33299   0.00000  Uiso   1.00
C232   C     0.92538   0.03788   0.90274   0.00000  Uiso   1.00
C233   C     0.92835   0.01646   0.92042   0.00000  Uiso   1.00
C234   C     0.94794   0.99683   0.91613   0.00000  Uiso   1.00
C235   C     0.96440   0.99943   0.89328   0.00000  Uiso   1.00
C236   C     0.96150   0.02126   0.87553   0.00000  Uiso   1.00
C237   C     0.94184   0.04075   0.88029   0.00000  Uiso   1.00
C238   C     0.95082   0.97406   0.93554   0.00000  Uiso   1.00
N43    N     0.93313   0.97118   0.95613   0.00000  Uiso   1.00
C239   C     0.08068   0.84951   0.81178   0.00000  Uiso   1.00
C240   C     0.09215   0.86221   0.83402   0.00000  Uiso   1.00
C241   C     0.05898   0.86255   0.79933   0.00000  Uiso   1.00
O22    O     0.11191   0.84956   0.84870   0.00000  Uiso   1.00
N44    N     0.13624   0.93731   0.93602   0.00000  Uiso   1.00
C242   C     0.05155   0.92650   0.84216   0.00000  Uiso   1.00
H127   H     0.91012   0.05266   0.90664   0.00000  Uiso   1.00
H128   H     0.91523   0.01536   0.93755   0.00000  Uiso   1.00
H129   H     0.97946   0.98452   0.88909   0.00000  Uiso   1.00
H130   H     0.97450   0.02281   0.85835   0.00000  Uiso   1.00
H131   H     0.04937   0.85343   0.78224   0.00000  Uiso   1.00
H132   H     0.03485   0.93670   0.83299   0.00000  Uiso   1.00
C243   C     0.42538   0.53788   0.90274   0.00000  Uiso   1.00
C244   C     0.42835   0.51646   0.92042   0.00000  Uiso   1.00
C245   C     0.44794   0.49683   0.91613   0.00000  Uiso   1.00
C246   C     0.46440   0.49943   0.89328   0.00000  Uiso   1.00
C247   C     0.46150   0.52126   0.87553   0.00000  Uiso   1.00
C248   C     0.44184   0.54075   0.88029   0.00000  Uiso   1.00
C249   C     0.45082   0.47406   0.93554   0.00000  Uiso   1.00
N45    N     0.43313   0.47118   0.95613   0.00000  Uiso   1.00
C250   C     0.58068   0.34951   0.81178   0.00000  Uiso   1.00
C251   C     0.59215   0.36221   0.83402   0.00000  Uiso   1.00
C252   C     0.55898   0.36255   0.79933   0.00000  Uiso   1.00
O23    O     0.61191   0.34956   0.84870   0.00000  Uiso   1.00
N46    N     0.63624   0.43731   0.93602   0.00000  Uiso   1.00
C253   C     0.55155   0.42650   0.84216   0.00000  Uiso   1.00
H133   H     0.41012   0.55266   0.90664   0.00000  Uiso   1.00
H134   H     0.41523   0.51536   0.93755   0.00000  Uiso   1.00
H135   H     0.47946   0.48452   0.88909   0.00000  Uiso   1.00
H136   H     0.47450   0.52281   0.85835   0.00000  Uiso   1.00
H137   H     0.54937   0.35343   0.78224   0.00000  Uiso   1.00
H138   H     0.53485   0.43670   0.83299   0.00000  Uiso   1.00
C254   C     0.42538   0.03788   0.40274   0.00000  Uiso   1.00
C255   C     0.42835   0.01646   0.42042   0.00000  Uiso   1.00
C256   C     0.44794   0.99683   0.41613   0.00000  Uiso   1.00
C257   C     0.46440   0.99943   0.39328   0.00000  Uiso   1.00
C258   C     0.46150   0.02126   0.37553   0.00000  Uiso   1.00
C259   C     0.44184   0.04075   0.38029   0.00000  Uiso   1.00
C260   C     0.45082   0.97406   0.43554   0.00000  Uiso   1.00
N47    N     0.43313   0.97118   0.45613   0.00000  Uiso   1.00
C261   C     0.58068   0.84951   0.31178   0.00000  Uiso   1.00
C262   C     0.59215   0.86221   0.33402   0.00000  Uiso   1.00
C263   C     0.55898   0.86255   0.29933   0.00000  Uiso   1.00
O24    O     0.61191   0.84956   0.34870   0.00000  Uiso   1.00
N48    N     0.63624   0.93731   0.43602   0.00000  Uiso   1.00
C264   C     0.55155   0.92650   0.34216   0.00000  Uiso   1.00
H139   H     0.41012   0.05266   0.40664   0.00000  Uiso   1.00
H140   H     0.41523   0.01536   0.43755   0.00000  Uiso   1.00
H141   H     0.47946   0.98452   0.38909   0.00000  Uiso   1.00
H142   H     0.47450   0.02281   0.35835   0.00000  Uiso   1.00
H143   H     0.54937   0.85343   0.28224   0.00000  Uiso   1.00
H144   H     0.53485   0.93670   0.33299   0.00000  Uiso   1.00
C265   C     0.57462   0.03788   0.59726   0.00000  Uiso   1.00
C266   C     0.57165   0.01646   0.57958   0.00000  Uiso   1.00
C267   C     0.55206   0.99683   0.58387   0.00000  Uiso   1.00
C268   C     0.53560   0.99943   0.60672   0.00000  Uiso   1.00
C269   C     0.53850   0.02126   0.62447   0.00000  Uiso   1.00
C270   C     0.55816   0.04075   0.61971   0.00000  Uiso   1.00
C271   C     0.54918   0.97406   0.56446   0.00000  Uiso   1.00
N49    N     0.56687   0.97118   0.54387   0.00000  Uiso   1.00
C272   C     0.41932   0.84951   0.68822   0.00000  Uiso   1.00
C273   C     0.40785   0.86221   0.66598   0.00000  Uiso   1.00
C274   C     0.44102   0.86255   0.70067   0.00000  Uiso   1.00
O25    O     0.38809   0.84956   0.65130   0.00000  Uiso   1.00
N50    N     0.36376   0.93731   0.56398   0.00000  Uiso   1.00
C275   C     0.44845   0.92650   0.65784   0.00000  Uiso   1.00
H145   H     0.58988   0.05266   0.59336   0.00000  Uiso   1.00
H146   H     0.58477   0.01536   0.56245   0.00000  Uiso   1.00
H147   H     0.52054   0.98452   0.61091   0.00000  Uiso   1.00
H148   H     0.52550   0.02281   0.64165   0.00000  Uiso   1.00
H149   H     0.45063   0.85343   0.71776   0.00000  Uiso   1.00
H150   H     0.46515   0.93670   0.66701   0.00000  Uiso   1.00
C276   C     0.57462   0.53788   0.09726   0.00000  Uiso   1.00
C277   C     0.57165   0.51646   0.07958   0.00000  Uiso   1.00
C278   C     0.55206   0.49683   0.08387   0.00000  Uiso   1.00
C279   C     0.53560   0.49943   0.10672   0.00000  Uiso   1.00
C280   C     0.53850   0.52126   0.12447   0.00000  Uiso   1.00
C281   C     0.55816   0.54075   0.11971   0.00000  Uiso   1.00
C282   C     0.54918   0.47406   0.06446   0.00000  Uiso   1.00
N51    N     0.56687   0.47118   0.04387   0.00000  Uiso   1.00
C283   C     0.41932   0.34951   0.18822   0.00000  Uiso   1.00
C284   C     0.40785   0.36221   0.16598   0.00000  Uiso   1.00
C285   C     0.44102   0.36255   0.20067   0.00000  Uiso   1.00
O26    O     0.38809   0.34956   0.15130   0.00000  Uiso   1.00
N52    N     0.36376   0.43731   0.06398   0.00000  Uiso   1.00
C286   C     0.44845   0.42650   0.15784   0.00000  Uiso   1.00
H151   H     0.58988   0.55266   0.09336   0.00000  Uiso   1.00
H152   H     0.58477   0.51536   0.06245   0.00000  Uiso   1.00
H153   H     0.52054   0.48452   0.11091   0.00000  Uiso   1.00
H154   H     0.52550   0.52281   0.14165   0.00000  Uiso   1.00
H155   H     0.45063   0.35343   0.21776   0.00000  Uiso   1.00
H156   H     0.46515   0.43670   0.16701   0.00000  Uiso   1.00
C287   C     0.07462   0.03788   0.09726   0.00000  Uiso   1.00
C288   C     0.07165   0.01646   0.07958   0.00000  Uiso   1.00
C289   C     0.05206   0.99683   0.08387   0.00000  Uiso   1.00
C290   C     0.03560   0.99943   0.10672   0.00000  Uiso   1.00
C291   C     0.03850   0.02126   0.12447   0.00000  Uiso   1.00
C292   C     0.05816   0.04075   0.11971   0.00000  Uiso   1.00
C293   C     0.04918   0.97406   0.06446   0.00000  Uiso   1.00
N53    N     0.06687   0.97118   0.04387   0.00000  Uiso   1.00
C294   C     0.91932   0.84951   0.18822   0.00000  Uiso   1.00
C295   C     0.90785   0.86221   0.16598   0.00000  Uiso   1.00
C296   C     0.94102   0.86255   0.20067   0.00000  Uiso   1.00
O27    O     0.88809   0.84956   0.15130   0.00000  Uiso   1.00
N54    N     0.86376   0.93731   0.06398   0.00000  Uiso   1.00
C297   C     0.94845   0.92650   0.15784   0.00000  Uiso   1.00
H157   H     0.08988   0.05266   0.09336   0.00000  Uiso   1.00
H158   H     0.08477   0.01536   0.06245   0.00000  Uiso   1.00
H159   H     0.02054   0.98452   0.11091   0.00000  Uiso   1.00
H160   H     0.02550   0.02281   0.14165   0.00000  Uiso   1.00
H161   H     0.95063   0.85343   0.21776   0.00000  Uiso   1.00
H162   H     0.96515   0.93670   0.16701   0.00000  Uiso   1.00
C298   C     0.07462   0.53788   0.59726   0.00000  Uiso   1.00
C299   C     0.07165   0.51646   0.57958   0.00000  Uiso   1.00
C300   C     0.05206   0.49683   0.58387   0.00000  Uiso   1.00
C301   C     0.03560   0.49943   0.60672   0.00000  Uiso   1.00
C302   C     0.03850   0.52126   0.62447   0.00000  Uiso   1.00
C303   C     0.05816   0.54075   0.61971   0.00000  Uiso   1.00
C304   C     0.04918   0.47406   0.56446   0.00000  Uiso   1.00
N55    N     0.06687   0.47118   0.54387   0.00000  Uiso   1.00
C305   C     0.91932   0.34951   0.68822   0.00000  Uiso   1.00
C306   C     0.90785   0.36221   0.66598   0.00000  Uiso   1.00
C307   C     0.94102   0.36255   0.70067   0.00000  Uiso   1.00
O28    O     0.88809   0.34956   0.65130   0.00000  Uiso   1.00
N56    N     0.86376   0.43731   0.56398   0.00000  Uiso   1.00
C308   C     0.94845   0.42650   0.65784   0.00000  Uiso   1.00
H163   H     0.08988   0.55266   0.59336   0.00000  Uiso   1.00
H164   H     0.08477   0.51536   0.56245   0.00000  Uiso   1.00
H165   H     0.02054   0.48452   0.61091   0.00000  Uiso   1.00
H166   H     0.02550   0.52281   0.64165   0.00000  Uiso   1.00
H167   H     0.95063   0.35343   0.71776   0.00000  Uiso   1.00
H168   H     0.96515   0.43670   0.66701   0.00000  Uiso   1.00
C309   C     0.07462   0.96212   0.90274   0.00000  Uiso   1.00
C310   C     0.07165   0.98354   0.92042   0.00000  Uiso   1.00
C311   C     0.05206   0.00317   0.91613   0.00000  Uiso   1.00
C312   C     0.03560   0.00057   0.89328   0.00000  Uiso   1.00
C313   C     0.03850   0.97874   0.87553   0.00000  Uiso   1.00
C314   C     0.05816   0.95925   0.88029   0.00000  Uiso   1.00
C315   C     0.04918   0.02594   0.93554   0.00000  Uiso   1.00
N57    N     0.06687   0.02882   0.95613   0.00000  Uiso   1.00
C316   C     0.91932   0.15049   0.81178   0.00000  Uiso   1.00
C317   C     0.90785   0.13779   0.83402   0.00000  Uiso   1.00
C318   C     0.94102   0.13745   0.79933   0.00000  Uiso   1.00
O29    O     0.88809   0.15044   0.84870   0.00000  Uiso   1.00
N58    N     0.86376   0.06269   0.93602   0.00000  Uiso   1.00
C319   C     0.94845   0.07350   0.84216   0.00000  Uiso   1.00
H169   H     0.08988   0.94734   0.90664   0.00000  Uiso   1.00
H170   H     0.08477   0.98464   0.93755   0.00000  Uiso   1.00
H171   H     0.02054   0.01548   0.88909   0.00000  Uiso   1.00
H172   H     0.02550   0.97719   0.85835   0.00000  Uiso   1.00
H173   H     0.95063   0.14657   0.78224   0.00000  Uiso   1.00
H174   H     0.96515   0.06330   0.83299   0.00000  Uiso   1.00
C320   C     0.07462   0.46212   0.40274   0.00000  Uiso   1.00
C321   C     0.07165   0.48354   0.42042   0.00000  Uiso   1.00
C322   C     0.05206   0.50317   0.41613   0.00000  Uiso   1.00
C323   C     0.03560   0.50057   0.39328   0.00000  Uiso   1.00
C324   C     0.03850   0.47874   0.37553   0.00000  Uiso   1.00
C325   C     0.05816   0.45925   0.38029   0.00000  Uiso   1.00
C326   C     0.04918   0.52594   0.43554   0.00000  Uiso   1.00
N59    N     0.06687   0.52882   0.45613   0.00000  Uiso   1.00
C327   C     0.91932   0.65049   0.31178   0.00000  Uiso   1.00
C328   C     0.90785   0.63779   0.33402   0.00000  Uiso   1.00
C329   C     0.94102   0.63745   0.29933   0.00000  Uiso   1.00
O30    O     0.88809   0.65044   0.34870   0.00000  Uiso   1.00
N60    N     0.86376   0.56269   0.43602   0.00000  Uiso   1.00
C330   C     0.94845   0.57350   0.34216   0.00000  Uiso   1.00
H175   H     0.08988   0.44734   0.40664   0.00000  Uiso   1.00
H176   H     0.08477   0.48464   0.43755   0.00000  Uiso   1.00
H177   H     0.02054   0.51548   0.38909   0.00000  Uiso   1.00
H178   H     0.02550   0.47719   0.35835   0.00000  Uiso   1.00
H179   H     0.95063   0.64657   0.28224   0.00000  Uiso   1.00
H180   H     0.96515   0.56330   0.33299   0.00000  Uiso   1.00
C331   C     0.57462   0.96212   0.40274   0.00000  Uiso   1.00
C332   C     0.57165   0.98354   0.42042   0.00000  Uiso   1.00
C333   C     0.55206   0.00317   0.41613   0.00000  Uiso   1.00
C334   C     0.53560   0.00057   0.39328   0.00000  Uiso   1.00
C335   C     0.53850   0.97874   0.37553   0.00000  Uiso   1.00
C336   C     0.55816   0.95925   0.38029   0.00000  Uiso   1.00
C337   C     0.54918   0.02594   0.43554   0.00000  Uiso   1.00
N61    N     0.56687   0.02882   0.45613   0.00000  Uiso   1.00
C338   C     0.41932   0.15049   0.31178   0.00000  Uiso   1.00
C339   C     0.40785   0.13779   0.33402   0.00000  Uiso   1.00
C340   C     0.44102   0.13745   0.29933   0.00000  Uiso   1.00
O31    O     0.38809   0.15044   0.34870   0.00000  Uiso   1.00
N62    N     0.36376   0.06269   0.43602   0.00000  Uiso   1.00
C341   C     0.44845   0.07350   0.34216   0.00000  Uiso   1.00
H181   H     0.58988   0.94734   0.40664   0.00000  Uiso   1.00
H182   H     0.58477   0.98464   0.43755   0.00000  Uiso   1.00
H183   H     0.52054   0.01548   0.38909   0.00000  Uiso   1.00
H184   H     0.52550   0.97719   0.35835   0.00000  Uiso   1.00
H185   H     0.45063   0.14657   0.28224   0.00000  Uiso   1.00
H186   H     0.46515   0.06330   0.33299   0.00000  Uiso   1.00
C342   C     0.57462   0.46212   0.90274   0.00000  Uiso   1.00
C343   C     0.57165   0.48354   0.92042   0.00000  Uiso   1.00
C344   C     0.55206   0.50317   0.91613   0.00000  Uiso   1.00
C345   C     0.53560   0.50057   0.89328   0.00000  Uiso   1.00
C346   C     0.53850   0.47874   0.87553   0.00000  Uiso   1.00
C347   C     0.55816   0.45925   0.88029   0.00000  Uiso   1.00
C348   C     0.54918   0.52594   0.93554   0.00000  Uiso   1.00
N63    N     0.56687   0.52882   0.95613   0.00000  Uiso   1.00
C349   C     0.41932   0.65049   0.81178   0.00000  Uiso   1.00
C350   C     0.40785   0.63779   0.83402   0.00000  Uiso   1.00
C351   C     0.44102   0.63745   0.79933   0.00000  Uiso   1.00
O32    O     0.38809   0.65044   0.84870   0.00000  Uiso   1.00
N64    N     0.36376   0.56269   0.93602   0.00000  Uiso   1.00
C352   C     0.44845   0.57350   0.84216   0.00000  Uiso   1.00
H187   H     0.58988   0.44734   0.90664   0.00000  Uiso   1.00
H188   H     0.58477   0.48464   0.93755   0.00000  Uiso   1.00
H189   H     0.52054   0.51548   0.88909   0.00000  Uiso   1.00
H190   H     0.52550   0.47719   0.85835   0.00000  Uiso   1.00
H191   H     0.45063   0.64657   0.78224   0.00000  Uiso   1.00
H192   H     0.46515   0.56330   0.83299   0.00000  Uiso   1.00
C353   C     0.09726   0.42538   0.46212   0.00000  Uiso   1.00
C354   C     0.07958   0.42835   0.48354   0.00000  Uiso   1.00
C355   C     0.08387   0.44794   0.50317   0.00000  Uiso   1.00
C356   C     0.10672   0.46440   0.50057   0.00000  Uiso   1.00
C357   C     0.12447   0.46150   0.47874   0.00000  Uiso   1.00
C358   C     0.11971   0.44184   0.45925   0.00000  Uiso   1.00
C359   C     0.06446   0.45082   0.52594   0.00000  Uiso   1.00
N65    N     0.04387   0.43313   0.52882   0.00000  Uiso   1.00
C360   C     0.18822   0.58068   0.65049   0.00000  Uiso   1.00
C361   C     0.16598   0.59215   0.63779   0.00000  Uiso   1.00
C362   C     0.20067   0.55898   0.63745   0.00000  Uiso   1.00
O33    O     0.15130   0.61191   0.65044   0.00000  Uiso   1.00
N66    N     0.06398   0.63624   0.56269   0.00000  Uiso   1.00
C363   C     0.15784   0.55155   0.57350   0.00000  Uiso   1.00
H193   H     0.09336   0.41012   0.44734   0.00000  Uiso   1.00
H194   H     0.06245   0.41523   0.48464   0.00000  Uiso   1.00
H195   H     0.11091   0.47946   0.51548   0.00000  Uiso   1.00
H196   H     0.14165   0.47450   0.47719   0.00000  Uiso   1.00
H197   H     0.21776   0.54937   0.64657   0.00000  Uiso   1.00
H198   H     0.16701   0.53485   0.56330   0.00000  Uiso   1.00
C364   C     0.09726   0.92538   0.96212   0.00000  Uiso   1.00
C365   C     0.07958   0.92835   0.98354   0.00000  Uiso   1.00
C366   C     0.08387   0.94794   0.00317   0.00000  Uiso   1.00
C367   C     0.10672   0.96440   0.00057   0.00000  Uiso   1.00
C368   C     0.12447   0.96150   0.97874   0.00000  Uiso   1.00
C369   C     0.11971   0.94184   0.95925   0.00000  Uiso   1.00
C370   C     0.06446   0.95082   0.02594   0.00000  Uiso   1.00
N67    N     0.04387   0.93313   0.02882   0.00000  Uiso   1.00
C371   C     0.18822   0.08068   0.15049   0.00000  Uiso   1.00
C372   C     0.16598   0.09215   0.13779   0.00000  Uiso   1.00
C373   C     0.20067   0.05898   0.13745   0.00000  Uiso   1.00
O34    O     0.15130   0.11191   0.15044   0.00000  Uiso   1.00
N68    N     0.06398   0.13624   0.06269   0.00000  Uiso   1.00
C374   C     0.15784   0.05155   0.07350   0.00000  Uiso   1.00
H199   H     0.09336   0.91012   0.94734   0.00000  Uiso   1.00
H200   H     0.06245   0.91523   0.98464   0.00000  Uiso   1.00
H201   H     0.11091   0.97946   0.01548   0.00000  Uiso   1.00
H202   H     0.14165   0.97450   0.97719   0.00000  Uiso   1.00
H203   H     0.21776   0.04937   0.14657   0.00000  Uiso   1.00
H204   H     0.16701   0.03485   0.06330   0.00000  Uiso   1.00
C375   C     0.59726   0.42538   0.96212   0.00000  Uiso   1.00
C376   C     0.57958   0.42835   0.98354   0.00000  Uiso   1.00
C377   C     0.58387   0.44794   0.00317   0.00000  Uiso   1.00
C378   C     0.60672   0.46440   0.00057   0.00000  Uiso   1.00
C379   C     0.62447   0.46150   0.97874   0.00000  Uiso   1.00
C380   C     0.61971   0.44184   0.95925   0.00000  Uiso   1.00
C381   C     0.56446   0.45082   0.02594   0.00000  Uiso   1.00
N69    N     0.54387   0.43313   0.02882   0.00000  Uiso   1.00
C382   C     0.68822   0.58068   0.15049   0.00000  Uiso   1.00
C383   C     0.66598   0.59215   0.13779   0.00000  Uiso   1.00
C384   C     0.70067   0.55898   0.13745   0.00000  Uiso   1.00
O35    O     0.65130   0.61191   0.15044   0.00000  Uiso   1.00
N70    N     0.56398   0.63624   0.06269   0.00000  Uiso   1.00
C385   C     0.65784   0.55155   0.07350   0.00000  Uiso   1.00
H205   H     0.59336   0.41012   0.94734   0.00000  Uiso   1.00
H206   H     0.56245   0.41523   0.98464   0.00000  Uiso   1.00
H207   H     0.61091   0.47946   0.01548   0.00000  Uiso   1.00
H208   H     0.64165   0.47450   0.97719   0.00000  Uiso   1.00
H209   H     0.71776   0.54937   0.14657   0.00000  Uiso   1.00
H210   H     0.66701   0.53485   0.06330   0.00000  Uiso   1.00
C386   C     0.59726   0.92538   0.46212   0.00000  Uiso   1.00
C387   C     0.57958   0.92835   0.48354   0.00000  Uiso   1.00
C388   C     0.58387   0.94794   0.50317   0.00000  Uiso   1.00
C389   C     0.60672   0.96440   0.50057   0.00000  Uiso   1.00
C390   C     0.62447   0.96150   0.47874   0.00000  Uiso   1.00
C391   C     0.61971   0.94184   0.45925   0.00000  Uiso   1.00
C392   C     0.56446   0.95082   0.52594   0.00000  Uiso   1.00
N71    N     0.54387   0.93313   0.52882   0.00000  Uiso   1.00
C393   C     0.68822   0.08068   0.65049   0.00000  Uiso   1.00
C394   C     0.66598   0.09215   0.63779   0.00000  Uiso   1.00
C395   C     0.70067   0.05898   0.63745   0.00000  Uiso   1.00
O36    O     0.65130   0.11191   0.65044   0.00000  Uiso   1.00
N72    N     0.56398   0.13624   0.56269   0.00000  Uiso   1.00
C396   C     0.65784   0.05155   0.57350   0.00000  Uiso   1.00
H211   H     0.59336   0.91012   0.44734   0.00000  Uiso   1.00
H212   H     0.56245   0.91523   0.48464   0.00000  Uiso   1.00
H213   H     0.61091   0.97946   0.51548   0.00000  Uiso   1.00
H214   H     0.64165   0.97450   0.47719   0.00000  Uiso   1.00
H215   H     0.71776   0.04937   0.64657   0.00000  Uiso   1.00
H216   H     0.66701   0.03485   0.56330   0.00000  Uiso   1.00
C397   C     0.40274   0.92538   0.53788   0.00000  Uiso   1.00
C398   C     0.42042   0.92835   0.51646   0.00000  Uiso   1.00
C399   C     0.41613   0.94794   0.49683   0.00000  Uiso   1.00
C400   C     0.39328   0.96440   0.49943   0.00000  Uiso   1.00
C401   C     0.37553   0.96150   0.52126   0.00000  Uiso   1.00
C402   C     0.38029   0.94184   0.54075   0.00000  Uiso   1.00
C403   C     0.43554   0.95082   0.47406   0.00000  Uiso   1.00
N73    N     0.45613   0.93313   0.47118   0.00000  Uiso   1.00
C404   C     0.31178   0.08068   0.34951   0.00000  Uiso   1.00
C405   C     0.33402   0.09215   0.36221   0.00000  Uiso   1.00
C406   C     0.29933   0.05898   0.36255   0.00000  Uiso   1.00
O37    O     0.34870   0.11191   0.34956   0.00000  Uiso   1.00
N74    N     0.43602   0.13624   0.43731   0.00000  Uiso   1.00
C407   C     0.34216   0.05155   0.42650   0.00000  Uiso   1.00
H217   H     0.40664   0.91012   0.55266   0.00000  Uiso   1.00
H218   H     0.43755   0.91523   0.51536   0.00000  Uiso   1.00
H219   H     0.38909   0.97946   0.48452   0.00000  Uiso   1.00
H220   H     0.35835   0.97450   0.52281   0.00000  Uiso   1.00
H221   H     0.28224   0.04937   0.35343   0.00000  Uiso   1.00
H222   H     0.33299   0.03485   0.43670   0.00000  Uiso   1.00
C408   C     0.40274   0.42538   0.03788   0.00000  Uiso   1.00
C409   C     0.42042   0.42835   0.01646   0.00000  Uiso   1.00
C410   C     0.41613   0.44794   0.99683   0.00000  Uiso   1.00
C411   C     0.39328   0.46440   0.99943   0.00000  Uiso   1.00
C412   C     0.37553   0.46150   0.02126   0.00000  Uiso   1.00
C413   C     0.38029   0.44184   0.04075   0.00000  Uiso   1.00
C414   C     0.43554   0.45082   0.97406   0.00000  Uiso   1.00
N75    N     0.45613   0.43313   0.97118   0.00000  Uiso   1.00
C415   C     0.31178   0.58068   0.84951   0.00000  Uiso   1.00
C416   C     0.33402   0.59215   0.86221   0.00000  Uiso   1.00
C417   C     0.29933   0.55898   0.86255   0.00000  Uiso   1.00
O38    O     0.34870   0.61191   0.84956   0.00000  Uiso   1.00
N76    N     0.43602   0.63624   0.93731   0.00000  Uiso   1.00
C418   C     0.34216   0.55155   0.92650   0.00000  Uiso   1.00
H223   H     0.40664   0.41012   0.05266   0.00000  Uiso   1.00
H224   H     0.43755   0.41523   0.01536   0.00000  Uiso   1.00
H225   H     0.38909   0.47946   0.98452   0.00000  Uiso   1.00
H226   H     0.35835   0.47450   0.02281   0.00000  Uiso   1.00
H227   H     0.28224   0.54937   0.85343   0.00000  Uiso   1.00
H228   H     0.33299   0.53485   0.93670   0.00000  Uiso   1.00
C419   C     0.90274   0.92538   0.03788   0.00000  Uiso   1.00
C420   C     0.92042   0.92835   0.01646   0.00000  Uiso   1.00
C421   C     0.91613   0.94794   0.99683   0.00000  Uiso   1.00
C422   C     0.89328   0.96440   0.99943   0.00000  Uiso   1.00
C423   C     0.87553   0.96150   0.02126   0.00000  Uiso   1.00
C424   C     0.88029   0.94184   0.04075   0.00000  Uiso   1.00
C425   C     0.93554   0.95082   0.97406   0.00000  Uiso   1.00
N77    N     0.95613   0.93313   0.97118   0.00000  Uiso   1.00
C426   C     0.81178   0.08068   0.84951   0.00000  Uiso   1.00
C427   C     0.83402   0.09215   0.86221   0.00000  Uiso   1.00
C428   C     0.79933   0.05898   0.86255   0.00000  Uiso   1.00
O39    O     0.84870   0.11191   0.84956   0.00000  Uiso   1.00
N78    N     0.93602   0.13624   0.93731   0.00000  Uiso   1.00
C429   C     0.84216   0.05155   0.92650   0.00000  Uiso   1.00
H229   H     0.90664   0.91012   0.05266   0.00000  Uiso   1.00
H230   H     0.93755   0.91523   0.01536   0.00000  Uiso   1.00
H231   H     0.88909   0.97946   0.98452   0.00000  Uiso   1.00
H232   H     0.85835   0.97450   0.02281   0.00000  Uiso   1.00
H233   H     0.78224   0.04937   0.85343   0.00000  Uiso   1.00
H234   H     0.83299   0.03485   0.93670   0.00000  Uiso   1.00
C430   C     0.90274   0.42538   0.53788   0.00000  Uiso   1.00
C431   C     0.92042   0.42835   0.51646   0.00000  Uiso   1.00
C432   C     0.91613   0.44794   0.49683   0.00000  Uiso   1.00
C433   C     0.89328   0.46440   0.49943   0.00000  Uiso   1.00
C434   C     0.87553   0.46150   0.52126   0.00000  Uiso   1.00
C435   C     0.88029   0.44184   0.54075   0.00000  Uiso   1.00
C436   C     0.93554   0.45082   0.47406   0.00000  Uiso   1.00
N79    N     0.95613   0.43313   0.47118   0.00000  Uiso   1.00
C437   C     0.81178   0.58068   0.34951   0.00000  Uiso   1.00
C438   C     0.83402   0.59215   0.36221   0.00000  Uiso   1.00
C439   C     0.79933   0.55898   0.36255   0.00000  Uiso   1.00
O40    O     0.84870   0.61191   0.34956   0.00000  Uiso   1.00
N80    N     0.93602   0.63624   0.43731   0.00000  Uiso   1.00
C440   C     0.84216   0.55155   0.42650   0.00000  Uiso   1.00
H235   H     0.90664   0.41012   0.55266   0.00000  Uiso   1.00
H236   H     0.93755   0.41523   0.51536   0.00000  Uiso   1.00
H237   H     0.88909   0.47946   0.48452   0.00000  Uiso   1.00
H238   H     0.85835   0.47450   0.52281   0.00000  Uiso   1.00
H239   H     0.78224   0.54937   0.35343   0.00000  Uiso   1.00
H240   H     0.83299   0.53485   0.43670   0.00000  Uiso   1.00
C441   C     0.59726   0.57462   0.03788   0.00000  Uiso   1.00
C442   C     0.57958   0.57165   0.01646   0.00000  Uiso   1.00
C443   C     0.58387   0.55206   0.99683   0.00000  Uiso   1.00
C444   C     0.60672   0.53560   0.99943   0.00000  Uiso   1.00
C445   C     0.62447   0.53850   0.02126   0.00000  Uiso   1.00
C446   C     0.61971   0.55816   0.04075   0.00000  Uiso   1.00
C447   C     0.56446   0.54918   0.97406   0.00000  Uiso   1.00
N81    N     0.54387   0.56687   0.97118   0.00000  Uiso   1.00
C448   C     0.68822   0.41932   0.84951   0.00000  Uiso   1.00
C449   C     0.66598   0.40785   0.86221   0.00000  Uiso   1.00
C450   C     0.70067   0.44102   0.86255   0.00000  Uiso   1.00
O41    O     0.65130   0.38809   0.84956   0.00000  Uiso   1.00
N82    N     0.56398   0.36376   0.93731   0.00000  Uiso   1.00
C451   C     0.65784   0.44845   0.92650   0.00000  Uiso   1.00
H241   H     0.59336   0.58988   0.05266   0.00000  Uiso   1.00
H242   H     0.56245   0.58477   0.01536   0.00000  Uiso   1.00
H243   H     0.61091   0.52054   0.98452   0.00000  Uiso   1.00
H244   H     0.64165   0.52550   0.02281   0.00000  Uiso   1.00
H245   H     0.71776   0.45063   0.85343   0.00000  Uiso   1.00
H246   H     0.66701   0.46515   0.93670   0.00000  Uiso   1.00
C452   C     0.59726   0.07462   0.53788   0.00000  Uiso   1.00
C453   C     0.57958   0.07165   0.51646   0.00000  Uiso   1.00
C454   C     0.58387   0.05206   0.49683   0.00000  Uiso   1.00
C455   C     0.60672   0.03560   0.49943   0.00000  Uiso   1.00
C456   C     0.62447   0.03850   0.52126   0.00000  Uiso   1.00
C457   C     0.61971   0.05816   0.54075   0.00000  Uiso   1.00
C458   C     0.56446   0.04918   0.47406   0.00000  Uiso   1.00
N83    N     0.54387   0.06687   0.47118   0.00000  Uiso   1.00
C459   C     0.68822   0.91932   0.34951   0.00000  Uiso   1.00
C460   C     0.66598   0.90785   0.36221   0.00000  Uiso   1.00
C461   C     0.70067   0.94102   0.36255   0.00000  Uiso   1.00
O42    O     0.65130   0.88809   0.34956   0.00000  Uiso   1.00
N84    N     0.56398   0.86376   0.43731   0.00000  Uiso   1.00
C462   C     0.65784   0.94845   0.42650   0.00000  Uiso   1.00
H247   H     0.59336   0.08988   0.55266   0.00000  Uiso   1.00
H248   H     0.56245   0.08477   0.51536   0.00000  Uiso   1.00
H249   H     0.61091   0.02054   0.48452   0.00000  Uiso   1.00
H250   H     0.64165   0.02550   0.52281   0.00000  Uiso   1.00
H251   H     0.71776   0.95063   0.35343   0.00000  Uiso   1.00
H252   H     0.66701   0.96515   0.43670   0.00000  Uiso   1.00
C463   C     0.09726   0.57462   0.53788   0.00000  Uiso   1.00
C464   C     0.07958   0.57165   0.51646   0.00000  Uiso   1.00
C465   C     0.08387   0.55206   0.49683   0.00000  Uiso   1.00
C466   C     0.10672   0.53560   0.49943   0.00000  Uiso   1.00
C467   C     0.12447   0.53850   0.52126   0.00000  Uiso   1.00
C468   C     0.11971   0.55816   0.54075   0.00000  Uiso   1.00
C469   C     0.06446   0.54918   0.47406   0.00000  Uiso   1.00
N85    N     0.04387   0.56687   0.47118   0.00000  Uiso   1.00
C470   C     0.18822   0.41932   0.34951   0.00000  Uiso   1.00
C471   C     0.16598   0.40785   0.36221   0.00000  Uiso   1.00
C472   C     0.20067   0.44102   0.36255   0.00000  Uiso   1.00
O43    O     0.15130   0.38809   0.34956   0.00000  Uiso   1.00
N86    N     0.06398   0.36376   0.43731   0.00000  Uiso   1.00
C473   C     0.15784   0.44845   0.42650   0.00000  Uiso   1.00
H253   H     0.09336   0.58988   0.55266   0.00000  Uiso   1.00
H254   H     0.06245   0.58477   0.51536   0.00000  Uiso   1.00
H255   H     0.11091   0.52054   0.48452   0.00000  Uiso   1.00
H256   H     0.14165   0.52550   0.52281   0.00000  Uiso   1.00
H257   H     0.21776   0.45063   0.35343   0.00000  Uiso   1.00
H258   H     0.16701   0.46515   0.43670   0.00000  Uiso   1.00
C474   C     0.09726   0.07462   0.03788   0.00000  Uiso   1.00
C475   C     0.07958   0.07165   0.01646   0.00000  Uiso   1.00
C476   C     0.08387   0.05206   0.99683   0.00000  Uiso   1.00
C477   C     0.10672   0.03560   0.99943   0.00000  Uiso   1.00
C478   C     0.12447   0.03850   0.02126   0.00000  Uiso   1.00
C479   C     0.11971   0.05816   0.04075   0.00000  Uiso   1.00
C480   C     0.06446   0.04918   0.97406   0.00000  Uiso   1.00
N87    N     0.04387   0.06687   0.97118   0.00000  Uiso   1.00
C481   C     0.18822   0.91932   0.84951   0.00000  Uiso   1.00
C482   C     0.16598   0.90785   0.86221   0.00000  Uiso   1.00
C483   C     0.20067   0.94102   0.86255   0.00000  Uiso   1.00
O44    O     0.15130   0.88809   0.84956   0.00000  Uiso   1.00
N88    N     0.06398   0.86376   0.93731   0.00000  Uiso   1.00
C484   C     0.15784   0.94845   0.92650   0.00000  Uiso   1.00
H259   H     0.09336   0.08988   0.05266   0.00000  Uiso   1.00
H260   H     0.06245   0.08477   0.01536   0.00000  Uiso   1.00
H261   H     0.11091   0.02054   0.98452   0.00000  Uiso   1.00
H262   H     0.14165   0.02550   0.02281   0.00000  Uiso   1.00
H263   H     0.21776   0.95063   0.85343   0.00000  Uiso   1.00
H264   H     0.16701   0.96515   0.93670   0.00000  Uiso   1.00
C485   C     0.90274   0.07462   0.96212   0.00000  Uiso   1.00
C486   C     0.92042   0.07165   0.98354   0.00000  Uiso   1.00
C487   C     0.91613   0.05206   0.00317   0.00000  Uiso   1.00
C488   C     0.89328   0.03560   0.00057   0.00000  Uiso   1.00
C489   C     0.87553   0.03850   0.97874   0.00000  Uiso   1.00
C490   C     0.88029   0.05816   0.95925   0.00000  Uiso   1.00
C491   C     0.93554   0.04918   0.02594   0.00000  Uiso   1.00
N89    N     0.95613   0.06687   0.02882   0.00000  Uiso   1.00
C492   C     0.81178   0.91932   0.15049   0.00000  Uiso   1.00
C493   C     0.83402   0.90785   0.13779   0.00000  Uiso   1.00
C494   C     0.79933   0.94102   0.13745   0.00000  Uiso   1.00
O45    O     0.84870   0.88809   0.15044   0.00000  Uiso   1.00
N90    N     0.93602   0.86376   0.06269   0.00000  Uiso   1.00
C495   C     0.84216   0.94845   0.07350   0.00000  Uiso   1.00
H265   H     0.90664   0.08988   0.94734   0.00000  Uiso   1.00
H266   H     0.93755   0.08477   0.98464   0.00000  Uiso   1.00
H267   H     0.88909   0.02054   0.01548   0.00000  Uiso   1.00
H268   H     0.85835   0.02550   0.97719   0.00000  Uiso   1.00
H269   H     0.78224   0.95063   0.14657   0.00000  Uiso   1.00
H270   H     0.83299   0.96515   0.06330   0.00000  Uiso   1.00
C496   C     0.90274   0.57462   0.46212   0.00000  Uiso   1.00
C497   C     0.92042   0.57165   0.48354   0.00000  Uiso   1.00
C498   C     0.91613   0.55206   0.50317   0.00000  Uiso   1.00
C499   C     0.89328   0.53560   0.50057   0.00000  Uiso   1.00
C500   C     0.87553   0.53850   0.47874   0.00000  Uiso   1.00
C501   C     0.88029   0.55816   0.45925   0.00000  Uiso   1.00
C502   C     0.93554   0.54918   0.52594   0.00000  Uiso   1.00
N91    N     0.95613   0.56687   0.52882   0.00000  Uiso   1.00
C503   C     0.81178   0.41932   0.65049   0.00000  Uiso   1.00
C504   C     0.83402   0.40785   0.63779   0.00000  Uiso   1.00
C505   C     0.79933   0.44102   0.63745   0.00000  Uiso   1.00
O46    O     0.84870   0.38809   0.65044   0.00000  Uiso   1.00
N92    N     0.93602   0.36376   0.56269   0.00000  Uiso   1.00
C506   C     0.84216   0.44845   0.57350   0.00000  Uiso   1.00
H271   H     0.90664   0.58988   0.44734   0.00000  Uiso   1.00
H272   H     0.93755   0.58477   0.48464   0.00000  Uiso   1.00
H273   H     0.88909   0.52054   0.51548   0.00000  Uiso   1.00
H274   H     0.85835   0.52550   0.47719   0.00000  Uiso   1.00
H275   H     0.78224   0.45063   0.64657   0.00000  Uiso   1.00
H276   H     0.83299   0.46515   0.56330   0.00000  Uiso   1.00
C507   C     0.40274   0.07462   0.46212   0.00000  Uiso   1.00
C508   C     0.42042   0.07165   0.48354   0.00000  Uiso   1.00
C509   C     0.41613   0.05206   0.50317   0.00000  Uiso   1.00
C510   C     0.39328   0.03560   0.50057   0.00000  Uiso   1.00
C511   C     0.37553   0.03850   0.47874   0.00000  Uiso   1.00
C512   C     0.38029   0.05816   0.45925   0.00000  Uiso   1.00
C513   C     0.43554   0.04918   0.52594   0.00000  Uiso   1.00
N93    N     0.45613   0.06687   0.52882   0.00000  Uiso   1.00
C514   C     0.31178   0.91932   0.65049   0.00000  Uiso   1.00
C515   C     0.33402   0.90785   0.63779   0.00000  Uiso   1.00
C516   C     0.29933   0.94102   0.63745   0.00000  Uiso   1.00
O47    O     0.34870   0.88809   0.65044   0.00000  Uiso   1.00
N94    N     0.43602   0.86376   0.56269   0.00000  Uiso   1.00
C517   C     0.34216   0.94845   0.57350   0.00000  Uiso   1.00
H277   H     0.40664   0.08988   0.44734   0.00000  Uiso   1.00
H278   H     0.43755   0.08477   0.48464   0.00000  Uiso   1.00
H279   H     0.38909   0.02054   0.51548   0.00000  Uiso   1.00
H280   H     0.35835   0.02550   0.47719   0.00000  Uiso   1.00
H281   H     0.28224   0.95063   0.64657   0.00000  Uiso   1.00
H282   H     0.33299   0.96515   0.56330   0.00000  Uiso   1.00
C518   C     0.40274   0.57462   0.96212   0.00000  Uiso   1.00
C519   C     0.42042   0.57165   0.98354   0.00000  Uiso   1.00
C520   C     0.41613   0.55206   0.00317   0.00000  Uiso   1.00
C521   C     0.39328   0.53560   0.00057   0.00000  Uiso   1.00
C522   C     0.37553   0.53850   0.97874   0.00000  Uiso   1.00
C523   C     0.38029   0.55816   0.95925   0.00000  Uiso   1.00
C524   C     0.43554   0.54918   0.02594   0.00000  Uiso   1.00
N95    N     0.45613   0.56687   0.02882   0.00000  Uiso   1.00
C525   C     0.31178   0.41932   0.15049   0.00000  Uiso   1.00
C526   C     0.33402   0.40785   0.13779   0.00000  Uiso   1.00
C527   C     0.29933   0.44102   0.13745   0.00000  Uiso   1.00
O48    O     0.34870   0.38809   0.15044   0.00000  Uiso   1.00
N96    N     0.43602   0.36376   0.06269   0.00000  Uiso   1.00
C528   C     0.34216   0.44845   0.07350   0.00000  Uiso   1.00
H283   H     0.40664   0.58988   0.94734   0.00000  Uiso   1.00
H284   H     0.43755   0.58477   0.98464   0.00000  Uiso   1.00
H285   H     0.38909   0.52054   0.01548   0.00000  Uiso   1.00
H286   H     0.35835   0.52550   0.97719   0.00000  Uiso   1.00
H287   H     0.28224   0.45063   0.14657   0.00000  Uiso   1.00
H288   H     0.33299   0.46515   0.06330   0.00000  Uiso   1.00
C529   C     0.84726   0.71212   0.32462   0.00000  Uiso   1.00
C530   C     0.82958   0.73354   0.32165   0.00000  Uiso   1.00
C531   C     0.83387   0.75317   0.30206   0.00000  Uiso   1.00
C532   C     0.85672   0.75057   0.28560   0.00000  Uiso   1.00
C533   C     0.87447   0.72874   0.28850   0.00000  Uiso   1.00
C534   C     0.86971   0.70925   0.30816   0.00000  Uiso   1.00
C535   C     0.81446   0.77594   0.29918   0.00000  Uiso   1.00
N97    N     0.79387   0.77882   0.31687   0.00000  Uiso   1.00
C536   C     0.93822   0.90049   0.16932   0.00000  Uiso   1.00
C537   C     0.91598   0.88779   0.15785   0.00000  Uiso   1.00
C538   C     0.95067   0.88745   0.19102   0.00000  Uiso   1.00
O49    O     0.90130   0.90044   0.13809   0.00000  Uiso   1.00
N98    N     0.81398   0.81269   0.11376   0.00000  Uiso   1.00
C539   C     0.90784   0.82350   0.19845   0.00000  Uiso   1.00
H289   H     0.84336   0.69734   0.33988   0.00000  Uiso   1.00
H290   H     0.81245   0.73464   0.33477   0.00000  Uiso   1.00
H291   H     0.86091   0.76548   0.27054   0.00000  Uiso   1.00
H292   H     0.89165   0.72719   0.27550   0.00000  Uiso   1.00
H293   H     0.96776   0.89657   0.20063   0.00000  Uiso   1.00
H294   H     0.91701   0.81330   0.21515   0.00000  Uiso   1.00
C540   C     0.84726   0.21212   0.82462   0.00000  Uiso   1.00
C541   C     0.82958   0.23354   0.82165   0.00000  Uiso   1.00
C542   C     0.83387   0.25317   0.80206   0.00000  Uiso   1.00
C543   C     0.85672   0.25057   0.78560   0.00000  Uiso   1.00
C544   C     0.87447   0.22874   0.78850   0.00000  Uiso   1.00
C545   C     0.86971   0.20925   0.80816   0.00000  Uiso   1.00
C546   C     0.81446   0.27594   0.79918   0.00000  Uiso   1.00
N99    N     0.79387   0.27882   0.81687   0.00000  Uiso   1.00
C547   C     0.93822   0.40049   0.66932   0.00000  Uiso   1.00
C548   C     0.91598   0.38779   0.65785   0.00000  Uiso   1.00
C549   C     0.95067   0.38745   0.69102   0.00000  Uiso   1.00
O50    O     0.90130   0.40044   0.63809   0.00000  Uiso   1.00
N100   N     0.81398   0.31269   0.61376   0.00000  Uiso   1.00
C550   C     0.90784   0.32350   0.69845   0.00000  Uiso   1.00
H295   H     0.84336   0.19734   0.83988   0.00000  Uiso   1.00
H296   H     0.81245   0.23464   0.83477   0.00000  Uiso   1.00
H297   H     0.86091   0.26548   0.77054   0.00000  Uiso   1.00
H298   H     0.89165   0.22719   0.77550   0.00000  Uiso   1.00
H299   H     0.96776   0.39657   0.70063   0.00000  Uiso   1.00
H300   H     0.91701   0.31330   0.71515   0.00000  Uiso   1.00
C551   C     0.34726   0.71212   0.82462   0.00000  Uiso   1.00
C552   C     0.32958   0.73354   0.82165   0.00000  Uiso   1.00
C553   C     0.33387   0.75317   0.80206   0.00000  Uiso   1.00
C554   C     0.35672   0.75057   0.78560   0.00000  Uiso   1.00
C555   C     0.37447   0.72874   0.78850   0.00000  Uiso   1.00
C556   C     0.36971   0.70925   0.80816   0.00000  Uiso   1.00
C557   C     0.31446   0.77594   0.79918   0.00000  Uiso   1.00
N101   N     0.29387   0.77882   0.81687   0.00000  Uiso   1.00
C558   C     0.43822   0.90049   0.66932   0.00000  Uiso   1.00
C559   C     0.41598   0.88779   0.65785   0.00000  Uiso   1.00
C560   C     0.45067   0.88745   0.69102   0.00000  Uiso   1.00
O51    O     0.40130   0.90044   0.63809   0.00000  Uiso   1.00
N102   N     0.31398   0.81269   0.61376   0.00000  Uiso   1.00
C561   C     0.40784   0.82350   0.69845   0.00000  Uiso   1.00
H301   H     0.34336   0.69734   0.83988   0.00000  Uiso   1.00
H302   H     0.31245   0.73464   0.83477   0.00000  Uiso   1.00
H303   H     0.36091   0.76548   0.77054   0.00000  Uiso   1.00
H304   H     0.39165   0.72719   0.77550   0.00000  Uiso   1.00
H305   H     0.46776   0.89657   0.70063   0.00000  Uiso   1.00
H306   H     0.41701   0.81330   0.71515   0.00000  Uiso   1.00
C562   C     0.34726   0.21212   0.32462   0.00000  Uiso   1.00
C563   C     0.32958   0.23354   0.32165   0.00000  Uiso   1.00
C564   C     0.33387   0.25317   0.30206   0.00000  Uiso   1.00
C565   C     0.35672   0.25057   0.28560   0.00000  Uiso   1.00
C566   C     0.37447   0.22874   0.28850   0.00000  Uiso   1.00
C567   C     0.36971   0.20925   0.30816   0.00000  Uiso   1.00
C568   C     0.31446   0.27594   0.29918   0.00000  Uiso   1.00
N103   N     0.29387   0.27882   0.31687   0.00000  Uiso   1.00
C569   C     0.43822   0.40049   0.16932   0.00000  Uiso   1.00
C570   C     0.41598   0.38779   0.15785   0.00000  Uiso   1.00
C571   C     0.45067   0.38745   0.19102   0.00000  Uiso   1.00
O52    O     0.40130   0.40044   0.13809   0.00000  Uiso   1.00
N104   N     0.31398   0.31269   0.11376   0.00000  Uiso   1.00
C572   C     0.40784   0.32350   0.19845   0.00000  Uiso   1.00
H307   H     0.34336   0.19734   0.33988   0.00000  Uiso   1.00
H308   H     0.31245   0.23464   0.33477   0.00000  Uiso   1.00
H309   H     0.36091   0.26548   0.27054   0.00000  Uiso   1.00
H310   H     0.39165   0.22719   0.27550   0.00000  Uiso   1.00
H311   H     0.46776   0.39657   0.20063   0.00000  Uiso   1.00
H312   H     0.41701   0.31330   0.21515   0.00000  Uiso   1.00
C573   C     0.15274   0.78788   0.82462   0.00000  Uiso   1.00
C574   C     0.17042   0.76646   0.82165   0.00000  Uiso   1.00
C575   C     0.16613   0.74683   0.80206   0.00000  Uiso   1.00
C576   C     0.14328   0.74943   0.78560   0.00000  Uiso   1.00
C577   C     0.12553   0.77126   0.78850   0.00000  Uiso   1.00
C578   C     0.13029   0.79075   0.80816   0.00000  Uiso   1.00
C579   C     0.18554   0.72406   0.79918   0.00000  Uiso   1.00
N105   N     0.20613   0.72118   0.81687   0.00000  Uiso   1.00
C580   C     0.06178   0.59951   0.66932   0.00000  Uiso   1.00
C581   C     0.08402   0.61221   0.65785   0.00000  Uiso   1.00
C582   C     0.04933   0.61255   0.69102   0.00000  Uiso   1.00
O53    O     0.09870   0.59956   0.63809   0.00000  Uiso   1.00
N106   N     0.18602   0.68731   0.61376   0.00000  Uiso   1.00
C583   C     0.09216   0.67650   0.69845   0.00000  Uiso   1.00
H313   H     0.15664   0.80266   0.83988   0.00000  Uiso   1.00
H314   H     0.18755   0.76536   0.83477   0.00000  Uiso   1.00
H315   H     0.13909   0.73452   0.77054   0.00000  Uiso   1.00
H316   H     0.10835   0.77281   0.77550   0.00000  Uiso   1.00
H317   H     0.03224   0.60343   0.70063   0.00000  Uiso   1.00
H318   H     0.08299   0.68670   0.71515   0.00000  Uiso   1.00
C584   C     0.15274   0.28788   0.32462   0.00000  Uiso   1.00
C585   C     0.17042   0.26646   0.32165   0.00000  Uiso   1.00
C586   C     0.16613   0.24683   0.30206   0.00000  Uiso   1.00
C587   C     0.14328   0.24943   0.28560   0.00000  Uiso   1.00
C588   C     0.12553   0.27126   0.28850   0.00000  Uiso   1.00
C589   C     0.13029   0.29075   0.30816   0.00000  Uiso   1.00
C590   C     0.18554   0.22406   0.29918   0.00000  Uiso   1.00
N107   N     0.20613   0.22118   0.31687   0.00000  Uiso   1.00
C591   C     0.06178   0.09951   0.16932   0.00000  Uiso   1.00
C592   C     0.08402   0.11221   0.15785   0.00000  Uiso   1.00
C593   C     0.04933   0.11255   0.19102   0.00000  Uiso   1.00
O54    O     0.09870   0.09956   0.13809   0.00000  Uiso   1.00
N108   N     0.18602   0.18731   0.11376   0.00000  Uiso   1.00
C594   C     0.09216   0.17650   0.19845   0.00000  Uiso   1.00
H319   H     0.15664   0.30266   0.33988   0.00000  Uiso   1.00
H320   H     0.18755   0.26536   0.33477   0.00000  Uiso   1.00
H321   H     0.13909   0.23452   0.27054   0.00000  Uiso   1.00
H322   H     0.10835   0.27281   0.27550   0.00000  Uiso   1.00
H323   H     0.03224   0.10343   0.20063   0.00000  Uiso   1.00
H324   H     0.08299   0.18670   0.21515   0.00000  Uiso   1.00
C595   C     0.65274   0.78788   0.32462   0.00000  Uiso   1.00
C596   C     0.67042   0.76646   0.32165   0.00000  Uiso   1.00
C597   C     0.66613   0.74683   0.30206   0.00000  Uiso   1.00
C598   C     0.64328   0.74943   0.28560   0.00000  Uiso   1.00
C599   C     0.62553   0.77126   0.28850   0.00000  Uiso   1.00
C600   C     0.63029   0.79075   0.30816   0.00000  Uiso   1.00
C601   C     0.68554   0.72406   0.29918   0.00000  Uiso   1.00
N109   N     0.70613   0.72118   0.31687   0.00000  Uiso   1.00
C602   C     0.56178   0.59951   0.16932   0.00000  Uiso   1.00
C603   C     0.58402   0.61221   0.15785   0.00000  Uiso   1.00
C604   C     0.54933   0.61255   0.19102   0.00000  Uiso   1.00
O55    O     0.59870   0.59956   0.13809   0.00000  Uiso   1.00
N110   N     0.68602   0.68731   0.11376   0.00000  Uiso   1.00
C605   C     0.59216   0.67650   0.19845   0.00000  Uiso   1.00
H325   H     0.65664   0.80266   0.33988   0.00000  Uiso   1.00
H326   H     0.68755   0.76536   0.33477   0.00000  Uiso   1.00
H327   H     0.63909   0.73452   0.27054   0.00000  Uiso   1.00
H328   H     0.60835   0.77281   0.27550   0.00000  Uiso   1.00
H329   H     0.53224   0.60343   0.20063   0.00000  Uiso   1.00
H330   H     0.58299   0.68670   0.21515   0.00000  Uiso   1.00
C606   C     0.65274   0.28788   0.82462   0.00000  Uiso   1.00
C607   C     0.67042   0.26646   0.82165   0.00000  Uiso   1.00
C608   C     0.66613   0.24683   0.80206   0.00000  Uiso   1.00
C609   C     0.64328   0.24943   0.78560   0.00000  Uiso   1.00
C610   C     0.62553   0.27126   0.78850   0.00000  Uiso   1.00
C611   C     0.63029   0.29075   0.80816   0.00000  Uiso   1.00
C612   C     0.68554   0.22406   0.79918   0.00000  Uiso   1.00
N111   N     0.70613   0.22118   0.81687   0.00000  Uiso   1.00
C613   C     0.56178   0.09951   0.66932   0.00000  Uiso   1.00
C614   C     0.58402   0.11221   0.65785   0.00000  Uiso   1.00
C615   C     0.54933   0.11255   0.69102   0.00000  Uiso   1.00
O56    O     0.59870   0.09956   0.63809   0.00000  Uiso   1.00
N112   N     0.68602   0.18731   0.61376   0.00000  Uiso   1.00
C616   C     0.59216   0.17650   0.69845   0.00000  Uiso   1.00
H331   H     0.65664   0.30266   0.83988   0.00000  Uiso   1.00
H332   H     0.68755   0.26536   0.83477   0.00000  Uiso   1.00
H333   H     0.63909   0.23452   0.77054   0.00000  Uiso   1.00
H334   H     0.60835   0.27281   0.77550   0.00000  Uiso   1.00
H335   H     0.53224   0.10343   0.70063   0.00000  Uiso   1.00
H336   H     0.58299   0.18670   0.71515   0.00000  Uiso   1.00
C617   C     0.34726   0.28788   0.17538   0.00000  Uiso   1.00
C618   C     0.32958   0.26646   0.17835   0.00000  Uiso   1.00
C619   C     0.33387   0.24683   0.19794   0.00000  Uiso   1.00
C620   C     0.35672   0.24943   0.21440   0.00000  Uiso   1.00
C621   C     0.37447   0.27126   0.21150   0.00000  Uiso   1.00
C622   C     0.36971   0.29075   0.19184   0.00000  Uiso   1.00
C623   C     0.31446   0.22406   0.20082   0.00000  Uiso   1.00
N113   N     0.29387   0.22118   0.18313   0.00000  Uiso   1.00
C624   C     0.43822   0.09951   0.33068   0.00000  Uiso   1.00
C625   C     0.41598   0.11221   0.34215   0.00000  Uiso   1.00
C626   C     0.45067   0.11255   0.30898   0.00000  Uiso   1.00
O57    O     0.40130   0.09956   0.36191   0.00000  Uiso   1.00
N114   N     0.31398   0.18731   0.38624   0.00000  Uiso   1.00
C627   C     0.40784   0.17650   0.30155   0.00000  Uiso   1.00
H337   H     0.34336   0.30266   0.16012   0.00000  Uiso   1.00
H338   H     0.31245   0.26536   0.16523   0.00000  Uiso   1.00
H339   H     0.36091   0.23452   0.22946   0.00000  Uiso   1.00
H340   H     0.39165   0.27281   0.22450   0.00000  Uiso   1.00
H341   H     0.46776   0.10343   0.29937   0.00000  Uiso   1.00
H342   H     0.41701   0.18670   0.28485   0.00000  Uiso   1.00
C628   C     0.34726   0.78788   0.67538   0.00000  Uiso   1.00
C629   C     0.32958   0.76646   0.67835   0.00000  Uiso   1.00
C630   C     0.33387   0.74683   0.69794   0.00000  Uiso   1.00
C631   C     0.35672   0.74943   0.71440   0.00000  Uiso   1.00
C632   C     0.37447   0.77126   0.71150   0.00000  Uiso   1.00
C633   C     0.36971   0.79075   0.69184   0.00000  Uiso   1.00
C634   C     0.31446   0.72406   0.70082   0.00000  Uiso   1.00
N115   N     0.29387   0.72118   0.68313   0.00000  Uiso   1.00
C635   C     0.43822   0.59951   0.83068   0.00000  Uiso   1.00
C636   C     0.41598   0.61221   0.84215   0.00000  Uiso   1.00
C637   C     0.45067   0.61255   0.80898   0.00000  Uiso   1.00
O58    O     0.40130   0.59956   0.86191   0.00000  Uiso   1.00
N116   N     0.31398   0.68731   0.88624   0.00000  Uiso   1.00
C638   C     0.40784   0.67650   0.80155   0.00000  Uiso   1.00
H343   H     0.34336   0.80266   0.66012   0.00000  Uiso   1.00
H344   H     0.31245   0.76536   0.66523   0.00000  Uiso   1.00
H345   H     0.36091   0.73452   0.72946   0.00000  Uiso   1.00
H346   H     0.39165   0.77281   0.72450   0.00000  Uiso   1.00
H347   H     0.46776   0.60343   0.79937   0.00000  Uiso   1.00
H348   H     0.41701   0.68670   0.78485   0.00000  Uiso   1.00
C639   C     0.84726   0.28788   0.67538   0.00000  Uiso   1.00
C640   C     0.82958   0.26646   0.67835   0.00000  Uiso   1.00
C641   C     0.83387   0.24683   0.69794   0.00000  Uiso   1.00
C642   C     0.85672   0.24943   0.71440   0.00000  Uiso   1.00
C643   C     0.87447   0.27126   0.71150   0.00000  Uiso   1.00
C644   C     0.86971   0.29075   0.69184   0.00000  Uiso   1.00
C645   C     0.81446   0.22406   0.70082   0.00000  Uiso   1.00
N117   N     0.79387   0.22118   0.68313   0.00000  Uiso   1.00
C646   C     0.93822   0.09951   0.83068   0.00000  Uiso   1.00
C647   C     0.91598   0.11221   0.84215   0.00000  Uiso   1.00
C648   C     0.95067   0.11255   0.80898   0.00000  Uiso   1.00
O59    O     0.90130   0.09956   0.86191   0.00000  Uiso   1.00
N118   N     0.81398   0.18731   0.88624   0.00000  Uiso   1.00
C649   C     0.90784   0.17650   0.80155   0.00000  Uiso   1.00
H349   H     0.84336   0.30266   0.66012   0.00000  Uiso   1.00
H350   H     0.81245   0.26536   0.66523   0.00000  Uiso   1.00
H351   H     0.86091   0.23452   0.72946   0.00000  Uiso   1.00
H352   H     0.89165   0.27281   0.72450   0.00000  Uiso   1.00
H353   H     0.96776   0.10343   0.79937   0.00000  Uiso   1.00
H354   H     0.91701   0.18670   0.78485   0.00000  Uiso   1.00
C650   C     0.84726   0.78788   0.17538   0.00000  Uiso   1.00
C651   C     0.82958   0.76646   0.17835   0.00000  Uiso   1.00
C652   C     0.83387   0.74683   0.19794   0.00000  Uiso   1.00
C653   C     0.85672   0.74943   0.21440   0.00000  Uiso   1.00
C654   C     0.87447   0.77126   0.21150   0.00000  Uiso   1.00
C655   C     0.86971   0.79075   0.19184   0.00000  Uiso   1.00
C656   C     0.81446   0.72406   0.20082   0.00000  Uiso   1.00
N119   N     0.79387   0.72118   0.18313   0.00000  Uiso   1.00
C657   C     0.93822   0.59951   0.33068   0.00000  Uiso   1.00
C658   C     0.91598   0.61221   0.34215   0.00000  Uiso   1.00
C659   C     0.95067   0.61255   0.30898   0.00000  Uiso   1.00
O60    O     0.90130   0.59956   0.36191   0.00000  Uiso   1.00
N120   N     0.81398   0.68731   0.38624   0.00000  Uiso   1.00
C660   C     0.90784   0.67650   0.30155   0.00000  Uiso   1.00
H355   H     0.84336   0.80266   0.16012   0.00000  Uiso   1.00
H356   H     0.81245   0.76536   0.16523   0.00000  Uiso   1.00
H357   H     0.86091   0.73452   0.22946   0.00000  Uiso   1.00
H358   H     0.89165   0.77281   0.22450   0.00000  Uiso   1.00
H359   H     0.96776   0.60343   0.29937   0.00000  Uiso   1.00
H360   H     0.91701   0.68670   0.28485   0.00000  Uiso   1.00
C661   C     0.65274   0.21212   0.67538   0.00000  Uiso   1.00
C662   C     0.67042   0.23354   0.67835   0.00000  Uiso   1.00
C663   C     0.66613   0.25317   0.69794   0.00000  Uiso   1.00
C664   C     0.64328   0.25057   0.71440   0.00000  Uiso   1.00
C665   C     0.62553   0.22874   0.71150   0.00000  Uiso   1.00
C666   C     0.63029   0.20925   0.69184   0.00000  Uiso   1.00
C667   C     0.68554   0.27594   0.70082   0.00000  Uiso   1.00
N121   N     0.70613   0.27882   0.68313   0.00000  Uiso   1.00
C668   C     0.56178   0.40049   0.83068   0.00000  Uiso   1.00
C669   C     0.58402   0.38779   0.84215   0.00000  Uiso   1.00
C670   C     0.54933   0.38745   0.80898   0.00000  Uiso   1.00
O61    O     0.59870   0.40044   0.86191   0.00000  Uiso   1.00
N122   N     0.68602   0.31269   0.88624   0.00000  Uiso   1.00
C671   C     0.59216   0.32350   0.80155   0.00000  Uiso   1.00
H361   H     0.65664   0.19734   0.66012   0.00000  Uiso   1.00
H362   H     0.68755   0.23464   0.66523   0.00000  Uiso   1.00
H363   H     0.63909   0.26548   0.72946   0.00000  Uiso   1.00
H364   H     0.60835   0.22719   0.72450   0.00000  Uiso   1.00
H365   H     0.53224   0.39657   0.79937   0.00000  Uiso   1.00
H366   H     0.58299   0.31330   0.78485   0.00000  Uiso   1.00
C672   C     0.65274   0.71212   0.17538   0.00000  Uiso   1.00
C673   C     0.67042   0.73354   0.17835   0.00000  Uiso   1.00
C674   C     0.66613   0.75317   0.19794   0.00000  Uiso   1.00
C675   C     0.64328   0.75057   0.21440   0.00000  Uiso   1.00
C676   C     0.62553   0.72874   0.21150   0.00000  Uiso   1.00
C677   C     0.63029   0.70925   0.19184   0.00000  Uiso   1.00
C678   C     0.68554   0.77594   0.20082   0.00000  Uiso   1.00
N123   N     0.70613   0.77882   0.18313   0.00000  Uiso   1.00
C679   C     0.56178   0.90049   0.33068   0.00000  Uiso   1.00
C680   C     0.58402   0.88779   0.34215   0.00000  Uiso   1.00
C681   C     0.54933   0.88745   0.30898   0.00000  Uiso   1.00
O62    O     0.59870   0.90044   0.36191   0.00000  Uiso   1.00
N124   N     0.68602   0.81269   0.38624   0.00000  Uiso   1.00
C682   C     0.59216   0.82350   0.30155   0.00000  Uiso   1.00
H367   H     0.65664   0.69734   0.16012   0.00000  Uiso   1.00
H368   H     0.68755   0.73464   0.16523   0.00000  Uiso   1.00
H369   H     0.63909   0.76548   0.22946   0.00000  Uiso   1.00
H370   H     0.60835   0.72719   0.22450   0.00000  Uiso   1.00
H371   H     0.53224   0.89657   0.29937   0.00000  Uiso   1.00
H372   H     0.58299   0.81330   0.28485   0.00000  Uiso   1.00
C683   C     0.15274   0.21212   0.17538   0.00000  Uiso   1.00
C684   C     0.17042   0.23354   0.17835   0.00000  Uiso   1.00
C685   C     0.16613   0.25317   0.19794   0.00000  Uiso   1.00
C686   C     0.14328   0.25057   0.21440   0.00000  Uiso   1.00
C687   C     0.12553   0.22874   0.21150   0.00000  Uiso   1.00
C688   C     0.13029   0.20925   0.19184   0.00000  Uiso   1.00
C689   C     0.18554   0.27594   0.20082   0.00000  Uiso   1.00
N125   N     0.20613   0.27882   0.18313   0.00000  Uiso   1.00
C690   C     0.06178   0.40049   0.33068   0.00000  Uiso   1.00
C691   C     0.08402   0.38779   0.34215   0.00000  Uiso   1.00
C692   C     0.04933   0.38745   0.30898   0.00000  Uiso   1.00
O63    O     0.09870   0.40044   0.36191   0.00000  Uiso   1.00
N126   N     0.18602   0.31269   0.38624   0.00000  Uiso   1.00
C693   C     0.09216   0.32350   0.30155   0.00000  Uiso   1.00
H373   H     0.15664   0.19734   0.16012   0.00000  Uiso   1.00
H374   H     0.18755   0.23464   0.16523   0.00000  Uiso   1.00
H375   H     0.13909   0.26548   0.22946   0.00000  Uiso   1.00
H376   H     0.10835   0.22719   0.22450   0.00000  Uiso   1.00
H377   H     0.03224   0.39657   0.29937   0.00000  Uiso   1.00
H378   H     0.08299   0.31330   0.28485   0.00000  Uiso   1.00
C694   C     0.15274   0.71212   0.67538   0.00000  Uiso   1.00
C695   C     0.17042   0.73354   0.67835   0.00000  Uiso   1.00
C696   C     0.16613   0.75317   0.69794   0.00000  Uiso   1.00
C697   C     0.14328   0.75057   0.71440   0.00000  Uiso   1.00
C698   C     0.12553   0.72874   0.71150   0.00000  Uiso   1.00
C699   C     0.13029   0.70925   0.69184   0.00000  Uiso   1.00
C700   C     0.18554   0.77594   0.70082   0.00000  Uiso   1.00
N127   N     0.20613   0.77882   0.68313   0.00000  Uiso   1.00
C701   C     0.06178   0.90049   0.83068   0.00000  Uiso   1.00
C702   C     0.08402   0.88779   0.84215   0.00000  Uiso   1.00
C703   C     0.04933   0.88745   0.80898   0.00000  Uiso   1.00
O64    O     0.09870   0.90044   0.86191   0.00000  Uiso   1.00
N128   N     0.18602   0.81269   0.88624   0.00000  Uiso   1.00
C704   C     0.09216   0.82350   0.80155   0.00000  Uiso   1.00
H379   H     0.15664   0.69734   0.66012   0.00000  Uiso   1.00
H380   H     0.18755   0.73464   0.66523   0.00000  Uiso   1.00
H381   H     0.13909   0.76548   0.72946   0.00000  Uiso   1.00
H382   H     0.10835   0.72719   0.72450   0.00000  Uiso   1.00
H383   H     0.03224   0.89657   0.79937   0.00000  Uiso   1.00
H384   H     0.08299   0.81330   0.78485   0.00000  Uiso   1.00
C705   C     0.21212   0.67538   0.65274   0.00000  Uiso   1.00
C706   C     0.23354   0.67835   0.67042   0.00000  Uiso   1.00
C707   C     0.25317   0.69794   0.66613   0.00000  Uiso   1.00
C708   C     0.25057   0.71440   0.64328   0.00000  Uiso   1.00
C709   C     0.22874   0.71150   0.62553   0.00000  Uiso   1.00
C710   C     0.20925   0.69184   0.63029   0.00000  Uiso   1.00
C711   C     0.27594   0.70082   0.68554   0.00000  Uiso   1.00
N129   N     0.27882   0.68313   0.70613   0.00000  Uiso   1.00
C712   C     0.40049   0.83068   0.56178   0.00000  Uiso   1.00
C713   C     0.38779   0.84215   0.58402   0.00000  Uiso   1.00
C714   C     0.38745   0.80898   0.54933   0.00000  Uiso   1.00
O65    O     0.40044   0.86191   0.59870   0.00000  Uiso   1.00
N130   N     0.31269   0.88624   0.68602   0.00000  Uiso   1.00
C715   C     0.32350   0.80155   0.59216   0.00000  Uiso   1.00
H385   H     0.19734   0.66012   0.65664   0.00000  Uiso   1.00
H386   H     0.23464   0.66523   0.68755   0.00000  Uiso   1.00
H387   H     0.26548   0.72946   0.63909   0.00000  Uiso   1.00
H388   H     0.22719   0.72450   0.60835   0.00000  Uiso   1.00
H389   H     0.39657   0.79937   0.53224   0.00000  Uiso   1.00
H390   H     0.31330   0.78485   0.58299   0.00000  Uiso   1.00
C716   C     0.21212   0.17538   0.15274   0.00000  Uiso   1.00
C717   C     0.23354   0.17835   0.17042   0.00000  Uiso   1.00
C718   C     0.25317   0.19794   0.16613   0.00000  Uiso   1.00
C719   C     0.25057   0.21440   0.14328   0.00000  Uiso   1.00
C720   C     0.22874   0.21150   0.12553   0.00000  Uiso   1.00
C721   C     0.20925   0.19184   0.13029   0.00000  Uiso   1.00
C722   C     0.27594   0.20082   0.18554   0.00000  Uiso   1.00
N131   N     0.27882   0.18313   0.20613   0.00000  Uiso   1.00
C723   C     0.40049   0.33068   0.06178   0.00000  Uiso   1.00
C724   C     0.38779   0.34215   0.08402   0.00000  Uiso   1.00
C725   C     0.38745   0.30898   0.04933   0.00000  Uiso   1.00
O66    O     0.40044   0.36191   0.09870   0.00000  Uiso   1.00
N132   N     0.31269   0.38624   0.18602   0.00000  Uiso   1.00
C726   C     0.32350   0.30155   0.09216   0.00000  Uiso   1.00
H391   H     0.19734   0.16012   0.15664   0.00000  Uiso   1.00
H392   H     0.23464   0.16523   0.18755   0.00000  Uiso   1.00
H393   H     0.26548   0.22946   0.13909   0.00000  Uiso   1.00
H394   H     0.22719   0.22450   0.10835   0.00000  Uiso   1.00
H395   H     0.39657   0.29937   0.03224   0.00000  Uiso   1.00
H396   H     0.31330   0.28485   0.08299   0.00000  Uiso   1.00
C727   C     0.71212   0.67538   0.15274   0.00000  Uiso   1.00
C728   C     0.73354   0.67835   0.17042   0.00000  Uiso   1.00
C729   C     0.75317   0.69794   0.16613   0.00000  Uiso   1.00
C730   C     0.75057   0.71440   0.14328   0.00000  Uiso   1.00
C731   C     0.72874   0.71150   0.12553   0.00000  Uiso   1.00
C732   C     0.70925   0.69184   0.13029   0.00000  Uiso   1.00
C733   C     0.77594   0.70082   0.18554   0.00000  Uiso   1.00
N133   N     0.77882   0.68313   0.20613   0.00000  Uiso   1.00
C734   C     0.90049   0.83068   0.06178   0.00000  Uiso   1.00
C735   C     0.88779   0.84215   0.08402   0.00000  Uiso   1.00
C736   C     0.88745   0.80898   0.04933   0.00000  Uiso   1.00
O67    O     0.90044   0.86191   0.09870   0.00000  Uiso   1.00
N134   N     0.81269   0.88624   0.18602   0.00000  Uiso   1.00
C737   C     0.82350   0.80155   0.09216   0.00000  Uiso   1.00
H397   H     0.69734   0.66012   0.15664   0.00000  Uiso   1.00
H398   H     0.73464   0.66523   0.18755   0.00000  Uiso   1.00
H399   H     0.76548   0.72946   0.13909   0.00000  Uiso   1.00
H400   H     0.72719   0.72450   0.10835   0.00000  Uiso   1.00
H401   H     0.89657   0.79937   0.03224   0.00000  Uiso   1.00
H402   H     0.81330   0.78485   0.08299   0.00000  Uiso   1.00
C738   C     0.71212   0.17538   0.65274   0.00000  Uiso   1.00
C739   C     0.73354   0.17835   0.67042   0.00000  Uiso   1.00
C740   C     0.75317   0.19794   0.66613   0.00000  Uiso   1.00
C741   C     0.75057   0.21440   0.64328   0.00000  Uiso   1.00
C742   C     0.72874   0.21150   0.62553   0.00000  Uiso   1.00
C743   C     0.70925   0.19184   0.63029   0.00000  Uiso   1.00
C744   C     0.77594   0.20082   0.68554   0.00000  Uiso   1.00
N135   N     0.77882   0.18313   0.70613   0.00000  Uiso   1.00
C745   C     0.90049   0.33068   0.56178   0.00000  Uiso   1.00
C746   C     0.88779   0.34215   0.58402   0.00000  Uiso   1.00
C747   C     0.88745   0.30898   0.54933   0.00000  Uiso   1.00
O68    O     0.90044   0.36191   0.59870   0.00000  Uiso   1.00
N136   N     0.81269   0.38624   0.68602   0.00000  Uiso   1.00
C748   C     0.82350   0.30155   0.59216   0.00000  Uiso   1.00
H403   H     0.69734   0.16012   0.65664   0.00000  Uiso   1.00
H404   H     0.73464   0.16523   0.68755   0.00000  Uiso   1.00
H405   H     0.76548   0.22946   0.63909   0.00000  Uiso   1.00
H406   H     0.72719   0.22450   0.60835   0.00000  Uiso   1.00
H407   H     0.89657   0.29937   0.53224   0.00000  Uiso   1.00
H408   H     0.81330   0.28485   0.58299   0.00000  Uiso   1.00
C749   C     0.28788   0.17538   0.34726   0.00000  Uiso   1.00
C750   C     0.26646   0.17835   0.32958   0.00000  Uiso   1.00
C751   C     0.24683   0.19794   0.33387   0.00000  Uiso   1.00
C752   C     0.24943   0.21440   0.35672   0.00000  Uiso   1.00
C753   C     0.27126   0.21150   0.37447   0.00000  Uiso   1.00
C754   C     0.29075   0.19184   0.36971   0.00000  Uiso   1.00
C755   C     0.22406   0.20082   0.31446   0.00000  Uiso   1.00
N137   N     0.22118   0.18313   0.29387   0.00000  Uiso   1.00
C756   C     0.09951   0.33068   0.43822   0.00000  Uiso   1.00
C757   C     0.11221   0.34215   0.41598   0.00000  Uiso   1.00
C758   C     0.11255   0.30898   0.45067   0.00000  Uiso   1.00
O69    O     0.09956   0.36191   0.40130   0.00000  Uiso   1.00
N138   N     0.18731   0.38624   0.31398   0.00000  Uiso   1.00
C759   C     0.17650   0.30155   0.40784   0.00000  Uiso   1.00
H409   H     0.30266   0.16012   0.34336   0.00000  Uiso   1.00
H410   H     0.26536   0.16523   0.31245   0.00000  Uiso   1.00
H411   H     0.23452   0.22946   0.36091   0.00000  Uiso   1.00
H412   H     0.27281   0.22450   0.39165   0.00000  Uiso   1.00
H413   H     0.10343   0.29937   0.46776   0.00000  Uiso   1.00
H414   H     0.18670   0.28485   0.41701   0.00000  Uiso   1.00
C760   C     0.28788   0.67538   0.84726   0.00000  Uiso   1.00
C761   C     0.26646   0.67835   0.82958   0.00000  Uiso   1.00
C762   C     0.24683   0.69794   0.83387   0.00000  Uiso   1.00
C763   C     0.24943   0.71440   0.85672   0.00000  Uiso   1.00
C764   C     0.27126   0.71150   0.87447   0.00000  Uiso   1.00
C765   C     0.29075   0.69184   0.86971   0.00000  Uiso   1.00
C766   C     0.22406   0.70082   0.81446   0.00000  Uiso   1.00
N139   N     0.22118   0.68313   0.79387   0.00000  Uiso   1.00
C767   C     0.09951   0.83068   0.93822   0.00000  Uiso   1.00
C768   C     0.11221   0.84215   0.91598   0.00000  Uiso   1.00
C769   C     0.11255   0.80898   0.95067   0.00000  Uiso   1.00
O70    O     0.09956   0.86191   0.90130   0.00000  Uiso   1.00
N140   N     0.18731   0.88624   0.81398   0.00000  Uiso   1.00
C770   C     0.17650   0.80155   0.90784   0.00000  Uiso   1.00
H415   H     0.30266   0.66012   0.84336   0.00000  Uiso   1.00
H416   H     0.26536   0.66523   0.81245   0.00000  Uiso   1.00
H417   H     0.23452   0.72946   0.86091   0.00000  Uiso   1.00
H418   H     0.27281   0.72450   0.89165   0.00000  Uiso   1.00
H419   H     0.10343   0.79937   0.96776   0.00000  Uiso   1.00
H420   H     0.18670   0.78485   0.91701   0.00000  Uiso   1.00
C771   C     0.78788   0.17538   0.84726   0.00000  Uiso   1.00
C772   C     0.76646   0.17835   0.82958   0.00000  Uiso   1.00
C773   C     0.74683   0.19794   0.83387   0.00000  Uiso   1.00
C774   C     0.74943   0.21440   0.85672   0.00000  Uiso   1.00
C775   C     0.77126   0.21150   0.87447   0.00000  Uiso   1.00
C776   C     0.79075   0.19184   0.86971   0.00000  Uiso   1.00
C777   C     0.72406   0.20082   0.81446   0.00000  Uiso   1.00
N141   N     0.72118   0.18313   0.79387   0.00000  Uiso   1.00
C778   C     0.59951   0.33068   0.93822   0.00000  Uiso   1.00
C779   C     0.61221   0.34215   0.91598   0.00000  Uiso   1.00
C780   C     0.61255   0.30898   0.95067   0.00000  Uiso   1.00
O71    O     0.59956   0.36191   0.90130   0.00000  Uiso   1.00
N142   N     0.68731   0.38624   0.81398   0.00000  Uiso   1.00
C781   C     0.67650   0.30155   0.90784   0.00000  Uiso   1.00
H421   H     0.80266   0.16012   0.84336   0.00000  Uiso   1.00
H422   H     0.76536   0.16523   0.81245   0.00000  Uiso   1.00
H423   H     0.73452   0.22946   0.86091   0.00000  Uiso   1.00
H424   H     0.77281   0.22450   0.89165   0.00000  Uiso   1.00
H425   H     0.60343   0.29937   0.96776   0.00000  Uiso   1.00
H426   H     0.68670   0.28485   0.91701   0.00000  Uiso   1.00
C782   C     0.78788   0.67538   0.34726   0.00000  Uiso   1.00
C783   C     0.76646   0.67835   0.32958   0.00000  Uiso   1.00
C784   C     0.74683   0.69794   0.33387   0.00000  Uiso   1.00
C785   C     0.74943   0.71440   0.35672   0.00000  Uiso   1.00
C786   C     0.77126   0.71150   0.37447   0.00000  Uiso   1.00
C787   C     0.79075   0.69184   0.36971   0.00000  Uiso   1.00
C788   C     0.72406   0.70082   0.31446   0.00000  Uiso   1.00
N143   N     0.72118   0.68313   0.29387   0.00000  Uiso   1.00
C789   C     0.59951   0.83068   0.43822   0.00000  Uiso   1.00
C790   C     0.61221   0.84215   0.41598   0.00000  Uiso   1.00
C791   C     0.61255   0.80898   0.45067   0.00000  Uiso   1.00
O72    O     0.59956   0.86191   0.40130   0.00000  Uiso   1.00
N144   N     0.68731   0.88624   0.31398   0.00000  Uiso   1.00
C792   C     0.67650   0.80155   0.40784   0.00000  Uiso   1.00
H427   H     0.80266   0.66012   0.34336   0.00000  Uiso   1.00
H428   H     0.76536   0.66523   0.31245   0.00000  Uiso   1.00
H429   H     0.73452   0.72946   0.36091   0.00000  Uiso   1.00
H430   H     0.77281   0.72450   0.39165   0.00000  Uiso   1.00
H431   H     0.60343   0.79937   0.46776   0.00000  Uiso   1.00
H432   H     0.68670   0.78485   0.41701   0.00000  Uiso   1.00
C793   C     0.78788   0.82462   0.15274   0.00000  Uiso   1.00
C794   C     0.76646   0.82165   0.17042   0.00000  Uiso   1.00
C795   C     0.74683   0.80206   0.16613   0.00000  Uiso   1.00
C796   C     0.74943   0.78560   0.14328   0.00000  Uiso   1.00
C797   C     0.77126   0.78850   0.12553   0.00000  Uiso   1.00
C798   C     0.79075   0.80816   0.13029   0.00000  Uiso   1.00
C799   C     0.72406   0.79918   0.18554   0.00000  Uiso   1.00
N145   N     0.72118   0.81687   0.20613   0.00000  Uiso   1.00
C800   C     0.59951   0.66932   0.06178   0.00000  Uiso   1.00
C801   C     0.61221   0.65785   0.08402   0.00000  Uiso   1.00
C802   C     0.61255   0.69102   0.04933   0.00000  Uiso   1.00
O73    O     0.59956   0.63809   0.09870   0.00000  Uiso   1.00
N146   N     0.68731   0.61376   0.18602   0.00000  Uiso   1.00
C803   C     0.67650   0.69845   0.09216   0.00000  Uiso   1.00
H433   H     0.80266   0.83988   0.15664   0.00000  Uiso   1.00
H434   H     0.76536   0.83477   0.18755   0.00000  Uiso   1.00
H435   H     0.73452   0.77054   0.13909   0.00000  Uiso   1.00
H436   H     0.77281   0.77550   0.10835   0.00000  Uiso   1.00
H437   H     0.60343   0.70063   0.03224   0.00000  Uiso   1.00
H438   H     0.68670   0.71515   0.08299   0.00000  Uiso   1.00
C804   C     0.78788   0.32462   0.65274   0.00000  Uiso   1.00
C805   C     0.76646   0.32165   0.67042   0.00000  Uiso   1.00
C806   C     0.74683   0.30206   0.66613   0.00000  Uiso   1.00
C807   C     0.74943   0.28560   0.64328   0.00000  Uiso   1.00
C808   C     0.77126   0.28850   0.62553   0.00000  Uiso   1.00
C809   C     0.79075   0.30816   0.63029   0.00000  Uiso   1.00
C810   C     0.72406   0.29918   0.68554   0.00000  Uiso   1.00
N147   N     0.72118   0.31687   0.70613   0.00000  Uiso   1.00
C811   C     0.59951   0.16932   0.56178   0.00000  Uiso   1.00
C812   C     0.61221   0.15785   0.58402   0.00000  Uiso   1.00
C813   C     0.61255   0.19102   0.54933   0.00000  Uiso   1.00
O74    O     0.59956   0.13809   0.59870   0.00000  Uiso   1.00
N148   N     0.68731   0.11376   0.68602   0.00000  Uiso   1.00
C814   C     0.67650   0.19845   0.59216   0.00000  Uiso   1.00
H439   H     0.80266   0.33988   0.65664   0.00000  Uiso   1.00
H440   H     0.76536   0.33477   0.68755   0.00000  Uiso   1.00
H441   H     0.73452   0.27054   0.63909   0.00000  Uiso   1.00
H442   H     0.77281   0.27550   0.60835   0.00000  Uiso   1.00
H443   H     0.60343   0.20063   0.53224   0.00000  Uiso   1.00
H444   H     0.68670   0.21515   0.58299   0.00000  Uiso   1.00
C815   C     0.28788   0.82462   0.65274   0.00000  Uiso   1.00
C816   C     0.26646   0.82165   0.67042   0.00000  Uiso   1.00
C817   C     0.24683   0.80206   0.66613   0.00000  Uiso   1.00
C818   C     0.24943   0.78560   0.64328   0.00000  Uiso   1.00
C819   C     0.27126   0.78850   0.62553   0.00000  Uiso   1.00
C820   C     0.29075   0.80816   0.63029   0.00000  Uiso   1.00
C821   C     0.22406   0.79918   0.68554   0.00000  Uiso   1.00
N149   N     0.22118   0.81687   0.70613   0.00000  Uiso   1.00
C822   C     0.09951   0.66932   0.56178   0.00000  Uiso   1.00
C823   C     0.11221   0.65785   0.58402   0.00000  Uiso   1.00
C824   C     0.11255   0.69102   0.54933   0.00000  Uiso   1.00
O75    O     0.09956   0.63809   0.59870   0.00000  Uiso   1.00
N150   N     0.18731   0.61376   0.68602   0.00000  Uiso   1.00
C825   C     0.17650   0.69845   0.59216   0.00000  Uiso   1.00
H445   H     0.30266   0.83988   0.65664   0.00000  Uiso   1.00
H446   H     0.26536   0.83477   0.68755   0.00000  Uiso   1.00
H447   H     0.23452   0.77054   0.63909   0.00000  Uiso   1.00
H448   H     0.27281   0.77550   0.60835   0.00000  Uiso   1.00
H449   H     0.10343   0.70063   0.53224   0.00000  Uiso   1.00
H450   H     0.18670   0.71515   0.58299   0.00000  Uiso   1.00
C826   C     0.28788   0.32462   0.15274   0.00000  Uiso   1.00
C827   C     0.26646   0.32165   0.17042   0.00000  Uiso   1.00
C828   C     0.24683   0.30206   0.16613   0.00000  Uiso   1.00
C829   C     0.24943   0.28560   0.14328   0.00000  Uiso   1.00
C830   C     0.27126   0.28850   0.12553   0.00000  Uiso   1.00
C831   C     0.29075   0.30816   0.13029   0.00000  Uiso   1.00
C832   C     0.22406   0.29918   0.18554   0.00000  Uiso   1.00
N151   N     0.22118   0.31687   0.20613   0.00000  Uiso   1.00
C833   C     0.09951   0.16932   0.06178   0.00000  Uiso   1.00
C834   C     0.11221   0.15785   0.08402   0.00000  Uiso   1.00
C835   C     0.11255   0.19102   0.04933   0.00000  Uiso   1.00
O76    O     0.09956   0.13809   0.09870   0.00000  Uiso   1.00
N152   N     0.18731   0.11376   0.18602   0.00000  Uiso   1.00
C836   C     0.17650   0.19845   0.09216   0.00000  Uiso   1.00
H451   H     0.30266   0.33988   0.15664   0.00000  Uiso   1.00
H452   H     0.26536   0.33477   0.18755   0.00000  Uiso   1.00
H453   H     0.23452   0.27054   0.13909   0.00000  Uiso   1.00
H454   H     0.27281   0.27550   0.10835   0.00000  Uiso   1.00
H455   H     0.10343   0.20063   0.03224   0.00000  Uiso   1.00
H456   H     0.18670   0.21515   0.08299   0.00000  Uiso   1.00
C837   C     0.71212   0.32462   0.84726   0.00000  Uiso   1.00
C838   C     0.73354   0.32165   0.82958   0.00000  Uiso   1.00
C839   C     0.75317   0.30206   0.83387   0.00000  Uiso   1.00
C840   C     0.75057   0.28560   0.85672   0.00000  Uiso   1.00
C841   C     0.72874   0.28850   0.87447   0.00000  Uiso   1.00
C842   C     0.70925   0.30816   0.86971   0.00000  Uiso   1.00
C843   C     0.77594   0.29918   0.81446   0.00000  Uiso   1.00
N153   N     0.77882   0.31687   0.79387   0.00000  Uiso   1.00
C844   C     0.90049   0.16932   0.93822   0.00000  Uiso   1.00
C845   C     0.88779   0.15785   0.91598   0.00000  Uiso   1.00
C846   C     0.88745   0.19102   0.95067   0.00000  Uiso   1.00
O77    O     0.90044   0.13809   0.90130   0.00000  Uiso   1.00
N154   N     0.81269   0.11376   0.81398   0.00000  Uiso   1.00
C847   C     0.82350   0.19845   0.90784   0.00000  Uiso   1.00
H457   H     0.69734   0.33988   0.84336   0.00000  Uiso   1.00
H458   H     0.73464   0.33477   0.81245   0.00000  Uiso   1.00
H459   H     0.76548   0.27054   0.86091   0.00000  Uiso   1.00
H460   H     0.72719   0.27550   0.89165   0.00000  Uiso   1.00
H461   H     0.89657   0.20063   0.96776   0.00000  Uiso   1.00
H462   H     0.81330   0.21515   0.91701   0.00000  Uiso   1.00
C848   C     0.71212   0.82462   0.34726   0.00000  Uiso   1.00
C849   C     0.73354   0.82165   0.32958   0.00000  Uiso   1.00
C850   C     0.75317   0.80206   0.33387   0.00000  Uiso   1.00
C851   C     0.75057   0.78560   0.35672   0.00000  Uiso   1.00
C852   C     0.72874   0.78850   0.37447   0.00000  Uiso   1.00
C853   C     0.70925   0.80816   0.36971   0.00000  Uiso   1.00
C854   C     0.77594   0.79918   0.31446   0.00000  Uiso   1.00
N155   N     0.77882   0.81687   0.29387   0.00000  Uiso   1.00
C855   C     0.90049   0.66932   0.43822   0.00000  Uiso   1.00
C856   C     0.88779   0.65785   0.41598   0.00000  Uiso   1.00
C857   C     0.88745   0.69102   0.45067   0.00000  Uiso   1.00
O78    O     0.90044   0.63809   0.40130   0.00000  Uiso   1.00
N156   N     0.81269   0.61376   0.31398   0.00000  Uiso   1.00
C858   C     0.82350   0.69845   0.40784   0.00000  Uiso   1.00
H463   H     0.69734   0.83988   0.34336   0.00000  Uiso   1.00
H464   H     0.73464   0.83477   0.31245   0.00000  Uiso   1.00
H465   H     0.76548   0.77054   0.36091   0.00000  Uiso   1.00
H466   H     0.72719   0.77550   0.39165   0.00000  Uiso   1.00
H467   H     0.89657   0.70063   0.46776   0.00000  Uiso   1.00
H468   H     0.81330   0.71515   0.41701   0.00000  Uiso   1.00
C859   C     0.21212   0.32462   0.34726   0.00000  Uiso   1.00
C860   C     0.23354   0.32165   0.32958   0.00000  Uiso   1.00
C861   C     0.25317   0.30206   0.33387   0.00000  Uiso   1.00
C862   C     0.25057   0.28560   0.35672   0.00000  Uiso   1.00
C863   C     0.22874   0.28850   0.37447   0.00000  Uiso   1.00
C864   C     0.20925   0.30816   0.36971   0.00000  Uiso   1.00
C865   C     0.27594   0.29918   0.31446   0.00000  Uiso   1.00
N157   N     0.27882   0.31687   0.29387   0.00000  Uiso   1.00
C866   C     0.40049   0.16932   0.43822   0.00000  Uiso   1.00
C867   C     0.38779   0.15785   0.41598   0.00000  Uiso   1.00
C868   C     0.38745   0.19102   0.45067   0.00000  Uiso   1.00
O79    O     0.40044   0.13809   0.40130   0.00000  Uiso   1.00
N158   N     0.31269   0.11376   0.31398   0.00000  Uiso   1.00
C869   C     0.32350   0.19845   0.40784   0.00000  Uiso   1.00
H469   H     0.19734   0.33988   0.34336   0.00000  Uiso   1.00
H470   H     0.23464   0.33477   0.31245   0.00000  Uiso   1.00
H471   H     0.26548   0.27054   0.36091   0.00000  Uiso   1.00
H472   H     0.22719   0.27550   0.39165   0.00000  Uiso   1.00
H473   H     0.39657   0.20063   0.46776   0.00000  Uiso   1.00
H474   H     0.31330   0.21515   0.41701   0.00000  Uiso   1.00
C870   C     0.21212   0.82462   0.84726   0.00000  Uiso   1.00
C871   C     0.23354   0.82165   0.82958   0.00000  Uiso   1.00
C872   C     0.25317   0.80206   0.83387   0.00000  Uiso   1.00
C873   C     0.25057   0.78560   0.85672   0.00000  Uiso   1.00
C874   C     0.22874   0.78850   0.87447   0.00000  Uiso   1.00
C875   C     0.20925   0.80816   0.86971   0.00000  Uiso   1.00
C876   C     0.27594   0.79918   0.81446   0.00000  Uiso   1.00
N159   N     0.27882   0.81687   0.79387   0.00000  Uiso   1.00
C877   C     0.40049   0.66932   0.93822   0.00000  Uiso   1.00
C878   C     0.38779   0.65785   0.91598   0.00000  Uiso   1.00
C879   C     0.38745   0.69102   0.95067   0.00000  Uiso   1.00
O80    O     0.40044   0.63809   0.90130   0.00000  Uiso   1.00
N160   N     0.31269   0.61376   0.81398   0.00000  Uiso   1.00
C880   C     0.32350   0.69845   0.90784   0.00000  Uiso   1.00
H475   H     0.19734   0.83988   0.84336   0.00000  Uiso   1.00
H476   H     0.23464   0.83477   0.81245   0.00000  Uiso   1.00
H477   H     0.26548   0.77054   0.86091   0.00000  Uiso   1.00
H478   H     0.22719   0.77550   0.89165   0.00000  Uiso   1.00
H479   H     0.39657   0.70063   0.96776   0.00000  Uiso   1.00
H480   H     0.31330   0.71515   0.91701   0.00000  Uiso   1.00
C881   C     0.17538   0.34726   0.28788   0.00000  Uiso   1.00
C882   C     0.17835   0.32958   0.26646   0.00000  Uiso   1.00
C883   C     0.19794   0.33387   0.24683   0.00000  Uiso   1.00
C884   C     0.21440   0.35672   0.24943   0.00000  Uiso   1.00
C885   C     0.21150   0.37447   0.27126   0.00000  Uiso   1.00
C886   C     0.19184   0.36971   0.29075   0.00000  Uiso   1.00
C887   C     0.20082   0.31446   0.22406   0.00000  Uiso   1.00
N161   N     0.18313   0.29387   0.22118   0.00000  Uiso   1.00
C888   C     0.33068   0.43822   0.09951   0.00000  Uiso   1.00
C889   C     0.34215   0.41598   0.11221   0.00000  Uiso   1.00
C890   C     0.30898   0.45067   0.11255   0.00000  Uiso   1.00
O81    O     0.36191   0.40130   0.09956   0.00000  Uiso   1.00
N162   N     0.38624   0.31398   0.18731   0.00000  Uiso   1.00
C891   C     0.30155   0.40784   0.17650   0.00000  Uiso   1.00
H481   H     0.16012   0.34336   0.30266   0.00000  Uiso   1.00
H482   H     0.16523   0.31245   0.26536   0.00000  Uiso   1.00
H483   H     0.22946   0.36091   0.23452   0.00000  Uiso   1.00
H484   H     0.22450   0.39165   0.27281   0.00000  Uiso   1.00
H485   H     0.29937   0.46776   0.10343   0.00000  Uiso   1.00
H486   H     0.28485   0.41701   0.18670   0.00000  Uiso   1.00
C892   C     0.17538   0.84726   0.78788   0.00000  Uiso   1.00
C893   C     0.17835   0.82958   0.76646   0.00000  Uiso   1.00
C894   C     0.19794   0.83387   0.74683   0.00000  Uiso   1.00
C895   C     0.21440   0.85672   0.74943   0.00000  Uiso   1.00
C896   C     0.21150   0.87447   0.77126   0.00000  Uiso   1.00
C897   C     0.19184   0.86971   0.79075   0.00000  Uiso   1.00
C898   C     0.20082   0.81446   0.72406   0.00000  Uiso   1.00
N163   N     0.18313   0.79387   0.72118   0.00000  Uiso   1.00
C899   C     0.33068   0.93822   0.59951   0.00000  Uiso   1.00
C900   C     0.34215   0.91598   0.61221   0.00000  Uiso   1.00
C901   C     0.30898   0.95067   0.61255   0.00000  Uiso   1.00
O82    O     0.36191   0.90130   0.59956   0.00000  Uiso   1.00
N164   N     0.38624   0.81398   0.68731   0.00000  Uiso   1.00
C902   C     0.30155   0.90784   0.67650   0.00000  Uiso   1.00
H487   H     0.16012   0.84336   0.80266   0.00000  Uiso   1.00
H488   H     0.16523   0.81245   0.76536   0.00000  Uiso   1.00
H489   H     0.22946   0.86091   0.73452   0.00000  Uiso   1.00
H490   H     0.22450   0.89165   0.77281   0.00000  Uiso   1.00
H491   H     0.29937   0.96776   0.60343   0.00000  Uiso   1.00
H492   H     0.28485   0.91701   0.68670   0.00000  Uiso   1.00
C903   C     0.67538   0.34726   0.78788   0.00000  Uiso   1.00
C904   C     0.67835   0.32958   0.76646   0.00000  Uiso   1.00
C905   C     0.69794   0.33387   0.74683   0.00000  Uiso   1.00
C906   C     0.71440   0.35672   0.74943   0.00000  Uiso   1.00
C907   C     0.71150   0.37447   0.77126   0.00000  Uiso   1.00
C908   C     0.69184   0.36971   0.79075   0.00000  Uiso   1.00
C909   C     0.70082   0.31446   0.72406   0.00000  Uiso   1.00
N165   N     0.68313   0.29387   0.72118   0.00000  Uiso   1.00
C910   C     0.83068   0.43822   0.59951   0.00000  Uiso   1.00
C911   C     0.84215   0.41598   0.61221   0.00000  Uiso   1.00
C912   C     0.80898   0.45067   0.61255   0.00000  Uiso   1.00
O83    O     0.86191   0.40130   0.59956   0.00000  Uiso   1.00
N166   N     0.88624   0.31398   0.68731   0.00000  Uiso   1.00
C913   C     0.80155   0.40784   0.67650   0.00000  Uiso   1.00
H493   H     0.66012   0.34336   0.80266   0.00000  Uiso   1.00
H494   H     0.66523   0.31245   0.76536   0.00000  Uiso   1.00
H495   H     0.72946   0.36091   0.73452   0.00000  Uiso   1.00
H496   H     0.72450   0.39165   0.77281   0.00000  Uiso   1.00
H497   H     0.79937   0.46776   0.60343   0.00000  Uiso   1.00
H498   H     0.78485   0.41701   0.68670   0.00000  Uiso   1.00
C914   C     0.67538   0.84726   0.28788   0.00000  Uiso   1.00
C915   C     0.67835   0.82958   0.26646   0.00000  Uiso   1.00
C916   C     0.69794   0.83387   0.24683   0.00000  Uiso   1.00
C917   C     0.71440   0.85672   0.24943   0.00000  Uiso   1.00
C918   C     0.71150   0.87447   0.27126   0.00000  Uiso   1.00
C919   C     0.69184   0.86971   0.29075   0.00000  Uiso   1.00
C920   C     0.70082   0.81446   0.22406   0.00000  Uiso   1.00
N167   N     0.68313   0.79387   0.22118   0.00000  Uiso   1.00
C921   C     0.83068   0.93822   0.09951   0.00000  Uiso   1.00
C922   C     0.84215   0.91598   0.11221   0.00000  Uiso   1.00
C923   C     0.80898   0.95067   0.11255   0.00000  Uiso   1.00
O84    O     0.86191   0.90130   0.09956   0.00000  Uiso   1.00
N168   N     0.88624   0.81398   0.18731   0.00000  Uiso   1.00
C924   C     0.80155   0.90784   0.17650   0.00000  Uiso   1.00
H499   H     0.66012   0.84336   0.30266   0.00000  Uiso   1.00
H500   H     0.66523   0.81245   0.26536   0.00000  Uiso   1.00
H501   H     0.72946   0.86091   0.23452   0.00000  Uiso   1.00
H502   H     0.72450   0.89165   0.27281   0.00000  Uiso   1.00
H503   H     0.79937   0.96776   0.10343   0.00000  Uiso   1.00
H504   H     0.78485   0.91701   0.18670   0.00000  Uiso   1.00
C925   C     0.67538   0.65274   0.21212   0.00000  Uiso   1.00
C926   C     0.67835   0.67042   0.23354   0.00000  Uiso   1.00
C927   C     0.69794   0.66613   0.25317   0.00000  Uiso   1.00
C928   C     0.71440   0.64328   0.25057   0.00000  Uiso   1.00
C929   C     0.71150   0.62553   0.22874   0.00000  Uiso   1.00
C930   C     0.69184   0.63029   0.20925   0.00000  Uiso   1.00
C931   C     0.70082   0.68554   0.27594   0.00000  Uiso   1.00
N169   N     0.68313   0.70613   0.27882   0.00000  Uiso   1.00
C932   C     0.83068   0.56178   0.40049   0.00000  Uiso   1.00
C933   C     0.84215   0.58402   0.38779   0.00000  Uiso   1.00
C934   C     0.80898   0.54933   0.38745   0.00000  Uiso   1.00
O85    O     0.86191   0.59870   0.40044   0.00000  Uiso   1.00
N170   N     0.88624   0.68602   0.31269   0.00000  Uiso   1.00
C935   C     0.80155   0.59216   0.32350   0.00000  Uiso   1.00
H505   H     0.66012   0.65664   0.19734   0.00000  Uiso   1.00
H506   H     0.66523   0.68755   0.23464   0.00000  Uiso   1.00
H507   H     0.72946   0.63909   0.26548   0.00000  Uiso   1.00
H508   H     0.72450   0.60835   0.22719   0.00000  Uiso   1.00
H509   H     0.79937   0.53224   0.39657   0.00000  Uiso   1.00
H510   H     0.78485   0.58299   0.31330   0.00000  Uiso   1.00
C936   C     0.67538   0.15274   0.71212   0.00000  Uiso   1.00
C937   C     0.67835   0.17042   0.73354   0.00000  Uiso   1.00
C938   C     0.69794   0.16613   0.75317   0.00000  Uiso   1.00
C939   C     0.71440   0.14328   0.75057   0.00000  Uiso   1.00
C940   C     0.71150   0.12553   0.72874   0.00000  Uiso   1.00
C941   C     0.69184   0.13029   0.70925   0.00000  Uiso   1.00
C942   C     0.70082   0.18554   0.77594   0.00000  Uiso   1.00
N171   N     0.68313   0.20613   0.77882   0.00000  Uiso   1.00
C943   C     0.83068   0.06178   0.90049   0.00000  Uiso   1.00
C944   C     0.84215   0.08402   0.88779   0.00000  Uiso   1.00
C945   C     0.80898   0.04933   0.88745   0.00000  Uiso   1.00
O86    O     0.86191   0.09870   0.90044   0.00000  Uiso   1.00
N172   N     0.88624   0.18602   0.81269   0.00000  Uiso   1.00
C946   C     0.80155   0.09216   0.82350   0.00000  Uiso   1.00
H511   H     0.66012   0.15664   0.69734   0.00000  Uiso   1.00
H512   H     0.66523   0.18755   0.73464   0.00000  Uiso   1.00
H513   H     0.72946   0.13909   0.76548   0.00000  Uiso   1.00
H514   H     0.72450   0.10835   0.72719   0.00000  Uiso   1.00
H515   H     0.79937   0.03224   0.89657   0.00000  Uiso   1.00
H516   H     0.78485   0.08299   0.81330   0.00000  Uiso   1.00
C947   C     0.17538   0.65274   0.71212   0.00000  Uiso   1.00
C948   C     0.17835   0.67042   0.73354   0.00000  Uiso   1.00
C949   C     0.19794   0.66613   0.75317   0.00000  Uiso   1.00
C950   C     0.21440   0.64328   0.75057   0.00000  Uiso   1.00
C951   C     0.21150   0.62553   0.72874   0.00000  Uiso   1.00
C952   C     0.19184   0.63029   0.70925   0.00000  Uiso   1.00
C953   C     0.20082   0.68554   0.77594   0.00000  Uiso   1.00
N173   N     0.18313   0.70613   0.77882   0.00000  Uiso   1.00
C954   C     0.33068   0.56178   0.90049   0.00000  Uiso   1.00
C955   C     0.34215   0.58402   0.88779   0.00000  Uiso   1.00
C956   C     0.30898   0.54933   0.88745   0.00000  Uiso   1.00
O87    O     0.36191   0.59870   0.90044   0.00000  Uiso   1.00
N174   N     0.38624   0.68602   0.81269   0.00000  Uiso   1.00
C957   C     0.30155   0.59216   0.82350   0.00000  Uiso   1.00
H517   H     0.16012   0.65664   0.69734   0.00000  Uiso   1.00
H518   H     0.16523   0.68755   0.73464   0.00000  Uiso   1.00
H519   H     0.22946   0.63909   0.76548   0.00000  Uiso   1.00
H520   H     0.22450   0.60835   0.72719   0.00000  Uiso   1.00
H521   H     0.29937   0.53224   0.89657   0.00000  Uiso   1.00
H522   H     0.28485   0.58299   0.81330   0.00000  Uiso   1.00
C958   C     0.17538   0.15274   0.21212   0.00000  Uiso   1.00
C959   C     0.17835   0.17042   0.23354   0.00000  Uiso   1.00
C960   C     0.19794   0.16613   0.25317   0.00000  Uiso   1.00
C961   C     0.21440   0.14328   0.25057   0.00000  Uiso   1.00
C962   C     0.21150   0.12553   0.22874   0.00000  Uiso   1.00
C963   C     0.19184   0.13029   0.20925   0.00000  Uiso   1.00
C964   C     0.20082   0.18554   0.27594   0.00000  Uiso   1.00
N175   N     0.18313   0.20613   0.27882   0.00000  Uiso   1.00
C965   C     0.33068   0.06178   0.40049   0.00000  Uiso   1.00
C966   C     0.34215   0.08402   0.38779   0.00000  Uiso   1.00
C967   C     0.30898   0.04933   0.38745   0.00000  Uiso   1.00
O88    O     0.36191   0.09870   0.40044   0.00000  Uiso   1.00
N176   N     0.38624   0.18602   0.31269   0.00000  Uiso   1.00
C968   C     0.30155   0.09216   0.32350   0.00000  Uiso   1.00
H523   H     0.16012   0.15664   0.19734   0.00000  Uiso   1.00
H524   H     0.16523   0.18755   0.23464   0.00000  Uiso   1.00
H525   H     0.22946   0.13909   0.26548   0.00000  Uiso   1.00
H526   H     0.22450   0.10835   0.22719   0.00000  Uiso   1.00
H527   H     0.29937   0.03224   0.39657   0.00000  Uiso   1.00
H528   H     0.28485   0.08299   0.31330   0.00000  Uiso   1.00
C969   C     0.32462   0.84726   0.71212   0.00000  Uiso   1.00
C970   C     0.32165   0.82958   0.73354   0.00000  Uiso   1.00
C971   C     0.30206   0.83387   0.75317   0.00000  Uiso   1.00
C972   C     0.28560   0.85672   0.75057   0.00000  Uiso   1.00
C973   C     0.28850   0.87447   0.72874   0.00000  Uiso   1.00
C974   C     0.30816   0.86971   0.70925   0.00000  Uiso   1.00
C975   C     0.29918   0.81446   0.77594   0.00000  Uiso   1.00
N177   N     0.31687   0.79387   0.77882   0.00000  Uiso   1.00
C976   C     0.16932   0.93822   0.90049   0.00000  Uiso   1.00
C977   C     0.15785   0.91598   0.88779   0.00000  Uiso   1.00
C978   C     0.19102   0.95067   0.88745   0.00000  Uiso   1.00
O89    O     0.13809   0.90130   0.90044   0.00000  Uiso   1.00
N178   N     0.11376   0.81398   0.81269   0.00000  Uiso   1.00
C979   C     0.19845   0.90784   0.82350   0.00000  Uiso   1.00
H529   H     0.33988   0.84336   0.69734   0.00000  Uiso   1.00
H530   H     0.33477   0.81245   0.73464   0.00000  Uiso   1.00
H531   H     0.27054   0.86091   0.76548   0.00000  Uiso   1.00
H532   H     0.27550   0.89165   0.72719   0.00000  Uiso   1.00
H533   H     0.20063   0.96776   0.89657   0.00000  Uiso   1.00
H534   H     0.21515   0.91701   0.81330   0.00000  Uiso   1.00
C980   C     0.32462   0.34726   0.21212   0.00000  Uiso   1.00
C981   C     0.32165   0.32958   0.23354   0.00000  Uiso   1.00
C982   C     0.30206   0.33387   0.25317   0.00000  Uiso   1.00
C983   C     0.28560   0.35672   0.25057   0.00000  Uiso   1.00
C984   C     0.28850   0.37447   0.22874   0.00000  Uiso   1.00
C985   C     0.30816   0.36971   0.20925   0.00000  Uiso   1.00
C986   C     0.29918   0.31446   0.27594   0.00000  Uiso   1.00
N179   N     0.31687   0.29387   0.27882   0.00000  Uiso   1.00
C987   C     0.16932   0.43822   0.40049   0.00000  Uiso   1.00
C988   C     0.15785   0.41598   0.38779   0.00000  Uiso   1.00
C989   C     0.19102   0.45067   0.38745   0.00000  Uiso   1.00
O90    O     0.13809   0.40130   0.40044   0.00000  Uiso   1.00
N180   N     0.11376   0.31398   0.31269   0.00000  Uiso   1.00
C990   C     0.19845   0.40784   0.32350   0.00000  Uiso   1.00
H535   H     0.33988   0.34336   0.19734   0.00000  Uiso   1.00
H536   H     0.33477   0.31245   0.23464   0.00000  Uiso   1.00
H537   H     0.27054   0.36091   0.26548   0.00000  Uiso   1.00
H538   H     0.27550   0.39165   0.22719   0.00000  Uiso   1.00
H539   H     0.20063   0.46776   0.39657   0.00000  Uiso   1.00
H540   H     0.21515   0.41701   0.31330   0.00000  Uiso   1.00
C991   C     0.82462   0.84726   0.21212   0.00000  Uiso   1.00
C992   C     0.82165   0.82958   0.23354   0.00000  Uiso   1.00
C993   C     0.80206   0.83387   0.25317   0.00000  Uiso   1.00
C994   C     0.78560   0.85672   0.25057   0.00000  Uiso   1.00
C995   C     0.78850   0.87447   0.22874   0.00000  Uiso   1.00
C996   C     0.80816   0.86971   0.20925   0.00000  Uiso   1.00
C997   C     0.79918   0.81446   0.27594   0.00000  Uiso   1.00
N181   N     0.81687   0.79387   0.27882   0.00000  Uiso   1.00
C998   C     0.66932   0.93822   0.40049   0.00000  Uiso   1.00
C999   C     0.65785   0.91598   0.38779   0.00000  Uiso   1.00
C1000  C     0.69102   0.95067   0.38745   0.00000  Uiso   1.00
O91    O     0.63809   0.90130   0.40044   0.00000  Uiso   1.00
N182   N     0.61376   0.81398   0.31269   0.00000  Uiso   1.00
C1001  C     0.69845   0.90784   0.32350   0.00000  Uiso   1.00
H541   H     0.83988   0.84336   0.19734   0.00000  Uiso   1.00
H542   H     0.83477   0.81245   0.23464   0.00000  Uiso   1.00
H543   H     0.77054   0.86091   0.26548   0.00000  Uiso   1.00
H544   H     0.77550   0.89165   0.22719   0.00000  Uiso   1.00
H545   H     0.70063   0.96776   0.39657   0.00000  Uiso   1.00
H546   H     0.71515   0.91701   0.31330   0.00000  Uiso   1.00
C1002  C     0.82462   0.34726   0.71212   0.00000  Uiso   1.00
C1003  C     0.82165   0.32958   0.73354   0.00000  Uiso   1.00
C1004  C     0.80206   0.33387   0.75317   0.00000  Uiso   1.00
C1005  C     0.78560   0.35672   0.75057   0.00000  Uiso   1.00
C1006  C     0.78850   0.37447   0.72874   0.00000  Uiso   1.00
C1007  C     0.80816   0.36971   0.70925   0.00000  Uiso   1.00
C1008  C     0.79918   0.31446   0.77594   0.00000  Uiso   1.00
N183   N     0.81687   0.29387   0.77882   0.00000  Uiso   1.00
C1009  C     0.66932   0.43822   0.90049   0.00000  Uiso   1.00
C1010  C     0.65785   0.41598   0.88779   0.00000  Uiso   1.00
C1011  C     0.69102   0.45067   0.88745   0.00000  Uiso   1.00
O92    O     0.63809   0.40130   0.90044   0.00000  Uiso   1.00
N184   N     0.61376   0.31398   0.81269   0.00000  Uiso   1.00
C1012  C     0.69845   0.40784   0.82350   0.00000  Uiso   1.00
H547   H     0.83988   0.34336   0.69734   0.00000  Uiso   1.00
H548   H     0.83477   0.31245   0.73464   0.00000  Uiso   1.00
H549   H     0.77054   0.36091   0.76548   0.00000  Uiso   1.00
H550   H     0.77550   0.39165   0.72719   0.00000  Uiso   1.00
H551   H     0.70063   0.46776   0.89657   0.00000  Uiso   1.00
H552   H     0.71515   0.41701   0.81330   0.00000  Uiso   1.00
C1013  C     0.82462   0.15274   0.78788   0.00000  Uiso   1.00
C1014  C     0.82165   0.17042   0.76646   0.00000  Uiso   1.00
C1015  C     0.80206   0.16613   0.74683   0.00000  Uiso   1.00
C1016  C     0.78560   0.14328   0.74943   0.00000  Uiso   1.00
C1017  C     0.78850   0.12553   0.77126   0.00000  Uiso   1.00
C1018  C     0.80816   0.13029   0.79075   0.00000  Uiso   1.00
C1019  C     0.79918   0.18554   0.72406   0.00000  Uiso   1.00
N185   N     0.81687   0.20613   0.72118   0.00000  Uiso   1.00
C1020  C     0.66932   0.06178   0.59951   0.00000  Uiso   1.00
C1021  C     0.65785   0.08402   0.61221   0.00000  Uiso   1.00
C1022  C     0.69102   0.04933   0.61255   0.00000  Uiso   1.00
O93    O     0.63809   0.09870   0.59956   0.00000  Uiso   1.00
N186   N     0.61376   0.18602   0.68731   0.00000  Uiso   1.00
C1023  C     0.69845   0.09216   0.67650   0.00000  Uiso   1.00
H553   H     0.83988   0.15664   0.80266   0.00000  Uiso   1.00
H554   H     0.83477   0.18755   0.76536   0.00000  Uiso   1.00
H555   H     0.77054   0.13909   0.73452   0.00000  Uiso   1.00
H556   H     0.77550   0.10835   0.77281   0.00000  Uiso   1.00
H557   H     0.70063   0.03224   0.60343   0.00000  Uiso   1.00
H558   H     0.71515   0.08299   0.68670   0.00000  Uiso   1.00
C1024  C     0.82462   0.65274   0.28788   0.00000  Uiso   1.00
C1025  C     0.82165   0.67042   0.26646   0.00000  Uiso   1.00
C1026  C     0.80206   0.66613   0.24683   0.00000  Uiso   1.00
C1027  C     0.78560   0.64328   0.24943   0.00000  Uiso   1.00
C1028  C     0.78850   0.62553   0.27126   0.00000  Uiso   1.00
C1029  C     0.80816   0.63029   0.29075   0.00000  Uiso   1.00
C1030  C     0.79918   0.68554   0.22406   0.00000  Uiso   1.00
N187   N     0.81687   0.70613   0.22118   0.00000  Uiso   1.00
C1031  C     0.66932   0.56178   0.09951   0.00000  Uiso   1.00
C1032  C     0.65785   0.58402   0.11221   0.00000  Uiso   1.00
C1033  C     0.69102   0.54933   0.11255   0.00000  Uiso   1.00
O94    O     0.63809   0.59870   0.09956   0.00000  Uiso   1.00
N188   N     0.61376   0.68602   0.18731   0.00000  Uiso   1.00
C1034  C     0.69845   0.59216   0.17650   0.00000  Uiso   1.00
H559   H     0.83988   0.65664   0.30266   0.00000  Uiso   1.00
H560   H     0.83477   0.68755   0.26536   0.00000  Uiso   1.00
H561   H     0.77054   0.63909   0.23452   0.00000  Uiso   1.00
H562   H     0.77550   0.60835   0.27281   0.00000  Uiso   1.00
H563   H     0.70063   0.53224   0.10343   0.00000  Uiso   1.00
H564   H     0.71515   0.58299   0.18670   0.00000  Uiso   1.00
C1035  C     0.32462   0.15274   0.28788   0.00000  Uiso   1.00
C1036  C     0.32165   0.17042   0.26646   0.00000  Uiso   1.00
C1037  C     0.30206   0.16613   0.24683   0.00000  Uiso   1.00
C1038  C     0.28560   0.14328   0.24943   0.00000  Uiso   1.00
C1039  C     0.28850   0.12553   0.27126   0.00000  Uiso   1.00
C1040  C     0.30816   0.13029   0.29075   0.00000  Uiso   1.00
C1041  C     0.29918   0.18554   0.22406   0.00000  Uiso   1.00
N189   N     0.31687   0.20613   0.22118   0.00000  Uiso   1.00
C1042  C     0.16932   0.06178   0.09951   0.00000  Uiso   1.00
C1043  C     0.15785   0.08402   0.11221   0.00000  Uiso   1.00
C1044  C     0.19102   0.04933   0.11255   0.00000  Uiso   1.00
O95    O     0.13809   0.09870   0.09956   0.00000  Uiso   1.00
N190   N     0.11376   0.18602   0.18731   0.00000  Uiso   1.00
C1045  C     0.19845   0.09216   0.17650   0.00000  Uiso   1.00
H565   H     0.33988   0.15664   0.30266   0.00000  Uiso   1.00
H566   H     0.33477   0.18755   0.26536   0.00000  Uiso   1.00
H567   H     0.27054   0.13909   0.23452   0.00000  Uiso   1.00
H568   H     0.27550   0.10835   0.27281   0.00000  Uiso   1.00
H569   H     0.20063   0.03224   0.10343   0.00000  Uiso   1.00
H570   H     0.21515   0.08299   0.18670   0.00000  Uiso   1.00
C1046  C     0.32462   0.65274   0.78788   0.00000  Uiso   1.00
C1047  C     0.32165   0.67042   0.76646   0.00000  Uiso   1.00
C1048  C     0.30206   0.66613   0.74683   0.00000  Uiso   1.00
C1049  C     0.28560   0.64328   0.74943   0.00000  Uiso   1.00
C1050  C     0.28850   0.62553   0.77126   0.00000  Uiso   1.00
C1051  C     0.30816   0.63029   0.79075   0.00000  Uiso   1.00
C1052  C     0.29918   0.68554   0.72406   0.00000  Uiso   1.00
N191   N     0.31687   0.70613   0.72118   0.00000  Uiso   1.00
C1053  C     0.16932   0.56178   0.59951   0.00000  Uiso   1.00
C1054  C     0.15785   0.58402   0.61221   0.00000  Uiso   1.00
C1055  C     0.19102   0.54933   0.61255   0.00000  Uiso   1.00
O96    O     0.13809   0.59870   0.59956   0.00000  Uiso   1.00
N192   N     0.11376   0.68602   0.68731   0.00000  Uiso   1.00
C1056  C     0.19845   0.59216   0.67650   0.00000  Uiso   1.00
H571   H     0.33988   0.65664   0.80266   0.00000  Uiso   1.00
H572   H     0.33477   0.68755   0.76536   0.00000  Uiso   1.00
H573   H     0.27054   0.63909   0.73452   0.00000  Uiso   1.00
H574   H     0.27550   0.60835   0.77281   0.00000  Uiso   1.00
H575   H     0.20063   0.53224   0.60343   0.00000  Uiso   1.00
H576   H     0.21515   0.58299   0.68670   0.00000  Uiso   1.00
Ti1    Ti    0.62500   0.12500   0.62500   0.00000  Uiso   1.00
Ti2    Ti    0.37500   0.37500   0.12500   0.00000  Uiso   1.00
Ti3    Ti    0.87500   0.37500   0.62500   0.00000  Uiso   1.00
Ti4    Ti    0.87500   0.62500   0.37500   0.00000  Uiso   1.00
Ti5    Ti    0.87500   0.12500   0.87500   0.00000  Uiso   1.00
Ti6    Ti    0.37500   0.12500   0.37500   0.00000  Uiso   1.00
Ti7    Ti    0.12500   0.87500   0.87500   0.00000  Uiso   1.00
Ti8    Ti    0.62500   0.62500   0.12500   0.00000  Uiso   1.00
Ti9    Ti    0.12500   0.37500   0.37500   0.00000  Uiso   1.00
Ti10   Ti    0.37500   0.87500   0.62500   0.00000  Uiso   1.00
Ti11   Ti    0.87500   0.87500   0.12500   0.00000  Uiso   1.00
Ti12   Ti    0.37500   0.62500   0.87500   0.00000  Uiso   1.00
Ti13   Ti    0.12500   0.62500   0.62500   0.00000  Uiso   1.00
Ti14   Ti    0.12500   0.12500   0.12500   0.00000  Uiso   1.00
Ti15   Ti    0.62500   0.37500   0.87500   0.00000  Uiso   1.00
Ti16   Ti    0.62500   0.87500   0.37500   0.00000  Uiso   1.00
loop_
_geom_bond_atom_site_label_1
_geom_bond_atom_site_label_2
_geom_bond_distance
_geom_bond_site_symmetry_2
_ccdc_geom_bond_type
C1     H1      1.082   .     S
C1     C2      1.400   .     D
C1     C6      1.402   .     S
C2     C3      1.406   .     S
C2     H2      1.083   .     S
C3     C7      1.506   .     S
C3     C4      1.417   .     D
C4     H3      1.083   .     S
C4     C5      1.417   .     S
C5     C6      1.408   .     D
C5     H4      1.082   .     S
C6     N74     1.447   .     S
C7     N1      1.368   .     S
C7     N83     1.365   .     D
N1     C337    1.365   .     D
C8     C814    1.514   .     S
C8     C9      1.406   .     S
C8     C10     1.414   .     D
C9     O1      1.387   .     D
C9     C812    1.405   .     S
C10    H5      1.084   .     S
C10    C813    1.423   .     S
O1     Ti1     1.947   .     S
N2     C198    1.308   .     D
N2     C270    1.447   .     S
C11    H6      1.083   .     S
C11    N72     1.308   .     D
C11    C811    1.514   .     S
C12    C17     1.402   .     D
C12    C13     1.400   .     S
C12    H7      1.082   .     S
C13    C14     1.406   .     D
C13    H8      1.083   .     S
C14    C15     1.417   .     S
C14    C18     1.506   .     S
C15    C16     1.417   .     D
C15    H9      1.083   .     S
C16    C17     1.408   .     S
C16    H10     1.082   .     S
C17    N76     1.447   .     S
C18    N3      1.368   .     S
C18    N81     1.365   .     D
N3     C348    1.365   .     D
C19    C20     1.406   .     S
C19    C21     1.414   .     D
C19    C803    1.514   .     S
C20    O2      1.387   .     D
C20    C801    1.405   .     S
C21    H11     1.084   .     S
C21    C802    1.423   .     S
O2     Ti8     1.947   .     S
N4     C187    1.308   .     D
N4     C281    1.447   .     S
C22    H12     1.083   .     S
C22    N70     1.308   .     D
C22    C800    1.514   .     S
C23    C24     1.400   .     S
C23    C28     1.402   .     D
C23    H13     1.082   .     S
C24    H14     1.083   .     S
C24    C25     1.406   1_655 D
C25    C26     1.417   .     S
C25    C29     1.506   .     S
C25    C24     1.406   1_455 D
C26    H15     1.083   .     S
C26    C27     1.417   1_455 D
C27    C28     1.408   .     S
C27    H16     1.082   .     S
C27    C26     1.417   1_655 D
C28    N78     1.447   .     S
C29    N87     1.365   .     S
C29    N5      1.368   .     D
N5     C315    1.365   .     S
C30    C32     1.414   .     D
C30    C836    1.514   .     S
C30    C31     1.406   .     S
C31    O3      1.387   .     D
C31    C834    1.405   .     S
C32    H17     1.084   .     S
C32    C835    1.423   .     S
O3     Ti14    1.947   .     S
N6     C220    1.308   .     D
N6     C292    1.447   .     S
C33    H18     1.083   .     S
C33    N68     1.308   .     D
C33    C833    1.514   .     S
C34    C39     1.402   .     S
C34    H19     1.082   .     S
C34    C35     1.400   .     D
C35    H20     1.083   .     S
C35    C36     1.406   1_655 S
C36    C40     1.506   .     S
C36    C37     1.417   .     D
C36    C35     1.406   1_455 S
C37    H21     1.083   .     S
C37    C38     1.417   1_455 S
C38    C39     1.408   .     D
C38    H22     1.082   .     S
C38    C37     1.417   1_655 S
C39    N80     1.447   .     S
C40    N7      1.368   .     D
C40    N85     1.365   .     S
N7     C326    1.365   .     S
C41    C42     1.406   .     S
C41    C825    1.514   .     S
C41    C43     1.414   .     D
C42    O4      1.387   .     D
C42    C823    1.405   .     S
C43    H23     1.084   .     S
C43    C824    1.423   .     S
O4     Ti13    1.947   .     S
N8     C209    1.308   .     D
N8     C303    1.447   .     S
C44    H24     1.083   .     S
C44    N66     1.308   .     D
C44    C822    1.514   .     S
C45    C50     1.402   .     D
C45    C46     1.400   .     S
C45    H25     1.082   .     S
C46    C47     1.406   .     D
C46    H26     1.083   .     S
C47    C51     1.506   .     S
C47    C48     1.417   .     S
C48    H27     1.083   .     S
C48    C49     1.417   .     D
C49    C50     1.408   .     S
C49    H28     1.082   .     S
C50    N82     1.447   .     S
C51    N9      1.368   .     S
C51    N75     1.365   .     D
N9     C249    1.365   .     D
C52    C53     1.406   .     S
C52    C54     1.414   .     D
C52    C726    1.514   .     S
C53    C724    1.405   .     S
C53    O5      1.387   .     D
C54    C725    1.423   .     S
C54    H29     1.084   .     S
O5     Ti2     1.947   .     S
N10    C182    1.447   .     S
N10    C286    1.308   .     D
C55    H30     1.083   .     S
C55    N96     1.308   .     D
C55    C723    1.514   .     S
C56    C61     1.402   .     S
C56    H31     1.082   .     S
C56    C57     1.400   .     D
C57    C58     1.406   .     S
C57    H32     1.083   .     S
C58    C62     1.506   .     S
C58    C59     1.417   .     D
C59    H33     1.083   .     S
C59    C60     1.417   .     S
C60    C61     1.408   .     D
C60    H34     1.082   .     S
C61    N84     1.447   .     S
C62    N11     1.368   .     D
C62    N73     1.365   .     S
N11    C260    1.365   .     S
C63    C64     1.406   .     S
C63    C715    1.514   .     S
C63    C65     1.414   .     D
C64    O6      1.387   .     D
C64    C713    1.405   .     S
C65    H35     1.084   .     S
C65    C714    1.423   .     S
O6     Ti10    1.947   .     S
N12    C275    1.308   .     D
N12    C193    1.447   .     S
C66    H36     1.083   .     S
C66    N94     1.308   .     D
C66    C712    1.514   .     S
C67    C72     1.402   .     S
C67    C68     1.400   .     D
C67    H37     1.082   .     S
C68    H38     1.083   .     S
C68    C69     1.406   1_455 S
C69    C73     1.506   .     S
C69    C70     1.417   .     D
C69    C68     1.406   1_655 S
C70    H39     1.083   .     S
C70    C71     1.417   1_655 S
C71    C72     1.408   .     D
C71    H40     1.082   .     S
C71    C70     1.417   1_455 S
C72    N86     1.447   .     S
C73    N13     1.368   .     S
C73    N79     1.365   .     D
N13    C227    1.365   .     D
C74    C75     1.406   .     S
C74    C748    1.514   .     S
C74    C76     1.414   .     D
C75    C746    1.405   .     S
C75    O7      1.387   .     D
C76    C747    1.423   .     S
C76    H41     1.084   .     S
O7     Ti3     1.947   .     S
N14    C308    1.308   .     D
N14    C204    1.447   .     S
C77    H42     1.083   .     S
C77    C745    1.514   .     S
C77    N92     1.308   .     D
C78    C79     1.400   .     S
C78    C83     1.402   .     D
C78    H43     1.082   .     S
C79    H44     1.083   .     S
C79    C80     1.406   1_455 D
C80    C81     1.417   .     S
C80    C84     1.506   .     S
C80    C79     1.406   1_655 D
C81    H45     1.083   .     S
C81    C82     1.417   1_655 D
C82    C83     1.408   .     S
C82    H46     1.082   .     S
C82    C81     1.417   1_455 D
C83    N88     1.447   .     S
C84    N15     1.368   .     D
C84    N77     1.365   .     S
N15    C238    1.365   .     S
C85    C86     1.406   .     S
C85    C87     1.414   .     D
C85    C737    1.514   .     S
C86    O8      1.387   .     D
C86    C735    1.405   .     S
C87    H47     1.084   .     S
C87    C736    1.423   .     S
O8     Ti11    1.947   .     S
N16    C215    1.447   .     S
N16    C297    1.308   .     D
C88    H48     1.083   .     S
C88    N90     1.308   .     D
C88    C734    1.514   .     S
C89    C90     1.400   .     S
C89    C94     1.402   .     D
C89    H49     1.082   .     S
C90    H50     1.083   .     S
C90    C91     1.406   1_455 D
C91    C92     1.417   .     S
C91    C95     1.506   .     S
C91    C90     1.406   1_655 D
C92    H51     1.083   .     S
C92    C93     1.417   1_655 D
C93    C94     1.408   .     S
C93    H52     1.082   .     S
C93    C92     1.417   1_455 D
C94    N66     1.447   .     S
C95    N17     1.368   .     S
C95    N91     1.365   .     D
N17    C205    1.365   .     D
C96    C97     1.406   .     S
C96    C98     1.414   .     D
C96    C858    1.514   .     S
C97    C856    1.405   .     S
C97    O9      1.387   .     D
C98    H53     1.084   .     S
C98    C857    1.423   .     S
O9     Ti4     1.947   .     S
N18    C226    1.447   .     S
N18    C330    1.308   .     D
C99    N80     1.308   .     D
C99    C855    1.514   .     S
C99    H54     1.083   .     S
C100   C101    1.400   .     S
C100   H55     1.082   .     S
C100   C105    1.402   .     D
C101   H56     1.083   .     S
C101   C102    1.406   1_455 D
C102   C103    1.417   .     S
C102   C106    1.506   .     S
C102   C101    1.406   1_655 D
C103   H57     1.083   .     S
C103   C104    1.417   1_655 D
C104   H58     1.082   .     S
C104   C105    1.408   .     S
C104   C103    1.417   1_455 D
C105   N68     1.447   .     S
C106   N89     1.365   .     D
C106   N19     1.368   .     S
N19    C216    1.365   .     D
C107   C847    1.514   .     S
C107   C108    1.406   .     S
C107   C109    1.414   .     D
C108   O10     1.387   .     D
C108   C845    1.405   .     S
C109   H59     1.084   .     S
C109   C846    1.423   .     S
O10    Ti5     1.947   .     S
N20    C319    1.308   .     D
N20    C237    1.447   .     S
C110   H60     1.083   .     S
C110   N78     1.308   .     D
C110   C844    1.514   .     S
C111   C116    1.402   .     D
C111   H61     1.082   .     S
C111   C112    1.400   .     S
C112   H62     1.083   .     S
C112   C113    1.406   .     D
C113   C114    1.417   .     S
C113   C117    1.506   .     S
C114   H63     1.083   .     S
C114   C115    1.417   .     D
C115   H64     1.082   .     S
C115   C116    1.408   .     S
C116   N70     1.447   .     S
C117   N95     1.365   .     D
C117   N21     1.368   .     S
N21    C183    1.365   .     D
C118   C119    1.406   .     S
C118   C880    1.514   .     S
C118   C120    1.414   .     D
C119   O11     1.387   .     D
C119   C878    1.405   .     S
C120   H65     1.084   .     S
C120   C879    1.423   .     S
O11    Ti12    1.947   .     S
N22    C352    1.308   .     D
N22    C248    1.447   .     S
C121   H66     1.083   .     S
C121   N76     1.308   .     D
C121   C877    1.514   .     S
C122   C123    1.400   .     D
C122   C127    1.402   .     S
C122   H67     1.082   .     S
C123   C124    1.406   .     S
C123   H68     1.083   .     S
C124   C125    1.417   .     D
C124   C128    1.506   .     S
C125   H69     1.083   .     S
C125   C126    1.417   .     S
C126   C127    1.408   .     D
C126   H70     1.082   .     S
C127   N72     1.447   .     S
C128   N93     1.365   .     S
C128   N23     1.368   .     D
N23    C194    1.365   .     S
C129   C131    1.414   .     D
C129   C869    1.514   .     S
C129   C130    1.406   .     S
C130   C867    1.405   .     S
C130   O12     1.387   .     D
C131   H71     1.084   .     S
C131   C868    1.423   .     S
O12    Ti6     1.947   .     S
N24    C259    1.447   .     S
N24    C341    1.308   .     D
C132   N74     1.308   .     D
C132   C866    1.514   .     S
C132   H72     1.083   .     S
C133   C138    1.402   .     D
C133   H73     1.082   .     S
C133   C134    1.400   .     S
C134   H74     1.083   .     S
C134   C135    1.406   1_655 D
C135   C136    1.417   .     S
C135   C139    1.506   .     S
C135   C134    1.406   1_455 D
C136   H75     1.083   .     S
C136   C137    1.417   1_455 D
C137   H76     1.082   .     S
C137   C138    1.408   .     S
C137   C136    1.417   1_655 D
C138   N90     1.447   .     S
C139   N67     1.365   .     D
C139   N25     1.368   .     S
N25    C293    1.365   .     D
C140   C141    1.406   .     S
C140   C770    1.514   .     S
C140   C142    1.414   .     D
C141   O13     1.387   .     D
C141   C768    1.405   .     S
C142   H77     1.084   .     S
C142   C769    1.423   .     S
O13    Ti7     1.947   .     S
N26    C242    1.308   .     D
N26    C314    1.447   .     S
C143   H78     1.083   .     S
C143   N88     1.308   .     D
C143   C767    1.514   .     S
C144   C149    1.402   .     D
C144   C145    1.400   .     S
C144   H79     1.082   .     S
C145   H80     1.083   .     S
C145   C146    1.406   1_655 D
C146   C150    1.506   .     S
C146   C147    1.417   .     S
C146   C145    1.406   1_455 D
C147   H81     1.083   .     S
C147   C148    1.417   1_455 D
C148   C149    1.408   .     S
C148   H82     1.082   .     S
C148   C147    1.417   1_655 D
C149   N92     1.447   .     S
C150   N27     1.368   .     S
C150   N65     1.365   .     D
N27    C304    1.365   .     D
C151   C152    1.406   .     S
C151   C153    1.414   .     D
C151   C759    1.514   .     S
C152   C757    1.405   .     S
C152   O14     1.387   .     D
C153   C758    1.423   .     S
C153   H83     1.084   .     S
O14    Ti9     1.947   .     S
N28    C325    1.447   .     S
N28    C231    1.308   .     D
C154   C756    1.514   .     S
C154   N86     1.308   .     D
C154   H84     1.083   .     S
C155   C160    1.402   .     S
C155   C156    1.400   .     D
C155   H85     1.082   .     S
C156   C157    1.406   .     S
C156   H86     1.083   .     S
C157   C158    1.417   .     D
C157   C161    1.506   .     S
C158   C159    1.417   .     S
C158   H87     1.083   .     S
C159   C160    1.408   .     D
C159   H88     1.082   .     S
C160   N94     1.447   .     S
C161   N29     1.368   .     D
C161   N71     1.365   .     S
N29    C271    1.365   .     S
C162   C163    1.406   .     S
C162   C164    1.414   .     D
C162   C792    1.514   .     S
C163   C790    1.405   .     S
C163   O15     1.387   .     D
C164   H89     1.084   .     S
C164   C791    1.423   .     S
O15    Ti16    1.947   .     S
N30    C336    1.447   .     S
N30    C264    1.308   .     D
C165   N84     1.308   .     D
C165   C789    1.514   .     S
C165   H90     1.083   .     S
C166   C171    1.402   .     D
C166   H91     1.082   .     S
C166   C167    1.400   .     S
C167   H92     1.083   .     S
C167   C168    1.406   .     D
C168   C172    1.506   .     S
C168   C169    1.417   .     S
C169   C170    1.417   .     D
C169   H93     1.083   .     S
C170   H94     1.082   .     S
C170   C171    1.408   .     S
C171   N96     1.447   .     S
C172   N69     1.365   .     S
C172   N31     1.368   .     D
N31    C282    1.365   .     S
C173   C174    1.406   .     S
C173   C781    1.514   .     S
C173   C175    1.414   .     D
C174   C779    1.405   .     S
C174   O16     1.387   .     D
C175   C780    1.423   .     S
C175   H95     1.084   .     S
O16    Ti15    1.947   .     S
N32    C253    1.308   .     D
N32    C347    1.447   .     S
C176   H96     1.083   .     S
C176   C778    1.514   .     S
C176   N82     1.308   .     D
C177   H97     1.082   .     S
C177   C178    1.400   .     S
C177   C182    1.402   .     D
C178   C179    1.406   .     D
C178   H98     1.083   .     S
C179   C180    1.417   .     S
C179   C183    1.506   .     S
C180   H99     1.083   .     S
C180   C181    1.417   .     D
C181   H100    1.082   .     S
C181   C182    1.408   .     S
C183   N33     1.368   .     S
N33    C524    1.365   .     D
C184   C605    1.514   .     S
C184   C186    1.414   .     D
C184   C185    1.406   .     S
C185   O17     1.387   .     D
C185   C603    1.405   .     S
C186   H101    1.084   .     S
C186   C604    1.423   .     S
O17    Ti8     1.947   .     S
N34    C385    1.308   .     D
N34    C446    1.447   .     S
C187   H102    1.083   .     S
C187   C602    1.514   .     S
C188   C193    1.402   .     D
C188   H103    1.082   .     S
C188   C189    1.400   .     S
C189   H104    1.083   .     S
C189   C190    1.406   1_565 D
C190   C191    1.417   .     S
C190   C194    1.506   .     S
C190   C189    1.406   1_545 D
C191   H105    1.083   .     S
C191   C192    1.417   1_545 D
C192   C193    1.408   .     S
C192   H106    1.082   .     S
C192   C191    1.417   1_565 D
C194   N35     1.368   .     D
N35    C513    1.365   .     S
C195   C196    1.406   .     S
C195   C616    1.514   .     S
C195   C197    1.414   .     D
C196   O18     1.387   .     D
C196   C614    1.405   .     S
C197   H107    1.084   .     S
C197   C615    1.423   .     S
O18    Ti1     1.947   .     S
N36    C457    1.447   .     S
N36    C396    1.308   .     D
C198   H108    1.083   .     S
C198   C613    1.514   .     S
C199   C204    1.402   .     S
C199   H109    1.082   .     S
C199   C200    1.400   .     D
C200   C201    1.406   .     S
C200   H110    1.083   .     S
C201   C202    1.417   .     D
C201   C205    1.506   .     S
C202   C203    1.417   .     S
C202   H111    1.083   .     S
C203   C204    1.408   .     D
C203   H112    1.082   .     S
C205   N37     1.368   .     S
N37    C502    1.365   .     D
C206   C207    1.406   .     S
C206   C208    1.414   .     D
C206   C583    1.514   .     S
C207   O19     1.387   .     D
C207   C581    1.405   .     S
C208   H113    1.084   .     S
C208   C582    1.423   .     S
O19    Ti13    1.947   .     S
N38    C363    1.308   .     D
N38    C468    1.447   .     S
C209   H114    1.083   .     S
C209   C580    1.514   .     S
C210   H115    1.082   .     S
C210   C211    1.400   .     S
C210   C215    1.402   .     D
C211   H116    1.083   .     S
C211   C212    1.406   1_565 D
C212   C213    1.417   .     S
C212   C216    1.506   .     S
C212   C211    1.406   1_545 D
C213   H117    1.083   .     S
C213   C214    1.417   1_545 D
C214   C215    1.408   .     S
C214   H118    1.082   .     S
C214   C213    1.417   1_565 D
C216   N39     1.368   .     S
N39    C491    1.365   .     D
C217   C219    1.414   .     D
C217   C594    1.514   .     S
C217   C218    1.406   .     S
C218   O20     1.387   .     D
C218   C592    1.405   .     S
C219   H119    1.084   .     S
C219   C593    1.423   .     S
O20    Ti14    1.947   .     S
N40    C374    1.308   .     D
N40    C479    1.447   .     S
C220   H120    1.083   .     S
C220   C591    1.514   .     S
C221   C226    1.402   .     D
C221   H121    1.082   .     S
C221   C222    1.400   .     S
C222   C223    1.406   .     D
C222   H122    1.083   .     S
C223   C227    1.506   .     S
C223   C224    1.417   .     S
C224   H123    1.083   .     S
C224   C225    1.417   .     D
C225   C226    1.408   .     S
C225   H124    1.082   .     S
C227   N41     1.368   .     S
N41    C436    1.365   .     D
C228   C229    1.406   .     S
C228   C230    1.414   .     D
C228   C693    1.514   .     S
C229   C691    1.405   .     S
C229   O21     1.387   .     D
C230   C692    1.423   .     S
C230   H125    1.084   .     S
O21    Ti9     1.947   .     S
N42    C358    1.447   .     S
N42    C473    1.308   .     D
C231   H126    1.083   .     S
C231   C690    1.514   .     S
C232   C233    1.400   .     S
C232   C237    1.402   .     D
C232   H127    1.082   .     S
C233   H128    1.083   .     S
C233   C234    1.406   1_545 D
C234   C235    1.417   .     S
C234   C238    1.506   .     S
C234   C233    1.406   1_565 D
C235   H129    1.083   .     S
C235   C236    1.417   1_565 D
C236   C237    1.408   .     S
C236   H130    1.082   .     S
C236   C235    1.417   1_545 D
C238   N43     1.368   .     D
N43    C425    1.365   .     S
C239   C240    1.406   .     S
C239   C241    1.414   .     D
C239   C704    1.514   .     S
C240   O22     1.387   .     D
C240   C702    1.405   .     S
C241   H131    1.084   .     S
C241   C703    1.423   .     S
O22    Ti7     1.947   .     S
N44    C369    1.447   .     S
N44    C484    1.308   .     D
C242   H132    1.083   .     S
C242   C701    1.514   .     S
C243   C248    1.402   .     S
C243   H133    1.082   .     S
C243   C244    1.400   .     D
C244   C245    1.406   .     S
C244   H134    1.083   .     S
C245   C246    1.417   .     D
C245   C249    1.506   .     S
C246   H135    1.083   .     S
C246   C247    1.417   .     S
C247   C248    1.408   .     D
C247   H136    1.082   .     S
C249   N45     1.368   .     S
N45    C414    1.365   .     D
C250   C251    1.406   .     S
C250   C252    1.414   .     D
C250   C671    1.514   .     S
C251   O23     1.387   .     D
C251   C669    1.405   .     S
C252   H137    1.084   .     S
C252   C670    1.423   .     S
O23    Ti15    1.947   .     S
N46    C451    1.308   .     D
N46    C380    1.447   .     S
C253   H138    1.083   .     S
C253   C668    1.514   .     S
C254   C259    1.402   .     S
C254   C255    1.400   .     D
C254   H139    1.082   .     S
C255   H140    1.083   .     S
C255   C256    1.406   1_545 S
C256   C260    1.506   .     S
C256   C257    1.417   .     D
C256   C255    1.406   1_565 S
C257   H141    1.083   .     S
C257   C258    1.417   1_565 S
C258   C259    1.408   .     D
C258   H142    1.082   .     S
C258   C257    1.417   1_545 S
C260   N47     1.368   .     D
N47    C403    1.365   .     S
C261   C262    1.406   .     S
C261   C682    1.514   .     S
C261   C263    1.414   .     D
C262   C680    1.405   .     S
C262   O24     1.387   .     D
C263   C681    1.423   .     S
C263   H143    1.084   .     S
O24    Ti16    1.947   .     S
N48    C462    1.308   .     D
N48    C391    1.447   .     S
C264   H144    1.083   .     S
C264   C679    1.514   .     S
C265   C266    1.400   .     S
C265   C270    1.402   .     D
C265   H145    1.082   .     S
C266   H146    1.083   .     S
C266   C267    1.406   1_545 D
C267   C268    1.417   .     S
C267   C271    1.506   .     S
C267   C266    1.406   1_565 D
C268   H147    1.083   .     S
C268   C269    1.417   1_565 D
C269   C270    1.408   .     S
C269   H148    1.082   .     S
C269   C268    1.417   1_545 D
C271   N49     1.368   .     D
N49    C392    1.365   .     S
C272   C273    1.406   .     S
C272   C274    1.414   .     D
C272   C561    1.514   .     S
C273   O25     1.387   .     D
C273   C559    1.405   .     S
C274   H149    1.084   .     S
C274   C560    1.423   .     S
O25    Ti10    1.947   .     S
N50    C402    1.447   .     S
N50    C517    1.308   .     D
C275   H150    1.083   .     S
C275   C558    1.514   .     S
C276   H151    1.082   .     S
C276   C277    1.400   .     S
C276   C281    1.402   .     D
C277   C278    1.406   .     D
C277   H152    1.083   .     S
C278   C279    1.417   .     S
C278   C282    1.506   .     S
C279   H153    1.083   .     S
C279   C280    1.417   .     D
C280   C281    1.408   .     S
C280   H154    1.082   .     S
C282   N51     1.368   .     D
N51    C381    1.365   .     S
C283   C285    1.414   .     D
C283   C572    1.514   .     S
C283   C284    1.406   .     S
C284   C570    1.405   .     S
C284   O26     1.387   .     D
C285   H155    1.084   .     S
C285   C571    1.423   .     S
O26    Ti2     1.947   .     S
N52    C528    1.308   .     D
N52    C413    1.447   .     S
C286   H156    1.083   .     S
C286   C569    1.514   .     S
C287   C288    1.400   .     S
C287   H157    1.082   .     S
C287   C292    1.402   .     D
C288   H158    1.083   .     S
C288   C289    1.406   1_545 D
C289   C290    1.417   .     S
C289   C293    1.506   .     S
C289   C288    1.406   1_565 D
C290   H159    1.083   .     S
C290   C291    1.417   1_565 D
C291   H160    1.082   .     S
C291   C292    1.408   .     S
C291   C290    1.417   1_545 D
C293   N53     1.368   .     S
N53    C370    1.365   .     D
C294   C539    1.514   .     S
C294   C296    1.414   .     D
C294   C295    1.406   .     S
C295   O27     1.387   .     D
C295   C537    1.405   .     S
C296   H161    1.084   .     S
C296   C538    1.423   .     S
O27    Ti11    1.947   .     S
N54    C495    1.308   .     D
N54    C424    1.447   .     S
C297   H162    1.083   .     S
C297   C536    1.514   .     S
C298   C303    1.402   .     S
C298   H163    1.082   .     S
C298   C299    1.400   .     D
C299   C300    1.406   .     S
C299   H164    1.083   .     S
C300   C301    1.417   .     D
C300   C304    1.506   .     S
C301   H165    1.083   .     S
C301   C302    1.417   .     S
C302   C303    1.408   .     D
C302   H166    1.082   .     S
C304   N55     1.368   .     S
N55    C359    1.365   .     D
C305   C306    1.406   .     S
C305   C307    1.414   .     D
C305   C550    1.514   .     S
C306   O28     1.387   .     D
C306   C548    1.405   .     S
C307   H167    1.084   .     S
C307   C549    1.423   .     S
O28    Ti3     1.947   .     S
N56    C506    1.308   .     D
N56    C435    1.447   .     S
C308   H168    1.083   .     S
C308   C547    1.514   .     S
C309   C314    1.402   .     D
C309   H169    1.082   .     S
C309   C310    1.400   .     S
C310   H170    1.083   .     S
C310   C311    1.406   1_565 D
C311   C312    1.417   .     S
C311   C315    1.506   .     S
C311   C310    1.406   1_545 D
C312   H171    1.083   .     S
C312   C313    1.417   1_545 D
C313   C314    1.408   .     S
C313   H172    1.082   .     S
C313   C312    1.417   1_565 D
C315   N57     1.368   .     D
N57    C480    1.365   .     S
C316   C317    1.406   .     S
C316   C649    1.514   .     S
C316   C318    1.414   .     D
C317   O29     1.387   .     D
C317   C647    1.405   .     S
C318   H173    1.084   .     S
C318   C648    1.423   .     S
O29    Ti5     1.947   .     S
N58    C490    1.447   .     S
N58    C429    1.308   .     D
C319   H174    1.083   .     S
C319   C646    1.514   .     S
C320   C325    1.402   .     D
C320   C321    1.400   .     S
C320   H175    1.082   .     S
C321   H176    1.083   .     S
C321   C322    1.406   .     D
C322   C326    1.506   .     S
C322   C323    1.417   .     S
C323   C324    1.417   .     D
C323   H177    1.083   .     S
C324   H178    1.082   .     S
C324   C325    1.408   .     S
C326   N59     1.368   .     D
N59    C469    1.365   .     S
C327   C328    1.406   .     S
C327   C660    1.514   .     S
C327   C329    1.414   .     D
C328   C658    1.405   .     S
C328   O30     1.387   .     D
C329   C659    1.423   .     S
C329   H179    1.084   .     S
O30    Ti4     1.947   .     S
N60    C440    1.308   .     D
N60    C501    1.447   .     S
C330   H180    1.083   .     S
C330   C657    1.514   .     S
C331   C336    1.402   .     S
C331   C332    1.400   .     D
C331   H181    1.082   .     S
C332   H182    1.083   .     S
C332   C333    1.406   1_565 S
C333   C337    1.506   .     S
C333   C334    1.417   .     D
C333   C332    1.406   1_545 S
C334   H183    1.083   .     S
C334   C335    1.417   1_545 S
C335   C336    1.408   .     D
C335   H184    1.082   .     S
C335   C334    1.417   1_565 S
C337   N61     1.368   .     S
N61    C458    1.365   .     D
C338   C339    1.406   .     S
C338   C340    1.414   .     D
C338   C627    1.514   .     S
C339   C625    1.405   .     S
C339   O31     1.387   .     D
C340   C626    1.423   .     S
C340   H185    1.084   .     S
O31    Ti6     1.947   .     S
N62    C512    1.447   .     S
N62    C407    1.308   .     D
C341   C624    1.514   .     S
C341   H186    1.083   .     S
C342   C347    1.402   .     S
C342   H187    1.082   .     S
C342   C343    1.400   .     D
C343   C344    1.406   .     S
C343   H188    1.083   .     S
C344   C345    1.417   .     D
C344   C348    1.506   .     S
C345   C346    1.417   .     S
C345   H189    1.083   .     S
C346   C347    1.408   .     D
C346   H190    1.082   .     S
C348   N63     1.368   .     S
N63    C447    1.365   .     D
C349   C350    1.406   .     S
C349   C351    1.414   .     D
C349   C638    1.514   .     S
C350   O32     1.387   .     D
C350   C636    1.405   .     S
C351   H191    1.084   .     S
C351   C637    1.423   .     S
O32    Ti12    1.947   .     S
N64    C523    1.447   .     S
N64    C418    1.308   .     D
C352   H192    1.083   .     S
C352   C635    1.514   .     S
C353   H193    1.082   .     S
C353   C358    1.402   .     D
C353   C354    1.400   .     S
C354   C355    1.406   .     D
C354   H194    1.083   .     S
C355   C356    1.417   .     S
C355   C359    1.506   .     S
C356   H195    1.083   .     S
C356   C357    1.417   .     D
C357   H196    1.082   .     S
C357   C358    1.408   .     S
C359   N65     1.368   .     S
C360   C1056   1.514   .     S
C360   C361    1.406   .     S
C360   C362    1.414   .     D
C361   O33     1.387   .     D
C361   C1054   1.405   .     S
C362   H197    1.084   .     S
C362   C1055   1.423   .     S
O33    Ti13    1.947   .     S
C363   H198    1.083   .     S
C363   C1053   1.514   .     S
C364   C369    1.402   .     S
C364   H199    1.082   .     S
C364   C365    1.400   .     D
C365   H200    1.083   .     S
C365   C366    1.406   1_556 S
C366   C367    1.417   .     D
C366   C370    1.506   .     S
C366   C365    1.406   1_554 S
C367   H201    1.083   .     S
C367   C368    1.417   1_554 S
C368   C369    1.408   .     D
C368   H202    1.082   .     S
C368   C367    1.417   1_556 S
C370   N67     1.368   .     S
C371   C373    1.414   .     D
C371   C372    1.406   .     S
C371   C1045   1.514   .     S
C372   O34     1.387   .     D
C372   C1043   1.405   .     S
C373   H203    1.084   .     S
C373   C1044   1.423   .     S
O34    Ti14    1.947   .     S
C374   H204    1.083   .     S
C374   C1042   1.514   .     S
C375   C380    1.402   .     S
C375   H205    1.082   .     S
C375   C376    1.400   .     D
C376   H206    1.083   .     S
C376   C377    1.406   1_556 S
C377   C381    1.506   .     S
C377   C378    1.417   .     D
C377   C376    1.406   1_554 S
C378   H207    1.083   .     S
C378   C379    1.417   1_554 S
C379   C380    1.408   .     D
C379   H208    1.082   .     S
C379   C378    1.417   1_556 S
C381   N69     1.368   .     D
C382   C383    1.406   .     S
C382   C384    1.414   .     D
C382   C1034   1.514   .     S
C383   O35     1.387   .     D
C383   C1032   1.405   .     S
C384   H209    1.084   .     S
C384   C1033   1.423   .     S
O35    Ti8     1.947   .     S
C385   H210    1.083   .     S
C385   C1031   1.514   .     S
C386   C391    1.402   .     D
C386   H211    1.082   .     S
C386   C387    1.400   .     S
C387   C388    1.406   .     D
C387   H212    1.083   .     S
C388   C389    1.417   .     S
C388   C392    1.506   .     S
C389   C390    1.417   .     D
C389   H213    1.083   .     S
C390   H214    1.082   .     S
C390   C391    1.408   .     S
C392   N71     1.368   .     D
C393   C394    1.406   .     S
C393   C395    1.414   .     D
C393   C1023   1.514   .     S
C394   O36     1.387   .     D
C394   C1021   1.405   .     S
C395   H215    1.084   .     S
C395   C1022   1.423   .     S
O36    Ti1     1.947   .     S
C396   H216    1.083   .     S
C396   C1020   1.514   .     S
C397   C402    1.402   .     D
C397   H217    1.082   .     S
C397   C398    1.400   .     S
C398   C399    1.406   .     D
C398   H218    1.083   .     S
C399   C403    1.506   .     S
C399   C400    1.417   .     S
C400   H219    1.083   .     S
C400   C401    1.417   .     D
C401   C402    1.408   .     S
C401   H220    1.082   .     S
C403   N73     1.368   .     D
C404   C405    1.406   .     S
C404   C406    1.414   .     D
C404   C968    1.514   .     S
C405   C966    1.405   .     S
C405   O37     1.387   .     D
C406   C967    1.423   .     S
C406   H221    1.084   .     S
O37    Ti6     1.947   .     S
C407   H222    1.083   .     S
C407   C965    1.514   .     S
C408   C413    1.402   .     S
C408   C409    1.400   .     D
C408   H223    1.082   .     S
C409   H224    1.083   .     S
C409   C410    1.406   1_554 S
C410   C411    1.417   .     D
C410   C414    1.506   .     S
C410   C409    1.406   1_556 S
C411   H225    1.083   .     S
C411   C412    1.417   1_556 S
C412   C413    1.408   .     D
C412   H226    1.082   .     S
C412   C411    1.417   1_554 S
C414   N75     1.368   .     S
C415   C416    1.406   .     S
C415   C957    1.514   .     S
C415   C417    1.414   .     D
C416   O38     1.387   .     D
C416   C955    1.405   .     S
C417   H227    1.084   .     S
C417   C956    1.423   .     S
O38    Ti12    1.947   .     S
C418   H228    1.083   .     S
C418   C954    1.514   .     S
C419   C420    1.400   .     D
C419   C424    1.402   .     S
C419   H229    1.082   .     S
C420   H230    1.083   .     S
C420   C421    1.406   1_554 S
C421   C422    1.417   .     D
C421   C425    1.506   .     S
C421   C420    1.406   1_556 S
C422   H231    1.083   .     S
C422   C423    1.417   1_556 S
C423   C424    1.408   .     D
C423   H232    1.082   .     S
C423   C422    1.417   1_554 S
C425   N77     1.368   .     D
C426   C427    1.406   .     S
C426   C428    1.414   .     D
C426   C946    1.514   .     S
C427   O39     1.387   .     D
C427   C944    1.405   .     S
C428   H233    1.084   .     S
C428   C945    1.423   .     S
O39    Ti5     1.947   .     S
C429   H234    1.083   .     S
C429   C943    1.514   .     S
C430   C435    1.402   .     D
C430   H235    1.082   .     S
C430   C431    1.400   .     S
C431   C432    1.406   .     D
C431   H236    1.083   .     S
C432   C436    1.506   .     S
C432   C433    1.417   .     S
C433   H237    1.083   .     S
C433   C434    1.417   .     D
C434   C435    1.408   .     S
C434   H238    1.082   .     S
C436   N79     1.368   .     S
C437   C438    1.406   .     S
C437   C439    1.414   .     D
C437   C935    1.514   .     S
C438   O40     1.387   .     D
C438   C933    1.405   .     S
C439   H239    1.084   .     S
C439   C934    1.423   .     S
O40    Ti4     1.947   .     S
C440   H240    1.083   .     S
C440   C932    1.514   .     S
C441   C442    1.400   .     D
C441   C446    1.402   .     S
C441   H241    1.082   .     S
C442   H242    1.083   .     S
C442   C443    1.406   1_554 S
C443   C444    1.417   .     D
C443   C447    1.506   .     S
C443   C442    1.406   1_556 S
C444   H243    1.083   .     S
C444   C445    1.417   1_556 S
C445   C446    1.408   .     D
C445   H244    1.082   .     S
C445   C444    1.417   1_554 S
C447   N81     1.368   .     S
C448   C449    1.406   .     S
C448   C450    1.414   .     D
C448   C1012   1.514   .     S
C449   O41     1.387   .     D
C449   C1010   1.405   .     S
C450   H245    1.084   .     S
C450   C1011   1.423   .     S
O41    Ti15    1.947   .     S
C451   H246    1.083   .     S
C451   C1009   1.514   .     S
C452   C457    1.402   .     D
C452   H247    1.082   .     S
C452   C453    1.400   .     S
C453   H248    1.083   .     S
C453   C454    1.406   .     D
C454   C455    1.417   .     S
C454   C458    1.506   .     S
C455   H249    1.083   .     S
C455   C456    1.417   .     D
C456   H250    1.082   .     S
C456   C457    1.408   .     S
C458   N83     1.368   .     S
C459   C460    1.406   .     S
C459   C461    1.414   .     D
C459   C1001   1.514   .     S
C460   O42     1.387   .     D
C460   C999    1.405   .     S
C461   H251    1.084   .     S
C461   C1000   1.423   .     S
O42    Ti16    1.947   .     S
C462   H252    1.083   .     S
C462   C998    1.514   .     S
C463   C468    1.402   .     S
C463   H253    1.082   .     S
C463   C464    1.400   .     D
C464   C465    1.406   .     S
C464   H254    1.083   .     S
C465   C466    1.417   .     D
C465   C469    1.506   .     S
C466   H255    1.083   .     S
C466   C467    1.417   .     S
C467   C468    1.408   .     D
C467   H256    1.082   .     S
C469   N85     1.368   .     D
C470   C472    1.414   .     D
C470   C471    1.406   .     S
C470   C990    1.514   .     S
C471   C988    1.405   .     S
C471   O43     1.387   .     D
C472   H257    1.084   .     S
C472   C989    1.423   .     S
O43    Ti9     1.947   .     S
C473   H258    1.083   .     S
C473   C987    1.514   .     S
C474   C475    1.400   .     D
C474   H259    1.082   .     S
C474   C479    1.402   .     S
C475   H260    1.083   .     S
C475   C476    1.406   1_554 S
C476   C477    1.417   .     D
C476   C480    1.506   .     S
C476   C475    1.406   1_556 S
C477   H261    1.083   .     S
C477   C478    1.417   1_556 S
C478   H262    1.082   .     S
C478   C479    1.408   .     D
C478   C477    1.417   1_554 S
C480   N87     1.368   .     D
C481   C979    1.514   .     S
C481   C482    1.406   .     S
C481   C483    1.414   .     D
C482   O44     1.387   .     D
C482   C977    1.405   .     S
C483   H263    1.084   .     S
C483   C978    1.423   .     S
O44    Ti7     1.947   .     S
C484   H264    1.083   .     S
C484   C976    1.514   .     S
C485   C490    1.402   .     D
C485   H265    1.082   .     S
C485   C486    1.400   .     S
C486   H266    1.083   .     S
C486   C487    1.406   1_556 D
C487   C488    1.417   .     S
C487   C491    1.506   .     S
C487   C486    1.406   1_554 D
C488   H267    1.083   .     S
C488   C489    1.417   1_554 D
C489   H268    1.082   .     S
C489   C490    1.408   .     S
C489   C488    1.417   1_556 D
C491   N89     1.368   .     S
C492   C493    1.406   .     S
C492   C494    1.414   .     D
C492   C924    1.514   .     S
C493   O45     1.387   .     D
C493   C922    1.405   .     S
C494   H269    1.084   .     S
C494   C923    1.423   .     S
O45    Ti11    1.947   .     S
C495   H270    1.083   .     S
C495   C921    1.514   .     S
C496   C501    1.402   .     D
C496   H271    1.082   .     S
C496   C497    1.400   .     S
C497   C498    1.406   .     D
C497   H272    1.083   .     S
C498   C499    1.417   .     S
C498   C502    1.506   .     S
C499   C500    1.417   .     D
C499   H273    1.083   .     S
C500   H274    1.082   .     S
C500   C501    1.408   .     S
C502   N91     1.368   .     S
C503   C504    1.406   .     S
C503   C505    1.414   .     D
C503   C913    1.514   .     S
C504   O46     1.387   .     D
C504   C911    1.405   .     S
C505   H275    1.084   .     S
C505   C912    1.423   .     S
O46    Ti3     1.947   .     S
C506   H276    1.083   .     S
C506   C910    1.514   .     S
C507   C512    1.402   .     D
C507   H277    1.082   .     S
C507   C508    1.400   .     S
C508   H278    1.083   .     S
C508   C509    1.406   .     D
C509   C510    1.417   .     S
C509   C513    1.506   .     S
C510   C511    1.417   .     D
C510   H279    1.083   .     S
C511   H280    1.082   .     S
C511   C512    1.408   .     S
C513   N93     1.368   .     D
C514   C515    1.406   .     S
C514   C902    1.514   .     S
C514   C516    1.414   .     D
C515   O47     1.387   .     D
C515   C900    1.405   .     S
C516   H281    1.084   .     S
C516   C901    1.423   .     S
O47    Ti10    1.947   .     S
C517   H282    1.083   .     S
C517   C899    1.514   .     S
C518   C523    1.402   .     D
C518   H283    1.082   .     S
C518   C519    1.400   .     S
C519   H284    1.083   .     S
C519   C520    1.406   1_556 D
C520   C524    1.506   .     S
C520   C521    1.417   .     S
C520   C519    1.406   1_554 D
C521   H285    1.083   .     S
C521   C522    1.417   1_554 D
C522   C523    1.408   .     S
C522   H286    1.082   .     S
C522   C521    1.417   1_556 D
C524   N95     1.368   .     S
C525   C526    1.406   .     S
C525   C527    1.414   .     D
C525   C891    1.514   .     S
C526   O48     1.387   .     D
C526   C889    1.405   .     S
C527   H287    1.084   .     S
C527   C890    1.423   .     S
O48    Ti2     1.947   .     S
C528   C888    1.514   .     S
C528   H288    1.083   .     S
C529   C530    1.400   .     S
C529   H289    1.082   .     S
C529   C534    1.402   .     D
C530   H290    1.083   .     S
C530   C531    1.406   .     D
C531   C535    1.506   .     S
C531   C532    1.417   .     S
C532   C533    1.417   .     D
C532   H291    1.083   .     S
C533   H292    1.082   .     S
C533   C534    1.408   .     S
C534   N170    1.447   .     S
C535   N97     1.368   .     S
C535   N181    1.365   .     D
N97    C854    1.365   .     D
C536   C537    1.406   .     S
C536   C538    1.414   .     D
C537   O49     1.387   .     D
C538   H293    1.084   .     S
O49    Ti11    1.947   .     S
N98    C737    1.308   .     D
N98    C798    1.447   .     S
C539   H294    1.083   .     S
C539   N168    1.308   .     D
C540   H295    1.082   .     S
C540   C541    1.400   .     S
C540   C545    1.402   .     D
C541   H296    1.083   .     S
C541   C542    1.406   .     D
C542   C543    1.417   .     S
C542   C546    1.506   .     S
C543   H297    1.083   .     S
C543   C544    1.417   .     D
C544   C545    1.408   .     S
C544   H298    1.082   .     S
C545   N172    1.447   .     S
C546   N183    1.365   .     D
C546   N99     1.368   .     S
N99    C843    1.365   .     D
C547   C549    1.414   .     D
C547   C548    1.406   .     S
C548   O50     1.387   .     D
C549   H299    1.084   .     S
O50    Ti3     1.947   .     S
N100   C748    1.308   .     D
N100   C809    1.447   .     S
C550   H300    1.083   .     S
C550   N166    1.308   .     D
C551   C552    1.400   .     D
C551   H301    1.082   .     S
C551   C556    1.402   .     S
C552   H302    1.083   .     S
C552   C553    1.406   .     S
C553   C557    1.506   .     S
C553   C554    1.417   .     D
C554   C555    1.417   .     S
C554   H303    1.083   .     S
C555   C556    1.408   .     D
C555   H304    1.082   .     S
C556   N174    1.447   .     S
C557   N177    1.365   .     S
C557   N101    1.368   .     D
N101   C876    1.365   .     S
C558   C559    1.406   .     S
C558   C560    1.414   .     D
C559   O51     1.387   .     D
C560   H305    1.084   .     S
O51    Ti10    1.947   .     S
N102   C715    1.308   .     D
N102   C820    1.447   .     S
C561   H306    1.083   .     S
C561   N164    1.308   .     D
C562   C567    1.402   .     S
C562   H307    1.082   .     S
C562   C563    1.400   .     D
C563   C564    1.406   .     S
C563   H308    1.083   .     S
C564   C568    1.506   .     S
C564   C565    1.417   .     D
C565   H309    1.083   .     S
C565   C566    1.417   .     S
C566   H310    1.082   .     S
C566   C567    1.408   .     D
C567   N176    1.447   .     S
C568   N103    1.368   .     D
C568   N179    1.365   .     S
N103   C865    1.365   .     S
C569   C570    1.406   .     S
C569   C571    1.414   .     D
C570   O52     1.387   .     D
C571   H311    1.084   .     S
O52    Ti2     1.947   .     S
N104   C726    1.308   .     D
N104   C831    1.447   .     S
C572   H312    1.083   .     S
C572   N162    1.308   .     D
C573   C574    1.400   .     S
C573   H313    1.082   .     S
C573   C578    1.402   .     D
C574   H314    1.083   .     S
C574   C575    1.406   .     D
C575   C576    1.417   .     S
C575   C579    1.506   .     S
C576   H315    1.083   .     S
C576   C577    1.417   .     D
C577   C578    1.408   .     S
C577   H316    1.082   .     S
C578   N178    1.447   .     S
C579   N173    1.365   .     D
C579   N105    1.368   .     S
N105   C766    1.365   .     D
C580   C581    1.406   .     S
C580   C582    1.414   .     D
C581   O53     1.387   .     D
C582   H317    1.084   .     S
O53    Ti13    1.947   .     S
N106   C710    1.447   .     S
N106   C825    1.308   .     D
C583   H318    1.083   .     S
C583   N192    1.308   .     D
C584   C585    1.400   .     S
C584   C589    1.402   .     D
C584   H319    1.082   .     S
C585   C586    1.406   .     D
C585   H320    1.083   .     S
C586   C590    1.506   .     S
C586   C587    1.417   .     S
C587   C588    1.417   .     D
C587   H321    1.083   .     S
C588   H322    1.082   .     S
C588   C589    1.408   .     S
C589   N180    1.447   .     S
C590   N107    1.368   .     S
C590   N175    1.365   .     D
N107   C755    1.365   .     D
C591   C592    1.406   .     S
C591   C593    1.414   .     D
C592   O54     1.387   .     D
C593   H323    1.084   .     S
O54    Ti14    1.947   .     S
N108   C836    1.308   .     D
N108   C721    1.447   .     S
C594   H324    1.083   .     S
C594   N190    1.308   .     D
C595   C596    1.400   .     D
C595   H325    1.082   .     S
C595   C600    1.402   .     S
C596   H326    1.083   .     S
C596   C597    1.406   .     S
C597   C601    1.506   .     S
C597   C598    1.417   .     D
C598   H327    1.083   .     S
C598   C599    1.417   .     S
C599   H328    1.082   .     S
C599   C600    1.408   .     D
C600   N182    1.447   .     S
C601   N109    1.368   .     D
C601   N169    1.365   .     S
N109   C788    1.365   .     S
C602   C603    1.406   .     S
C602   C604    1.414   .     D
C603   O55     1.387   .     D
C604   H329    1.084   .     S
O55    Ti8     1.947   .     S
N110   C803    1.308   .     D
N110   C732    1.447   .     S
C605   H330    1.083   .     S
C605   N188    1.308   .     D
C606   C607    1.400   .     D
C606   H331    1.082   .     S
C606   C611    1.402   .     S
C607   H332    1.083   .     S
C607   C608    1.406   .     S
C608   C609    1.417   .     D
C608   C612    1.506   .     S
C609   H333    1.083   .     S
C609   C610    1.417   .     S
C610   H334    1.082   .     S
C610   C611    1.408   .     D
C611   N184    1.447   .     S
C612   N171    1.365   .     S
C612   N111    1.368   .     D
N111   C777    1.365   .     S
C613   C615    1.414   .     D
C613   C614    1.406   .     S
C614   O56     1.387   .     D
C615   H335    1.084   .     S
O56    Ti1     1.947   .     S
N112   C814    1.308   .     D
N112   C743    1.447   .     S
C616   H336    1.083   .     S
C616   N186    1.308   .     D
C617   C618    1.400   .     S
C617   C622    1.402   .     D
C617   H337    1.082   .     S
C618   C619    1.406   .     D
C618   H338    1.083   .     S
C619   C620    1.417   .     S
C619   C623    1.506   .     S
C620   C621    1.417   .     D
C620   H339    1.083   .     S
C621   H340    1.082   .     S
C621   C622    1.408   .     S
C622   N162    1.447   .     S
C623   N113    1.368   .     S
C623   N189    1.365   .     D
N113   C722    1.365   .     D
C624   C625    1.406   .     S
C624   C626    1.414   .     D
C625   O57     1.387   .     D
C626   H341    1.084   .     S
O57    Ti6     1.947   .     S
N114   C754    1.447   .     S
N114   C869    1.308   .     D
C627   N176    1.308   .     D
C627   H342    1.083   .     S
C628   C633    1.402   .     D
C628   C629    1.400   .     S
C628   H343    1.082   .     S
C629   H344    1.083   .     S
C629   C630    1.406   .     D
C630   C634    1.506   .     S
C630   C631    1.417   .     S
C631   H345    1.083   .     S
C631   C632    1.417   .     D
C632   H346    1.082   .     S
C632   C633    1.408   .     S
C633   N164    1.447   .     S
C634   N191    1.365   .     D
C634   N115    1.368   .     S
N115   C711    1.365   .     D
C635   C636    1.406   .     S
C635   C637    1.414   .     D
C636   O58     1.387   .     D
C637   H347    1.084   .     S
O58    Ti12    1.947   .     S
N116   C765    1.447   .     S
N116   C880    1.308   .     D
C638   H348    1.083   .     S
C638   N174    1.308   .     D
C639   C640    1.400   .     D
C639   H349    1.082   .     S
C639   C644    1.402   .     S
C640   H350    1.083   .     S
C640   C641    1.406   .     S
C641   C642    1.417   .     D
C641   C645    1.506   .     S
C642   H351    1.083   .     S
C642   C643    1.417   .     S
C643   H352    1.082   .     S
C643   C644    1.408   .     D
C644   N166    1.447   .     S
C645   N185    1.365   .     S
C645   N117    1.368   .     D
N117   C744    1.365   .     S
C646   C647    1.406   .     S
C646   C648    1.414   .     D
C647   O59     1.387   .     D
C648   H353    1.084   .     S
O59    Ti5     1.947   .     S
N118   C847    1.308   .     D
N118   C776    1.447   .     S
C649   H354    1.083   .     S
C649   N172    1.308   .     D
C650   C651    1.400   .     D
C650   C655    1.402   .     S
C650   H355    1.082   .     S
C651   C652    1.406   .     S
C651   H356    1.083   .     S
C652   C653    1.417   .     D
C652   C656    1.506   .     S
C653   H357    1.083   .     S
C653   C654    1.417   .     S
C654   C655    1.408   .     D
C654   H358    1.082   .     S
C655   N168    1.447   .     S
C656   N187    1.365   .     S
C656   N119    1.368   .     D
N119   C733    1.365   .     S
C657   C659    1.414   .     D
C657   C658    1.406   .     S
C658   O60     1.387   .     D
C659   H359    1.084   .     S
O60    Ti4     1.947   .     S
N120   C787    1.447   .     S
N120   C858    1.308   .     D
C660   N170    1.308   .     D
C660   H360    1.083   .     S
C661   H361    1.082   .     S
C661   C666    1.402   .     D
C661   C662    1.400   .     S
C662   H362    1.083   .     S
C662   C663    1.406   .     D
C663   C664    1.417   .     S
C663   C667    1.506   .     S
C664   H363    1.083   .     S
C664   C665    1.417   .     D
C665   H364    1.082   .     S
C665   C666    1.408   .     S
C666   N186    1.447   .     S
C667   N165    1.365   .     D
C667   N121    1.368   .     S
N121   C810    1.365   .     D
C668   C669    1.406   .     S
C668   C670    1.414   .     D
C669   O61     1.387   .     D
C670   H365    1.084   .     S
O61    Ti15    1.947   .     S
N122   C781    1.308   .     D
N122   C842    1.447   .     S
C671   H366    1.083   .     S
C671   N184    1.308   .     D
C672   C673    1.400   .     S
C672   C677    1.402   .     D
C672   H367    1.082   .     S
C673   C674    1.406   .     D
C673   H368    1.083   .     S
C674   C678    1.506   .     S
C674   C675    1.417   .     S
C675   C676    1.417   .     D
C675   H369    1.083   .     S
C676   C677    1.408   .     S
C676   H370    1.082   .     S
C677   N188    1.447   .     S
C678   N167    1.365   .     D
C678   N123    1.368   .     S
N123   C799    1.365   .     D
C679   C681    1.414   .     D
C679   C680    1.406   .     S
C680   O62     1.387   .     D
C681   H371    1.084   .     S
O62    Ti16    1.947   .     S
N124   C853    1.447   .     S
N124   C792    1.308   .     D
C682   N182    1.308   .     D
C682   H372    1.083   .     S
C683   C688    1.402   .     S
C683   C684    1.400   .     D
C683   H373    1.082   .     S
C684   C685    1.406   .     S
C684   H374    1.083   .     S
C685   C686    1.417   .     D
C685   C689    1.506   .     S
C686   H375    1.083   .     S
C686   C687    1.417   .     S
C687   C688    1.408   .     D
C687   H376    1.082   .     S
C688   N190    1.447   .     S
C689   N125    1.368   .     D
C689   N161    1.365   .     S
N125   C832    1.365   .     S
C690   C691    1.406   .     S
C690   C692    1.414   .     D
C691   O63     1.387   .     D
C692   H377    1.084   .     S
O63    Ti9     1.947   .     S
N126   C864    1.447   .     S
N126   C759    1.308   .     D
C693   N180    1.308   .     D
C693   H378    1.083   .     S
C694   C695    1.400   .     D
C694   C699    1.402   .     S
C694   H379    1.082   .     S
C695   H380    1.083   .     S
C695   C696    1.406   .     S
C696   C700    1.506   .     S
C696   C697    1.417   .     D
C697   C698    1.417   .     S
C697   H381    1.083   .     S
C698   H382    1.082   .     S
C698   C699    1.408   .     D
C699   N192    1.447   .     S
C700   N163    1.365   .     S
C700   N127    1.368   .     D
N127   C821    1.365   .     S
C701   C702    1.406   .     S
C701   C703    1.414   .     D
C702   O64     1.387   .     D
C703   H383    1.084   .     S
O64    Ti7     1.947   .     S
N128   C770    1.308   .     D
N128   C875    1.447   .     S
C704   H384    1.083   .     S
C704   N178    1.308   .     D
C705   H385    1.082   .     S
C705   C706    1.400   .     S
C705   C710    1.402   .     D
C706   H386    1.083   .     S
C706   C707    1.406   .     D
C707   C708    1.417   .     S
C707   C711    1.506   .     S
C708   H387    1.083   .     S
C708   C709    1.417   .     D
C709   H388    1.082   .     S
C709   C710    1.408   .     S
C711   N129    1.368   .     S
N129   C1052   1.365   .     D
C712   C714    1.414   .     D
C712   C713    1.406   .     S
C713   O65     1.387   .     D
C714   H389    1.084   .     S
O65    Ti10    1.947   .     S
N130   C902    1.308   .     D
N130   C974    1.447   .     S
C715   H390    1.083   .     S
C716   C721    1.402   .     S
C716   C717    1.400   .     D
C716   H391    1.082   .     S
C717   C718    1.406   .     S
C717   H392    1.083   .     S
C718   C719    1.417   .     D
C718   C722    1.506   .     S
C719   H393    1.083   .     S
C719   C720    1.417   .     S
C720   C721    1.408   .     D
C720   H394    1.082   .     S
C722   N131    1.368   .     S
N131   C1041   1.365   .     D
C723   C724    1.406   .     S
C723   C725    1.414   .     D
C724   O66     1.387   .     D
C725   H395    1.084   .     S
O66    Ti2     1.947   .     S
N132   C985    1.447   .     S
N132   C891    1.308   .     D
C726   H396    1.083   .     S
C727   C728    1.400   .     S
C727   C732    1.402   .     D
C727   H397    1.082   .     S
C728   C729    1.406   .     D
C728   H398    1.083   .     S
C729   C730    1.417   .     S
C729   C733    1.506   .     S
C730   C731    1.417   .     D
C730   H399    1.083   .     S
C731   C732    1.408   .     S
C731   H400    1.082   .     S
C733   N133    1.368   .     D
N133   C1030   1.365   .     S
C734   C735    1.406   .     S
C734   C736    1.414   .     D
C735   O67     1.387   .     D
C736   H401    1.084   .     S
O67    Ti11    1.947   .     S
N134   C924    1.308   .     D
N134   C996    1.447   .     S
C737   H402    1.083   .     S
C738   C739    1.400   .     D
C738   H403    1.082   .     S
C738   C743    1.402   .     S
C739   C740    1.406   .     S
C739   H404    1.083   .     S
C740   C744    1.506   .     S
C740   C741    1.417   .     D
C741   H405    1.083   .     S
C741   C742    1.417   .     S
C742   C743    1.408   .     D
C742   H406    1.082   .     S
C744   N135    1.368   .     D
N135   C1019   1.365   .     S
C745   C747    1.414   .     D
C745   C746    1.406   .     S
C746   O68     1.387   .     D
C747   H407    1.084   .     S
O68    Ti3     1.947   .     S
N136   C913    1.308   .     D
N136   C1007   1.447   .     S
C748   H408    1.083   .     S
C749   C754    1.402   .     S
C749   C750    1.400   .     D
C749   H409    1.082   .     S
C750   C751    1.406   .     S
C750   H410    1.083   .     S
C751   C755    1.506   .     S
C751   C752    1.417   .     D
C752   C753    1.417   .     S
C752   H411    1.083   .     S
C753   H412    1.082   .     S
C753   C754    1.408   .     D
C755   N137    1.368   .     S
N137   C964    1.365   .     D
C756   C757    1.406   .     S
C756   C758    1.414   .     D
C757   O69     1.387   .     D
C758   H413    1.084   .     S
O69    Ti9     1.947   .     S
N138   C886    1.447   .     S
N138   C990    1.308   .     D
C759   H414    1.083   .     S
C760   C761    1.400   .     S
C760   H415    1.082   .     S
C760   C765    1.402   .     D
C761   H416    1.083   .     S
C761   C762    1.406   .     D
C762   C763    1.417   .     S
C762   C766    1.506   .     S
C763   H417    1.083   .     S
C763   C764    1.417   .     D
C764   H418    1.082   .     S
C764   C765    1.408   .     S
C766   N139    1.368   .     S
N139   C953    1.365   .     D
C767   C769    1.414   .     D
C767   C768    1.406   .     S
C768   O70     1.387   .     D
C769   H419    1.084   .     S
O70    Ti7     1.947   .     S
N140   C979    1.308   .     D
N140   C897    1.447   .     S
C770   H420    1.083   .     S
C771   C772    1.400   .     D
C771   H421    1.082   .     S
C771   C776    1.402   .     S
C772   C773    1.406   .     S
C772   H422    1.083   .     S
C773   C774    1.417   .     D
C773   C777    1.506   .     S
C774   H423    1.083   .     S
C774   C775    1.417   .     S
C775   C776    1.408   .     D
C775   H424    1.082   .     S
C777   N141    1.368   .     D
N141   C942    1.365   .     S
C778   C780    1.414   .     D
C778   C779    1.406   .     S
C779   O71     1.387   .     D
C780   H425    1.084   .     S
O71    Ti15    1.947   .     S
N142   C1012   1.308   .     D
N142   C908    1.447   .     S
C781   H426    1.083   .     S
C782   C787    1.402   .     D
C782   C783    1.400   .     S
C782   H427    1.082   .     S
C783   H428    1.083   .     S
C783   C784    1.406   .     D
C784   C788    1.506   .     S
C784   C785    1.417   .     S
C785   H429    1.083   .     S
C785   C786    1.417   .     D
C786   H430    1.082   .     S
C786   C787    1.408   .     S
C788   N143    1.368   .     D
N143   C931    1.365   .     S
C789   C790    1.406   .     S
C789   C791    1.414   .     D
C790   O72     1.387   .     D
C791   H431    1.084   .     S
O72    Ti16    1.947   .     S
N144   C919    1.447   .     S
N144   C1001   1.308   .     D
C792   H432    1.083   .     S
C793   C794    1.400   .     S
C793   H433    1.082   .     S
C793   C798    1.402   .     D
C794   C795    1.406   .     D
C794   H434    1.083   .     S
C795   C796    1.417   .     S
C795   C799    1.506   .     S
C796   H435    1.083   .     S
C796   C797    1.417   .     D
C797   C798    1.408   .     S
C797   H436    1.082   .     S
C799   N145    1.368   .     S
N145   C920    1.365   .     D
C800   C801    1.406   .     S
C800   C802    1.414   .     D
C801   O73     1.387   .     D
C802   H437    1.084   .     S
O73    Ti8     1.947   .     S
N146   C930    1.447   .     S
N146   C1034   1.308   .     D
C803   H438    1.083   .     S
C804   C805    1.400   .     S
C804   H439    1.082   .     S
C804   C809    1.402   .     D
C805   H440    1.083   .     S
C805   C806    1.406   .     D
C806   C810    1.506   .     S
C806   C807    1.417   .     S
C807   H441    1.083   .     S
C807   C808    1.417   .     D
C808   H442    1.082   .     S
C808   C809    1.408   .     S
C810   N147    1.368   .     S
N147   C909    1.365   .     D
C811   C813    1.414   .     D
C811   C812    1.406   .     S
C812   O74     1.387   .     D
C813   H443    1.084   .     S
O74    Ti1     1.947   .     S
N148   C1023   1.308   .     D
N148   C941    1.447   .     S
C814   H444    1.083   .     S
C815   C816    1.400   .     D
C815   H445    1.082   .     S
C815   C820    1.402   .     S
C816   H446    1.083   .     S
C816   C817    1.406   .     S
C817   C818    1.417   .     D
C817   C821    1.506   .     S
C818   H447    1.083   .     S
C818   C819    1.417   .     S
C819   H448    1.082   .     S
C819   C820    1.408   .     D
C821   N149    1.368   .     D
N149   C898    1.365   .     S
C822   C824    1.414   .     D
C822   C823    1.406   .     S
C823   O75     1.387   .     D
C824   H449    1.084   .     S
O75    Ti13    1.947   .     S
N150   C1056   1.308   .     D
N150   C952    1.447   .     S
C825   H450    1.083   .     S
C826   C827    1.400   .     S
C826   C831    1.402   .     D
C826   H451    1.082   .     S
C827   C828    1.406   .     D
C827   H452    1.083   .     S
C828   C829    1.417   .     S
C828   C832    1.506   .     S
C829   C830    1.417   .     D
C829   H453    1.083   .     S
C830   C831    1.408   .     S
C830   H454    1.082   .     S
C832   N151    1.368   .     D
N151   C887    1.365   .     S
C833   C834    1.406   .     S
C833   C835    1.414   .     D
C834   O76     1.387   .     D
C835   H455    1.084   .     S
O76    Ti14    1.947   .     S
N152   C1045   1.308   .     D
N152   C963    1.447   .     S
C836   H456    1.083   .     S
C837   C838    1.400   .     S
C837   H457    1.082   .     S
C837   C842    1.402   .     D
C838   H458    1.083   .     S
C838   C839    1.406   .     D
C839   C843    1.506   .     S
C839   C840    1.417   .     S
C840   H459    1.083   .     S
C840   C841    1.417   .     D
C841   H460    1.082   .     S
C841   C842    1.408   .     S
C843   N153    1.368   .     S
N153   C1008   1.365   .     D
C844   C846    1.414   .     D
C844   C845    1.406   .     S
C845   O77     1.387   .     D
C846   H461    1.084   .     S
O77    Ti5     1.947   .     S
N154   C946    1.308   .     D
N154   C1018   1.447   .     S
C847   H462    1.083   .     S
C848   C853    1.402   .     S
C848   C849    1.400   .     D
C848   H463    1.082   .     S
C849   H464    1.083   .     S
C849   C850    1.406   .     S
C850   C854    1.506   .     S
C850   C851    1.417   .     D
C851   C852    1.417   .     S
C851   H465    1.083   .     S
C852   C853    1.408   .     D
C852   H466    1.082   .     S
C854   N155    1.368   .     S
N155   C997    1.365   .     D
C855   C856    1.406   .     S
C855   C857    1.414   .     D
C856   O78     1.387   .     D
C857   H467    1.084   .     S
O78    Ti4     1.947   .     S
N156   C935    1.308   .     D
N156   C1029   1.447   .     S
C858   H468    1.083   .     S
C859   C864    1.402   .     D
C859   H469    1.082   .     S
C859   C860    1.400   .     S
C860   C861    1.406   .     D
C860   H470    1.083   .     S
C861   C865    1.506   .     S
C861   C862    1.417   .     S
C862   H471    1.083   .     S
C862   C863    1.417   .     D
C863   H472    1.082   .     S
C863   C864    1.408   .     S
C865   N157    1.368   .     D
N157   C986    1.365   .     S
C866   C867    1.406   .     S
C866   C868    1.414   .     D
C867   O79     1.387   .     D
C868   H473    1.084   .     S
O79    Ti6     1.947   .     S
N158   C968    1.308   .     D
N158   C1040   1.447   .     S
C869   H474    1.083   .     S
C870   H475    1.082   .     S
C870   C871    1.400   .     D
C870   C875    1.402   .     S
C871   H476    1.083   .     S
C871   C872    1.406   .     S
C872   C873    1.417   .     D
C872   C876    1.506   .     S
C873   H477    1.083   .     S
C873   C874    1.417   .     S
C874   C875    1.408   .     D
C874   H478    1.082   .     S
C876   N159    1.368   .     D
N159   C975    1.365   .     S
C877   C879    1.414   .     D
C877   C878    1.406   .     S
C878   O80     1.387   .     D
C879   H479    1.084   .     S
O80    Ti12    1.947   .     S
N160   C957    1.308   .     D
N160   C1051   1.447   .     S
C880   H480    1.083   .     S
C881   C882    1.400   .     S
C881   C886    1.402   .     D
C881   H481    1.082   .     S
C882   C883    1.406   .     D
C882   H482    1.083   .     S
C883   C884    1.417   .     S
C883   C887    1.506   .     S
C884   C885    1.417   .     D
C884   H483    1.083   .     S
C885   H484    1.082   .     S
C885   C886    1.408   .     S
C887   N161    1.368   .     D
C888   C889    1.406   .     S
C888   C890    1.414   .     D
C889   O81     1.387   .     D
C890   H485    1.084   .     S
O81    Ti2     1.947   .     S
C891   H486    1.083   .     S
C892   C893    1.400   .     S
C892   H487    1.082   .     S
C892   C897    1.402   .     D
C893   H488    1.083   .     S
C893   C894    1.406   .     D
C894   C895    1.417   .     S
C894   C898    1.506   .     S
C895   H489    1.083   .     S
C895   C896    1.417   .     D
C896   C897    1.408   .     S
C896   H490    1.082   .     S
C898   N163    1.368   .     D
C899   C901    1.414   .     D
C899   C900    1.406   .     S
C900   O82     1.387   .     D
C901   H491    1.084   .     S
O82    Ti10    1.947   .     S
C902   H492    1.083   .     S
C903   C908    1.402   .     D
C903   C904    1.400   .     S
C903   H493    1.082   .     S
C904   H494    1.083   .     S
C904   C905    1.406   .     D
C905   C909    1.506   .     S
C905   C906    1.417   .     S
C906   H495    1.083   .     S
C906   C907    1.417   .     D
C907   H496    1.082   .     S
C907   C908    1.408   .     S
C909   N165    1.368   .     S
C910   C911    1.406   .     S
C910   C912    1.414   .     D
C911   O83     1.387   .     D
C912   H497    1.084   .     S
O83    Ti3     1.947   .     S
C913   H498    1.083   .     S
C914   C915    1.400   .     S
C914   C919    1.402   .     D
C914   H499    1.082   .     S
C915   H500    1.083   .     S
C915   C916    1.406   .     D
C916   C917    1.417   .     S
C916   C920    1.506   .     S
C917   H501    1.083   .     S
C917   C918    1.417   .     D
C918   H502    1.082   .     S
C918   C919    1.408   .     S
C920   N167    1.368   .     S
C921   C923    1.414   .     D
C921   C922    1.406   .     S
C922   O84     1.387   .     D
C923   H503    1.084   .     S
O84    Ti11    1.947   .     S
C924   H504    1.083   .     S
C925   H505    1.082   .     S
C925   C930    1.402   .     D
C925   C926    1.400   .     S
C926   H506    1.083   .     S
C926   C927    1.406   .     D
C927   C928    1.417   .     S
C927   C931    1.506   .     S
C928   H507    1.083   .     S
C928   C929    1.417   .     D
C929   H508    1.082   .     S
C929   C930    1.408   .     S
C931   N169    1.368   .     D
C932   C934    1.414   .     D
C932   C933    1.406   .     S
C933   O85     1.387   .     D
C934   H509    1.084   .     S
O85    Ti4     1.947   .     S
C935   H510    1.083   .     S
C936   C937    1.400   .     S
C936   C941    1.402   .     D
C936   H511    1.082   .     S
C937   H512    1.083   .     S
C937   C938    1.406   .     D
C938   C942    1.506   .     S
C938   C939    1.417   .     S
C939   C940    1.417   .     D
C939   H513    1.083   .     S
C940   C941    1.408   .     S
C940   H514    1.082   .     S
C942   N171    1.368   .     D
C943   C944    1.406   .     S
C943   C945    1.414   .     D
C944   O86     1.387   .     D
C945   H515    1.084   .     S
O86    Ti5     1.947   .     S
C946   H516    1.083   .     S
C947   C948    1.400   .     S
C947   H517    1.082   .     S
C947   C952    1.402   .     D
C948   H518    1.083   .     S
C948   C949    1.406   .     D
C949   C953    1.506   .     S
C949   C950    1.417   .     S
C950   C951    1.417   .     D
C950   H519    1.083   .     S
C951   C952    1.408   .     S
C951   H520    1.082   .     S
C953   N173    1.368   .     S
C954   C956    1.414   .     D
C954   C955    1.406   .     S
C955   O87     1.387   .     D
C956   H521    1.084   .     S
O87    Ti12    1.947   .     S
C957   H522    1.083   .     S
C958   C963    1.402   .     D
C958   H523    1.082   .     S
C958   C959    1.400   .     S
C959   C960    1.406   .     D
C959   H524    1.083   .     S
C960   C961    1.417   .     S
C960   C964    1.506   .     S
C961   H525    1.083   .     S
C961   C962    1.417   .     D
C962   C963    1.408   .     S
C962   H526    1.082   .     S
C964   N175    1.368   .     S
C965   C966    1.406   .     S
C965   C967    1.414   .     D
C966   O88     1.387   .     D
C967   H527    1.084   .     S
O88    Ti6     1.947   .     S
C968   H528    1.083   .     S
C969   C970    1.400   .     S
C969   H529    1.082   .     S
C969   C974    1.402   .     D
C970   H530    1.083   .     S
C970   C971    1.406   .     D
C971   C975    1.506   .     S
C971   C972    1.417   .     S
C972   C973    1.417   .     D
C972   H531    1.083   .     S
C973   H532    1.082   .     S
C973   C974    1.408   .     S
C975   N177    1.368   .     D
C976   C978    1.414   .     D
C976   C977    1.406   .     S
C977   O89     1.387   .     D
C978   H533    1.084   .     S
O89    Ti7     1.947   .     S
C979   H534    1.083   .     S
C980   C985    1.402   .     D
C980   H535    1.082   .     S
C980   C981    1.400   .     S
C981   C982    1.406   .     D
C981   H536    1.083   .     S
C982   C986    1.506   .     S
C982   C983    1.417   .     S
C983   H537    1.083   .     S
C983   C984    1.417   .     D
C984   H538    1.082   .     S
C984   C985    1.408   .     S
C986   N179    1.368   .     D
C987   C988    1.406   .     S
C987   C989    1.414   .     D
C988   O90     1.387   .     D
C989   H539    1.084   .     S
O90    Ti9     1.947   .     S
C990   H540    1.083   .     S
C991   H541    1.082   .     S
C991   C996    1.402   .     D
C991   C992    1.400   .     S
C992   H542    1.083   .     S
C992   C993    1.406   .     D
C993   C994    1.417   .     S
C993   C997    1.506   .     S
C994   H543    1.083   .     S
C994   C995    1.417   .     D
C995   C996    1.408   .     S
C995   H544    1.082   .     S
C997   N181    1.368   .     S
C998   C1000   1.414   .     D
C998   C999    1.406   .     S
C999   O91     1.387   .     D
C1000  H545    1.084   .     S
O91    Ti16    1.947   .     S
C1001  H546    1.083   .     S
C1002  C1007   1.402   .     S
C1002  C1003   1.400   .     D
C1002  H547    1.082   .     S
C1003  H548    1.083   .     S
C1003  C1004   1.406   .     S
C1004  C1008   1.506   .     S
C1004  C1005   1.417   .     D
C1005  C1006   1.417   .     S
C1005  H549    1.083   .     S
C1006  C1007   1.408   .     D
C1006  H550    1.082   .     S
C1008  N183    1.368   .     S
C1009  C1010   1.406   .     S
C1009  C1011   1.414   .     D
C1010  O92     1.387   .     D
C1011  H551    1.084   .     S
O92    Ti15    1.947   .     S
C1012  H552    1.083   .     S
C1013  C1014   1.400   .     S
C1013  H553    1.082   .     S
C1013  C1018   1.402   .     D
C1014  H554    1.083   .     S
C1014  C1015   1.406   .     D
C1015  C1016   1.417   .     S
C1015  C1019   1.506   .     S
C1016  H555    1.083   .     S
C1016  C1017   1.417   .     D
C1017  C1018   1.408   .     S
C1017  H556    1.082   .     S
C1019  N185    1.368   .     D
C1020  C1021   1.406   .     S
C1020  C1022   1.414   .     D
C1021  O93     1.387   .     D
C1022  H557    1.084   .     S
O93    Ti1     1.947   .     S
C1023  H558    1.083   .     S
C1024  C1025   1.400   .     S
C1024  H559    1.082   .     S
C1024  C1029   1.402   .     D
C1025  H560    1.083   .     S
C1025  C1026   1.406   .     D
C1026  C1027   1.417   .     S
C1026  C1030   1.506   .     S
C1027  H561    1.083   .     S
C1027  C1028   1.417   .     D
C1028  H562    1.082   .     S
C1028  C1029   1.408   .     S
C1030  N187    1.368   .     D
C1031  C1033   1.414   .     D
C1031  C1032   1.406   .     S
C1032  O94     1.387   .     D
C1033  H563    1.084   .     S
O94    Ti8     1.947   .     S
C1034  H564    1.083   .     S
C1035  C1036   1.400   .     S
C1035  C1040   1.402   .     D
C1035  H565    1.082   .     S
C1036  C1037   1.406   .     D
C1036  H566    1.083   .     S
C1037  C1038   1.417   .     S
C1037  C1041   1.506   .     S
C1038  C1039   1.417   .     D
C1038  H567    1.083   .     S
C1039  H568    1.082   .     S
C1039  C1040   1.408   .     S
C1041  N189    1.368   .     S
C1042  C1043   1.406   .     S
C1042  C1044   1.414   .     D
C1043  O95     1.387   .     D
C1044  H569    1.084   .     S
O95    Ti14    1.947   .     S
C1045  H570    1.083   .     S
C1046  C1047   1.400   .     S
C1046  H571    1.082   .     S
C1046  C1051   1.402   .     D
C1047  H572    1.083   .     S
C1047  C1048   1.406   .     D
C1048  C1052   1.506   .     S
C1048  C1049   1.417   .     S
C1049  H573    1.083   .     S
C1049  C1050   1.417   .     D
C1050  H574    1.082   .     S
C1050  C1051   1.408   .     S
C1052  N191    1.368   .     S
C1053  C1055   1.414   .     D
C1053  C1054   1.406   .     S
C1054  O96     1.387   .     D
C1055  H575    1.084   .     S
O96    Ti13    1.947   .     S
C1056  H576    1.083   .     S
