data_832
_audit_creation_date              2023-09-08
_audit_creation_method            'Materials Studio'
_symmetry_space_group_name_H-M    'P1'
_symmetry_Int_Tables_number       1
_symmetry_cell_setting            triclinic
loop_
_symmetry_equiv_pos_as_xyz
  x,y,z
_cell_length_a                    30.2446
_cell_length_b                    28.5244
_cell_length_c                    41.1578
_cell_angle_alpha                 90.0000
_cell_angle_beta                  90.0000
_cell_angle_gamma                 90.0000
loop_
_atom_site_label
_atom_site_type_symbol
_atom_site_fract_x
_atom_site_fract_y
_atom_site_fract_z
_atom_site_U_iso_or_equiv
_atom_site_adp_type
_atom_site_occupancy
C1     C     0.54004   0.23629   0.33856   0.00000  Uiso   1.00
C2     C     0.54005   0.19706   0.31820   0.00000  Uiso   1.00
C3     C     0.31581   0.95753   0.15802   0.00000  Uiso   1.00
C4     C     0.27826   0.95755   0.13823   0.00000  Uiso   1.00
H5     H     0.57271   0.25220   0.34688   0.00000  Uiso   1.00
H6     H     0.57269   0.18111   0.30987   0.00000  Uiso   1.00
H7     H     0.33114   0.92287   0.16597   0.00000  Uiso   1.00
H8     H     0.26302   0.92294   0.13007   0.00000  Uiso   1.00
C9     C     0.45996   0.76371   0.33856   0.00000  Uiso   1.00
C10    C     0.45995   0.80294   0.31820   0.00000  Uiso   1.00
C11    C     0.68419   0.04247   0.15802   0.00000  Uiso   1.00
C12    C     0.72174   0.04245   0.13823   0.00000  Uiso   1.00
H13    H     0.42729   0.74780   0.34688   0.00000  Uiso   1.00
H14    H     0.42731   0.81889   0.30987   0.00000  Uiso   1.00
H15    H     0.66886   0.07713   0.16597   0.00000  Uiso   1.00
H16    H     0.73698   0.07706   0.13007   0.00000  Uiso   1.00
C17    C     0.45996   0.23629   0.66144   0.00000  Uiso   1.00
C18    C     0.45995   0.19706   0.68180   0.00000  Uiso   1.00
C19    C     0.68419   0.95753   0.84198   0.00000  Uiso   1.00
C20    C     0.72174   0.95755   0.86177   0.00000  Uiso   1.00
H21    H     0.42729   0.25220   0.65312   0.00000  Uiso   1.00
H22    H     0.42731   0.18111   0.69013   0.00000  Uiso   1.00
H23    H     0.66886   0.92287   0.83403   0.00000  Uiso   1.00
H24    H     0.73698   0.92294   0.86993   0.00000  Uiso   1.00
C25    C     0.54004   0.76371   0.66144   0.00000  Uiso   1.00
C26    C     0.54005   0.80294   0.68180   0.00000  Uiso   1.00
C27    C     0.31581   0.04247   0.84198   0.00000  Uiso   1.00
C28    C     0.27826   0.04245   0.86177   0.00000  Uiso   1.00
H29    H     0.57271   0.74780   0.65312   0.00000  Uiso   1.00
H30    H     0.57269   0.81889   0.69013   0.00000  Uiso   1.00
H31    H     0.33114   0.07713   0.83403   0.00000  Uiso   1.00
H32    H     0.26302   0.07706   0.86993   0.00000  Uiso   1.00
C33    C     0.50000   0.52521   0.46945   0.00000  Uiso   1.00
C34    C     0.50000   0.55965   0.44141   0.00000  Uiso   1.00
C35    C     0.50000   0.64203   0.42413   0.00000  Uiso   1.00
C36    C     0.50000   0.62858   0.39150   0.00000  Uiso   1.00
C37    C     0.50000   0.86698   0.29013   0.00000  Uiso   1.00
C38    C     0.50000   0.86783   0.25617   0.00000  Uiso   1.00
C39    C     0.50000   0.90905   0.30743   0.00000  Uiso   1.00
C40    C     0.50000   0.91080   0.23974   0.00000  Uiso   1.00
C41    C     0.50000   0.95170   0.29093   0.00000  Uiso   1.00
C42    C     0.50000   0.95369   0.25684   0.00000  Uiso   1.00
C43    C     0.50000   0.39187   0.44850   0.00000  Uiso   1.00
C44    C     0.50000   0.41905   0.38374   0.00000  Uiso   1.00
C45    C     0.50000   0.54728   0.40852   0.00000  Uiso   1.00
C46    C     0.50000   0.25603   0.34874   0.00000  Uiso   1.00
C47    C     0.50000   0.17731   0.30801   0.00000  Uiso   1.00
C48    C     0.50000   0.66398   0.36560   0.00000  Uiso   1.00
N49    N     0.50000   0.70814   0.37283   0.00000  Uiso   1.00
C50    C     0.50000   0.52521   0.53055   0.00000  Uiso   1.00
C51    C     0.50000   0.55965   0.55859   0.00000  Uiso   1.00
C52    C     0.50000   0.64203   0.57587   0.00000  Uiso   1.00
C53    C     0.50000   0.62858   0.60850   0.00000  Uiso   1.00
C54    C     0.50000   0.86698   0.70987   0.00000  Uiso   1.00
C55    C     0.50000   0.86783   0.74383   0.00000  Uiso   1.00
C56    C     0.50000   0.90905   0.69257   0.00000  Uiso   1.00
C57    C     0.50000   0.91080   0.76026   0.00000  Uiso   1.00
C58    C     0.50000   0.95170   0.70907   0.00000  Uiso   1.00
C59    C     0.50000   0.95369   0.74316   0.00000  Uiso   1.00
C60    C     0.50000   0.39187   0.55150   0.00000  Uiso   1.00
C61    C     0.50000   0.41905   0.61626   0.00000  Uiso   1.00
C62    C     0.50000   0.54728   0.59148   0.00000  Uiso   1.00
C63    C     0.50000   0.25603   0.65126   0.00000  Uiso   1.00
C64    C     0.50000   0.17731   0.69199   0.00000  Uiso   1.00
C65    C     0.50000   0.66398   0.63440   0.00000  Uiso   1.00
N66    N     0.50000   0.70814   0.62717   0.00000  Uiso   1.00
C67    C     0.50000   0.45283   0.50000   0.00000  Uiso   1.00
H68    H     0.50000   0.68080   0.43086   0.00000  Uiso   1.00
H69    H     0.50000   0.83357   0.24191   0.00000  Uiso   1.00
H70    H     0.50000   0.90857   0.33513   0.00000  Uiso   1.00
H71    H     0.50000   0.91158   0.21205   0.00000  Uiso   1.00
H72    H     0.50000   0.98602   0.30513   0.00000  Uiso   1.00
H73    H     0.50000   0.38082   0.47512   0.00000  Uiso   1.00
H74    H     0.50000   0.43058   0.35722   0.00000  Uiso   1.00
H75    H     0.50000   0.50838   0.40215   0.00000  Uiso   1.00
H76    H     0.50000   0.65260   0.33905   0.00000  Uiso   1.00
H77    H     0.50000   0.68080   0.56914   0.00000  Uiso   1.00
H78    H     0.50000   0.83357   0.75809   0.00000  Uiso   1.00
H79    H     0.50000   0.90857   0.66487   0.00000  Uiso   1.00
H80    H     0.50000   0.91158   0.78795   0.00000  Uiso   1.00
H81    H     0.50000   0.98602   0.69487   0.00000  Uiso   1.00
H82    H     0.50000   0.38082   0.52488   0.00000  Uiso   1.00
H83    H     0.50000   0.43058   0.64278   0.00000  Uiso   1.00
H84    H     0.50000   0.50838   0.59785   0.00000  Uiso   1.00
H85    H     0.50000   0.65260   0.66095   0.00000  Uiso   1.00
H86    H     0.50000   0.41294   0.49830   0.00000  Uiso   1.00
C87    C     0.04004   0.73629   0.33856   0.00000  Uiso   1.00
C88    C     0.04005   0.69706   0.31820   0.00000  Uiso   1.00
C89    C     0.81581   0.45753   0.15802   0.00000  Uiso   1.00
C90    C     0.77826   0.45755   0.13823   0.00000  Uiso   1.00
H91    H     0.07271   0.75220   0.34688   0.00000  Uiso   1.00
H92    H     0.07269   0.68111   0.30987   0.00000  Uiso   1.00
H93    H     0.83114   0.42287   0.16597   0.00000  Uiso   1.00
H94    H     0.76302   0.42294   0.13007   0.00000  Uiso   1.00
C95    C     0.95996   0.26371   0.33856   0.00000  Uiso   1.00
C96    C     0.95995   0.30294   0.31820   0.00000  Uiso   1.00
C97    C     0.18419   0.54247   0.15802   0.00000  Uiso   1.00
C98    C     0.22174   0.54245   0.13823   0.00000  Uiso   1.00
H99    H     0.92729   0.24780   0.34688   0.00000  Uiso   1.00
H100   H     0.92731   0.31889   0.30987   0.00000  Uiso   1.00
H101   H     0.16886   0.57713   0.16597   0.00000  Uiso   1.00
H102   H     0.23698   0.57706   0.13007   0.00000  Uiso   1.00
C103   C     0.95996   0.73629   0.66144   0.00000  Uiso   1.00
C104   C     0.95995   0.69706   0.68180   0.00000  Uiso   1.00
C105   C     0.18419   0.45753   0.84198   0.00000  Uiso   1.00
C106   C     0.22174   0.45755   0.86177   0.00000  Uiso   1.00
H107   H     0.92729   0.75220   0.65312   0.00000  Uiso   1.00
H108   H     0.92731   0.68111   0.69013   0.00000  Uiso   1.00
H109   H     0.16886   0.42287   0.83403   0.00000  Uiso   1.00
H110   H     0.23698   0.42294   0.86993   0.00000  Uiso   1.00
C111   C     0.04004   0.26371   0.66144   0.00000  Uiso   1.00
C112   C     0.04005   0.30294   0.68180   0.00000  Uiso   1.00
C113   C     0.81581   0.54247   0.84198   0.00000  Uiso   1.00
C114   C     0.77826   0.54245   0.86177   0.00000  Uiso   1.00
H115   H     0.07271   0.24780   0.65312   0.00000  Uiso   1.00
H116   H     0.07269   0.31889   0.69013   0.00000  Uiso   1.00
H117   H     0.83114   0.57713   0.83403   0.00000  Uiso   1.00
H118   H     0.76302   0.57706   0.86993   0.00000  Uiso   1.00
C119   C     0.00000   0.02521   0.46945   0.00000  Uiso   1.00
C120   C     0.00000   0.05965   0.44141   0.00000  Uiso   1.00
C121   C     0.00000   0.14203   0.42413   0.00000  Uiso   1.00
C122   C     0.00000   0.12858   0.39150   0.00000  Uiso   1.00
C123   C     0.00000   0.36698   0.29013   0.00000  Uiso   1.00
C124   C     0.00000   0.36783   0.25617   0.00000  Uiso   1.00
C125   C     0.00000   0.40905   0.30743   0.00000  Uiso   1.00
C126   C     0.00000   0.41080   0.23974   0.00000  Uiso   1.00
C127   C     0.00000   0.45170   0.29093   0.00000  Uiso   1.00
C128   C     0.00000   0.45369   0.25684   0.00000  Uiso   1.00
C129   C     0.00000   0.89187   0.44850   0.00000  Uiso   1.00
C130   C     0.00000   0.91905   0.38374   0.00000  Uiso   1.00
C131   C     0.00000   0.04728   0.40852   0.00000  Uiso   1.00
C132   C     0.00000   0.75603   0.34874   0.00000  Uiso   1.00
C133   C     0.00000   0.67731   0.30801   0.00000  Uiso   1.00
C134   C     0.00000   0.16398   0.36560   0.00000  Uiso   1.00
N135   N     0.00000   0.20814   0.37283   0.00000  Uiso   1.00
C136   C     0.00000   0.02521   0.53055   0.00000  Uiso   1.00
C137   C     0.00000   0.05965   0.55859   0.00000  Uiso   1.00
C138   C     0.00000   0.14203   0.57587   0.00000  Uiso   1.00
C139   C     0.00000   0.12858   0.60850   0.00000  Uiso   1.00
C140   C     0.00000   0.36698   0.70987   0.00000  Uiso   1.00
C141   C     0.00000   0.36783   0.74383   0.00000  Uiso   1.00
C142   C     0.00000   0.40905   0.69257   0.00000  Uiso   1.00
C143   C     0.00000   0.41080   0.76026   0.00000  Uiso   1.00
C144   C     0.00000   0.45170   0.70907   0.00000  Uiso   1.00
C145   C     0.00000   0.45369   0.74316   0.00000  Uiso   1.00
C146   C     0.00000   0.89187   0.55150   0.00000  Uiso   1.00
C147   C     0.00000   0.91905   0.61626   0.00000  Uiso   1.00
C148   C     0.00000   0.04728   0.59148   0.00000  Uiso   1.00
C149   C     0.00000   0.75603   0.65126   0.00000  Uiso   1.00
C150   C     0.00000   0.67731   0.69199   0.00000  Uiso   1.00
C151   C     0.00000   0.16398   0.63440   0.00000  Uiso   1.00
N152   N     0.00000   0.20814   0.62717   0.00000  Uiso   1.00
C153   C     0.00000   0.95283   0.50000   0.00000  Uiso   1.00
H154   H     0.00000   0.18080   0.43086   0.00000  Uiso   1.00
H155   H     0.00000   0.33357   0.24191   0.00000  Uiso   1.00
H156   H     0.00000   0.40857   0.33513   0.00000  Uiso   1.00
H157   H     0.00000   0.41158   0.21205   0.00000  Uiso   1.00
H158   H     0.00000   0.48602   0.30513   0.00000  Uiso   1.00
H159   H     0.00000   0.88082   0.47512   0.00000  Uiso   1.00
H160   H     0.00000   0.93058   0.35722   0.00000  Uiso   1.00
H161   H     0.00000   0.00838   0.40215   0.00000  Uiso   1.00
H162   H     0.00000   0.15260   0.33905   0.00000  Uiso   1.00
H163   H     0.00000   0.18080   0.56914   0.00000  Uiso   1.00
H164   H     0.00000   0.33357   0.75809   0.00000  Uiso   1.00
H165   H     0.00000   0.40857   0.66487   0.00000  Uiso   1.00
H166   H     0.00000   0.41158   0.78795   0.00000  Uiso   1.00
H167   H     0.00000   0.48602   0.69487   0.00000  Uiso   1.00
H168   H     0.00000   0.88082   0.52488   0.00000  Uiso   1.00
H169   H     0.00000   0.93058   0.64278   0.00000  Uiso   1.00
H170   H     0.00000   0.00838   0.59785   0.00000  Uiso   1.00
H171   H     0.00000   0.15260   0.66095   0.00000  Uiso   1.00
H172   H     0.00000   0.91294   0.49830   0.00000  Uiso   1.00
C173   C     0.54004   0.76371   0.33856   0.00000  Uiso   1.00
C174   C     0.54005   0.80294   0.31820   0.00000  Uiso   1.00
C175   C     0.31581   0.04247   0.15802   0.00000  Uiso   1.00
C176   C     0.27826   0.04245   0.13823   0.00000  Uiso   1.00
H177   H     0.57271   0.74780   0.34688   0.00000  Uiso   1.00
H178   H     0.57269   0.81889   0.30987   0.00000  Uiso   1.00
H179   H     0.33114   0.07713   0.16597   0.00000  Uiso   1.00
H180   H     0.26302   0.07706   0.13007   0.00000  Uiso   1.00
C181   C     0.45996   0.23629   0.33856   0.00000  Uiso   1.00
C182   C     0.45995   0.19706   0.31820   0.00000  Uiso   1.00
C183   C     0.68419   0.95753   0.15802   0.00000  Uiso   1.00
C184   C     0.72174   0.95755   0.13823   0.00000  Uiso   1.00
H185   H     0.42729   0.25220   0.34688   0.00000  Uiso   1.00
H186   H     0.42731   0.18111   0.30987   0.00000  Uiso   1.00
H187   H     0.66886   0.92287   0.16597   0.00000  Uiso   1.00
H188   H     0.73698   0.92294   0.13007   0.00000  Uiso   1.00
C189   C     0.45996   0.76371   0.66144   0.00000  Uiso   1.00
C190   C     0.45995   0.80294   0.68180   0.00000  Uiso   1.00
C191   C     0.68419   0.04247   0.84198   0.00000  Uiso   1.00
C192   C     0.72174   0.04245   0.86177   0.00000  Uiso   1.00
H193   H     0.42729   0.74780   0.65312   0.00000  Uiso   1.00
H194   H     0.42731   0.81889   0.69013   0.00000  Uiso   1.00
H195   H     0.66886   0.07713   0.83403   0.00000  Uiso   1.00
H196   H     0.73698   0.07706   0.86993   0.00000  Uiso   1.00
C197   C     0.54004   0.23629   0.66144   0.00000  Uiso   1.00
C198   C     0.54005   0.19706   0.68180   0.00000  Uiso   1.00
C199   C     0.31581   0.95753   0.84198   0.00000  Uiso   1.00
C200   C     0.27826   0.95755   0.86177   0.00000  Uiso   1.00
H201   H     0.57271   0.25220   0.65312   0.00000  Uiso   1.00
H202   H     0.57269   0.18111   0.69013   0.00000  Uiso   1.00
H203   H     0.33114   0.92287   0.83403   0.00000  Uiso   1.00
H204   H     0.26302   0.92294   0.86993   0.00000  Uiso   1.00
C205   C     0.50000   0.47479   0.46945   0.00000  Uiso   1.00
C206   C     0.50000   0.44035   0.44141   0.00000  Uiso   1.00
C207   C     0.50000   0.35797   0.42413   0.00000  Uiso   1.00
C208   C     0.50000   0.37142   0.39150   0.00000  Uiso   1.00
C209   C     0.50000   0.13302   0.29013   0.00000  Uiso   1.00
C210   C     0.50000   0.13217   0.25617   0.00000  Uiso   1.00
C211   C     0.50000   0.09095   0.30743   0.00000  Uiso   1.00
C212   C     0.50000   0.08920   0.23974   0.00000  Uiso   1.00
C213   C     0.50000   0.04830   0.29093   0.00000  Uiso   1.00
C214   C     0.50000   0.04631   0.25684   0.00000  Uiso   1.00
C215   C     0.50000   0.60813   0.44850   0.00000  Uiso   1.00
C216   C     0.50000   0.58095   0.38374   0.00000  Uiso   1.00
C217   C     0.50000   0.45272   0.40852   0.00000  Uiso   1.00
C218   C     0.50000   0.74397   0.34874   0.00000  Uiso   1.00
C219   C     0.50000   0.82269   0.30801   0.00000  Uiso   1.00
C220   C     0.50000   0.33602   0.36560   0.00000  Uiso   1.00
N221   N     0.50000   0.29186   0.37283   0.00000  Uiso   1.00
C222   C     0.50000   0.47479   0.53055   0.00000  Uiso   1.00
C223   C     0.50000   0.44035   0.55859   0.00000  Uiso   1.00
C224   C     0.50000   0.35797   0.57587   0.00000  Uiso   1.00
C225   C     0.50000   0.37142   0.60850   0.00000  Uiso   1.00
C226   C     0.50000   0.13302   0.70987   0.00000  Uiso   1.00
C227   C     0.50000   0.13217   0.74383   0.00000  Uiso   1.00
C228   C     0.50000   0.09095   0.69257   0.00000  Uiso   1.00
C229   C     0.50000   0.08920   0.76026   0.00000  Uiso   1.00
C230   C     0.50000   0.04830   0.70907   0.00000  Uiso   1.00
C231   C     0.50000   0.04631   0.74316   0.00000  Uiso   1.00
C232   C     0.50000   0.60813   0.55150   0.00000  Uiso   1.00
C233   C     0.50000   0.58095   0.61626   0.00000  Uiso   1.00
C234   C     0.50000   0.45272   0.59148   0.00000  Uiso   1.00
C235   C     0.50000   0.74397   0.65126   0.00000  Uiso   1.00
C236   C     0.50000   0.82269   0.69199   0.00000  Uiso   1.00
C237   C     0.50000   0.33602   0.63440   0.00000  Uiso   1.00
N238   N     0.50000   0.29186   0.62717   0.00000  Uiso   1.00
C239   C     0.50000   0.54717   0.50000   0.00000  Uiso   1.00
H240   H     0.50000   0.31920   0.43086   0.00000  Uiso   1.00
H241   H     0.50000   0.16643   0.24191   0.00000  Uiso   1.00
H242   H     0.50000   0.09143   0.33513   0.00000  Uiso   1.00
H243   H     0.50000   0.08842   0.21205   0.00000  Uiso   1.00
H244   H     0.50000   0.01398   0.30513   0.00000  Uiso   1.00
H245   H     0.50000   0.61918   0.47512   0.00000  Uiso   1.00
H246   H     0.50000   0.56942   0.35722   0.00000  Uiso   1.00
H247   H     0.50000   0.49162   0.40215   0.00000  Uiso   1.00
H248   H     0.50000   0.34740   0.33905   0.00000  Uiso   1.00
H249   H     0.50000   0.31920   0.56914   0.00000  Uiso   1.00
H250   H     0.50000   0.16643   0.75809   0.00000  Uiso   1.00
H251   H     0.50000   0.09143   0.66487   0.00000  Uiso   1.00
H252   H     0.50000   0.08842   0.78795   0.00000  Uiso   1.00
H253   H     0.50000   0.01398   0.69487   0.00000  Uiso   1.00
H254   H     0.50000   0.61918   0.52488   0.00000  Uiso   1.00
H255   H     0.50000   0.56942   0.64278   0.00000  Uiso   1.00
H256   H     0.50000   0.49162   0.59785   0.00000  Uiso   1.00
H257   H     0.50000   0.34740   0.66095   0.00000  Uiso   1.00
H258   H     0.50000   0.58706   0.49830   0.00000  Uiso   1.00
C259   C     0.04004   0.26371   0.33856   0.00000  Uiso   1.00
C260   C     0.04005   0.30294   0.31820   0.00000  Uiso   1.00
C261   C     0.81581   0.54247   0.15802   0.00000  Uiso   1.00
C262   C     0.77826   0.54245   0.13823   0.00000  Uiso   1.00
H263   H     0.07271   0.24780   0.34688   0.00000  Uiso   1.00
H264   H     0.07269   0.31889   0.30987   0.00000  Uiso   1.00
H265   H     0.83114   0.57713   0.16597   0.00000  Uiso   1.00
H266   H     0.76302   0.57706   0.13007   0.00000  Uiso   1.00
C267   C     0.95996   0.73629   0.33856   0.00000  Uiso   1.00
C268   C     0.95995   0.69706   0.31820   0.00000  Uiso   1.00
C269   C     0.18419   0.45753   0.15802   0.00000  Uiso   1.00
C270   C     0.22174   0.45755   0.13823   0.00000  Uiso   1.00
H271   H     0.92729   0.75220   0.34688   0.00000  Uiso   1.00
H272   H     0.92731   0.68111   0.30987   0.00000  Uiso   1.00
H273   H     0.16886   0.42287   0.16597   0.00000  Uiso   1.00
H274   H     0.23698   0.42294   0.13007   0.00000  Uiso   1.00
C275   C     0.95996   0.26371   0.66144   0.00000  Uiso   1.00
C276   C     0.95995   0.30294   0.68180   0.00000  Uiso   1.00
C277   C     0.18419   0.54247   0.84198   0.00000  Uiso   1.00
C278   C     0.22174   0.54245   0.86177   0.00000  Uiso   1.00
H279   H     0.92729   0.24780   0.65312   0.00000  Uiso   1.00
H280   H     0.92731   0.31889   0.69013   0.00000  Uiso   1.00
H281   H     0.16886   0.57713   0.83403   0.00000  Uiso   1.00
H282   H     0.23698   0.57706   0.86993   0.00000  Uiso   1.00
C283   C     0.04004   0.73629   0.66144   0.00000  Uiso   1.00
C284   C     0.04005   0.69706   0.68180   0.00000  Uiso   1.00
C285   C     0.81581   0.45753   0.84198   0.00000  Uiso   1.00
C286   C     0.77826   0.45755   0.86177   0.00000  Uiso   1.00
H287   H     0.07271   0.75220   0.65312   0.00000  Uiso   1.00
H288   H     0.07269   0.68111   0.69013   0.00000  Uiso   1.00
H289   H     0.83114   0.42287   0.83403   0.00000  Uiso   1.00
H290   H     0.76302   0.42294   0.86993   0.00000  Uiso   1.00
C291   C     0.00000   0.97479   0.46945   0.00000  Uiso   1.00
C292   C     0.00000   0.94035   0.44141   0.00000  Uiso   1.00
C293   C     0.00000   0.85797   0.42413   0.00000  Uiso   1.00
C294   C     0.00000   0.87142   0.39150   0.00000  Uiso   1.00
C295   C     0.00000   0.63302   0.29013   0.00000  Uiso   1.00
C296   C     0.00000   0.63217   0.25617   0.00000  Uiso   1.00
C297   C     0.00000   0.59095   0.30743   0.00000  Uiso   1.00
C298   C     0.00000   0.58920   0.23974   0.00000  Uiso   1.00
C299   C     0.00000   0.54830   0.29093   0.00000  Uiso   1.00
C300   C     0.00000   0.54631   0.25684   0.00000  Uiso   1.00
C301   C     0.00000   0.10813   0.44850   0.00000  Uiso   1.00
C302   C     0.00000   0.08095   0.38374   0.00000  Uiso   1.00
C303   C     0.00000   0.95272   0.40852   0.00000  Uiso   1.00
C304   C     0.00000   0.24397   0.34874   0.00000  Uiso   1.00
C305   C     0.00000   0.32269   0.30801   0.00000  Uiso   1.00
C306   C     0.00000   0.83602   0.36560   0.00000  Uiso   1.00
N307   N     0.00000   0.79186   0.37283   0.00000  Uiso   1.00
C308   C     0.00000   0.97479   0.53055   0.00000  Uiso   1.00
C309   C     0.00000   0.94035   0.55859   0.00000  Uiso   1.00
C310   C     0.00000   0.85797   0.57587   0.00000  Uiso   1.00
C311   C     0.00000   0.87142   0.60850   0.00000  Uiso   1.00
C312   C     0.00000   0.63302   0.70987   0.00000  Uiso   1.00
C313   C     0.00000   0.63217   0.74383   0.00000  Uiso   1.00
C314   C     0.00000   0.59095   0.69257   0.00000  Uiso   1.00
C315   C     0.00000   0.58920   0.76026   0.00000  Uiso   1.00
C316   C     0.00000   0.54830   0.70907   0.00000  Uiso   1.00
C317   C     0.00000   0.54631   0.74316   0.00000  Uiso   1.00
C318   C     0.00000   0.10813   0.55150   0.00000  Uiso   1.00
C319   C     0.00000   0.08095   0.61626   0.00000  Uiso   1.00
C320   C     0.00000   0.95272   0.59148   0.00000  Uiso   1.00
C321   C     0.00000   0.24397   0.65126   0.00000  Uiso   1.00
C322   C     0.00000   0.32269   0.69199   0.00000  Uiso   1.00
C323   C     0.00000   0.83602   0.63440   0.00000  Uiso   1.00
N324   N     0.00000   0.79186   0.62717   0.00000  Uiso   1.00
C325   C     0.00000   0.04717   0.50000   0.00000  Uiso   1.00
H326   H     0.00000   0.81920   0.43086   0.00000  Uiso   1.00
H327   H     0.00000   0.66643   0.24191   0.00000  Uiso   1.00
H328   H     0.00000   0.59143   0.33513   0.00000  Uiso   1.00
H329   H     0.00000   0.58842   0.21205   0.00000  Uiso   1.00
H330   H     0.00000   0.51398   0.30513   0.00000  Uiso   1.00
H331   H     0.00000   0.11918   0.47512   0.00000  Uiso   1.00
H332   H     0.00000   0.06942   0.35722   0.00000  Uiso   1.00
H333   H     0.00000   0.99162   0.40215   0.00000  Uiso   1.00
H334   H     0.00000   0.84740   0.33905   0.00000  Uiso   1.00
H335   H     0.00000   0.81920   0.56914   0.00000  Uiso   1.00
H336   H     0.00000   0.66643   0.75809   0.00000  Uiso   1.00
H337   H     0.00000   0.59143   0.66487   0.00000  Uiso   1.00
H338   H     0.00000   0.58842   0.78795   0.00000  Uiso   1.00
H339   H     0.00000   0.51398   0.69487   0.00000  Uiso   1.00
H340   H     0.00000   0.11918   0.52488   0.00000  Uiso   1.00
H341   H     0.00000   0.06942   0.64278   0.00000  Uiso   1.00
H342   H     0.00000   0.99162   0.59785   0.00000  Uiso   1.00
H343   H     0.00000   0.84740   0.66095   0.00000  Uiso   1.00
H344   H     0.00000   0.08706   0.49830   0.00000  Uiso   1.00
C345   C     0.07970   0.00000   0.95852   0.00000  Uiso   1.00
C346   C     0.14789   0.00000   0.91026   0.00000  Uiso   1.00
C347   C     0.18301   0.00000   0.88571   0.00000  Uiso   1.00
C348   C     0.37440   0.00000   0.81524   0.00000  Uiso   1.00
C349   C     0.37539   0.00000   0.78128   0.00000  Uiso   1.00
C350   C     0.41405   0.00000   0.83264   0.00000  Uiso   1.00
C351   C     0.41596   0.00000   0.76494   0.00000  Uiso   1.00
C352   C     0.45436   0.00000   0.81621   0.00000  Uiso   1.00
C353   C     0.45633   0.00000   0.78212   0.00000  Uiso   1.00
C354   C     0.87590   0.00000   0.96763   0.00000  Uiso   1.00
C355   C     0.89634   0.00000   0.90104   0.00000  Uiso   1.00
C356   C     0.04152   0.00000   0.01754   0.00000  Uiso   1.00
C357   C     0.92951   0.00000   0.92474   0.00000  Uiso   1.00
C358   C     0.25932   0.00000   0.12839   0.00000  Uiso   1.00
C359   C     0.33462   0.00000   0.16810   0.00000  Uiso   1.00
C360   C     0.92030   0.00000   0.95852   0.00000  Uiso   1.00
C361   C     0.85211   0.00000   0.91026   0.00000  Uiso   1.00
C362   C     0.81699   0.00000   0.88571   0.00000  Uiso   1.00
C363   C     0.62560   0.00000   0.81524   0.00000  Uiso   1.00
C364   C     0.62461   0.00000   0.78128   0.00000  Uiso   1.00
C365   C     0.58595   0.00000   0.83264   0.00000  Uiso   1.00
C366   C     0.58404   0.00000   0.76494   0.00000  Uiso   1.00
C367   C     0.54564   0.00000   0.81621   0.00000  Uiso   1.00
C368   C     0.54367   0.00000   0.78212   0.00000  Uiso   1.00
C369   C     0.12410   0.00000   0.96763   0.00000  Uiso   1.00
C370   C     0.10366   0.00000   0.90104   0.00000  Uiso   1.00
C371   C     0.95848   0.00000   0.01754   0.00000  Uiso   1.00
C372   C     0.07049   0.00000   0.92474   0.00000  Uiso   1.00
C373   C     0.74068   0.00000   0.12839   0.00000  Uiso   1.00
C374   C     0.66538   0.00000   0.16810   0.00000  Uiso   1.00
C375   C     0.92030   0.00000   0.04148   0.00000  Uiso   1.00
C376   C     0.85211   0.00000   0.08974   0.00000  Uiso   1.00
C377   C     0.81699   0.00000   0.11429   0.00000  Uiso   1.00
C378   C     0.62560   0.00000   0.18476   0.00000  Uiso   1.00
C379   C     0.62461   0.00000   0.21872   0.00000  Uiso   1.00
C380   C     0.58595   0.00000   0.16736   0.00000  Uiso   1.00
C381   C     0.58404   0.00000   0.23506   0.00000  Uiso   1.00
C382   C     0.54564   0.00000   0.18379   0.00000  Uiso   1.00
C383   C     0.54367   0.00000   0.21788   0.00000  Uiso   1.00
C384   C     0.12410   0.00000   0.03237   0.00000  Uiso   1.00
C385   C     0.10366   0.00000   0.09896   0.00000  Uiso   1.00
C386   C     0.95848   0.00000   0.98246   0.00000  Uiso   1.00
C387   C     0.07049   0.00000   0.07526   0.00000  Uiso   1.00
C388   C     0.74068   0.00000   0.87161   0.00000  Uiso   1.00
C389   C     0.66538   0.00000   0.83190   0.00000  Uiso   1.00
C390   C     0.07970   0.00000   0.04148   0.00000  Uiso   1.00
C391   C     0.14789   0.00000   0.08974   0.00000  Uiso   1.00
C392   C     0.18301   0.00000   0.11429   0.00000  Uiso   1.00
C393   C     0.37440   0.00000   0.18476   0.00000  Uiso   1.00
C394   C     0.37539   0.00000   0.21872   0.00000  Uiso   1.00
C395   C     0.41405   0.00000   0.16736   0.00000  Uiso   1.00
C396   C     0.41596   0.00000   0.23506   0.00000  Uiso   1.00
C397   C     0.45436   0.00000   0.18379   0.00000  Uiso   1.00
C398   C     0.45633   0.00000   0.21788   0.00000  Uiso   1.00
C399   C     0.87590   0.00000   0.03237   0.00000  Uiso   1.00
C400   C     0.89634   0.00000   0.09896   0.00000  Uiso   1.00
C401   C     0.04152   0.00000   0.98246   0.00000  Uiso   1.00
C402   C     0.92951   0.00000   0.07526   0.00000  Uiso   1.00
C403   C     0.25932   0.00000   0.87161   0.00000  Uiso   1.00
C404   C     0.33462   0.00000   0.83190   0.00000  Uiso   1.00
C405   C     0.50000   0.00000   0.76265   0.00000  Uiso   1.00
C406   C     0.50000   0.00000   0.23735   0.00000  Uiso   1.00
C407   C     0.00000   0.00000   0.96721   0.00000  Uiso   1.00
C408   C     0.00000   0.00000   0.03279   0.00000  Uiso   1.00
H409   H     0.17417   0.00000   0.85879   0.00000  Uiso   1.00
H410   H     0.34315   0.00000   0.76692   0.00000  Uiso   1.00
H411   H     0.41350   0.00000   0.86033   0.00000  Uiso   1.00
H412   H     0.41681   0.00000   0.73725   0.00000  Uiso   1.00
H413   H     0.48667   0.00000   0.83048   0.00000  Uiso   1.00
H414   H     0.86652   0.00000   0.99446   0.00000  Uiso   1.00
H415   H     0.90557   0.00000   0.87418   0.00000  Uiso   1.00
H416   H     0.96578   0.00000   0.91720   0.00000  Uiso   1.00
H417   H     0.82583   0.00000   0.85879   0.00000  Uiso   1.00
H418   H     0.65685   0.00000   0.76692   0.00000  Uiso   1.00
H419   H     0.58650   0.00000   0.86033   0.00000  Uiso   1.00
H420   H     0.58319   0.00000   0.73725   0.00000  Uiso   1.00
H421   H     0.51333   0.00000   0.83048   0.00000  Uiso   1.00
H422   H     0.13348   0.00000   0.99446   0.00000  Uiso   1.00
H423   H     0.09443   0.00000   0.87418   0.00000  Uiso   1.00
H424   H     0.03422   0.00000   0.91720   0.00000  Uiso   1.00
H425   H     0.82583   0.00000   0.14121   0.00000  Uiso   1.00
H426   H     0.65685   0.00000   0.23308   0.00000  Uiso   1.00
H427   H     0.58650   0.00000   0.13967   0.00000  Uiso   1.00
H428   H     0.58319   0.00000   0.26275   0.00000  Uiso   1.00
H429   H     0.51333   0.00000   0.16952   0.00000  Uiso   1.00
H430   H     0.13348   0.00000   0.00554   0.00000  Uiso   1.00
H431   H     0.09443   0.00000   0.12582   0.00000  Uiso   1.00
H432   H     0.03422   0.00000   0.08280   0.00000  Uiso   1.00
H433   H     0.17417   0.00000   0.14121   0.00000  Uiso   1.00
H434   H     0.34315   0.00000   0.23308   0.00000  Uiso   1.00
H435   H     0.41350   0.00000   0.13967   0.00000  Uiso   1.00
H436   H     0.41681   0.00000   0.26275   0.00000  Uiso   1.00
H437   H     0.48667   0.00000   0.16952   0.00000  Uiso   1.00
H438   H     0.86652   0.00000   0.00554   0.00000  Uiso   1.00
H439   H     0.90557   0.00000   0.12582   0.00000  Uiso   1.00
H440   H     0.96578   0.00000   0.08280   0.00000  Uiso   1.00
H441   H     0.99774   0.00000   0.93956   0.00000  Uiso   1.00
H442   H     0.00226   0.00000   0.06044   0.00000  Uiso   1.00
C443   C     0.57970   0.50000   0.95852   0.00000  Uiso   1.00
C444   C     0.64789   0.50000   0.91026   0.00000  Uiso   1.00
C445   C     0.68301   0.50000   0.88571   0.00000  Uiso   1.00
C446   C     0.87440   0.50000   0.81524   0.00000  Uiso   1.00
C447   C     0.87539   0.50000   0.78128   0.00000  Uiso   1.00
C448   C     0.91405   0.50000   0.83264   0.00000  Uiso   1.00
C449   C     0.91596   0.50000   0.76494   0.00000  Uiso   1.00
C450   C     0.95436   0.50000   0.81621   0.00000  Uiso   1.00
C451   C     0.95633   0.50000   0.78212   0.00000  Uiso   1.00
C452   C     0.37590   0.50000   0.96763   0.00000  Uiso   1.00
C453   C     0.39634   0.50000   0.90104   0.00000  Uiso   1.00
C454   C     0.54152   0.50000   0.01754   0.00000  Uiso   1.00
C455   C     0.42951   0.50000   0.92474   0.00000  Uiso   1.00
C456   C     0.75932   0.50000   0.12839   0.00000  Uiso   1.00
C457   C     0.83462   0.50000   0.16810   0.00000  Uiso   1.00
C458   C     0.42030   0.50000   0.95852   0.00000  Uiso   1.00
C459   C     0.35211   0.50000   0.91026   0.00000  Uiso   1.00
C460   C     0.31699   0.50000   0.88571   0.00000  Uiso   1.00
C461   C     0.12560   0.50000   0.81524   0.00000  Uiso   1.00
C462   C     0.12461   0.50000   0.78128   0.00000  Uiso   1.00
C463   C     0.08595   0.50000   0.83264   0.00000  Uiso   1.00
C464   C     0.08404   0.50000   0.76494   0.00000  Uiso   1.00
C465   C     0.04564   0.50000   0.81621   0.00000  Uiso   1.00
C466   C     0.04367   0.50000   0.78212   0.00000  Uiso   1.00
C467   C     0.62410   0.50000   0.96763   0.00000  Uiso   1.00
C468   C     0.60366   0.50000   0.90104   0.00000  Uiso   1.00
C469   C     0.45848   0.50000   0.01754   0.00000  Uiso   1.00
C470   C     0.57049   0.50000   0.92474   0.00000  Uiso   1.00
C471   C     0.24068   0.50000   0.12839   0.00000  Uiso   1.00
C472   C     0.16538   0.50000   0.16810   0.00000  Uiso   1.00
C473   C     0.42030   0.50000   0.04148   0.00000  Uiso   1.00
C474   C     0.35211   0.50000   0.08974   0.00000  Uiso   1.00
C475   C     0.31699   0.50000   0.11429   0.00000  Uiso   1.00
C476   C     0.12560   0.50000   0.18476   0.00000  Uiso   1.00
C477   C     0.12461   0.50000   0.21872   0.00000  Uiso   1.00
C478   C     0.08595   0.50000   0.16736   0.00000  Uiso   1.00
C479   C     0.08404   0.50000   0.23506   0.00000  Uiso   1.00
C480   C     0.04564   0.50000   0.18379   0.00000  Uiso   1.00
C481   C     0.04367   0.50000   0.21788   0.00000  Uiso   1.00
C482   C     0.62410   0.50000   0.03237   0.00000  Uiso   1.00
C483   C     0.60366   0.50000   0.09896   0.00000  Uiso   1.00
C484   C     0.45848   0.50000   0.98246   0.00000  Uiso   1.00
C485   C     0.57049   0.50000   0.07526   0.00000  Uiso   1.00
C486   C     0.24068   0.50000   0.87161   0.00000  Uiso   1.00
C487   C     0.16538   0.50000   0.83190   0.00000  Uiso   1.00
C488   C     0.57970   0.50000   0.04148   0.00000  Uiso   1.00
C489   C     0.64789   0.50000   0.08974   0.00000  Uiso   1.00
C490   C     0.68301   0.50000   0.11429   0.00000  Uiso   1.00
C491   C     0.87440   0.50000   0.18476   0.00000  Uiso   1.00
C492   C     0.87539   0.50000   0.21872   0.00000  Uiso   1.00
C493   C     0.91405   0.50000   0.16736   0.00000  Uiso   1.00
C494   C     0.91596   0.50000   0.23506   0.00000  Uiso   1.00
C495   C     0.95436   0.50000   0.18379   0.00000  Uiso   1.00
C496   C     0.95633   0.50000   0.21788   0.00000  Uiso   1.00
C497   C     0.37590   0.50000   0.03237   0.00000  Uiso   1.00
C498   C     0.39634   0.50000   0.09896   0.00000  Uiso   1.00
C499   C     0.54152   0.50000   0.98246   0.00000  Uiso   1.00
C500   C     0.42951   0.50000   0.07526   0.00000  Uiso   1.00
C501   C     0.75932   0.50000   0.87161   0.00000  Uiso   1.00
C502   C     0.83462   0.50000   0.83190   0.00000  Uiso   1.00
C503   C     0.00000   0.50000   0.76265   0.00000  Uiso   1.00
C504   C     0.00000   0.50000   0.23735   0.00000  Uiso   1.00
C505   C     0.50000   0.50000   0.96721   0.00000  Uiso   1.00
C506   C     0.50000   0.50000   0.03279   0.00000  Uiso   1.00
H507   H     0.67417   0.50000   0.85879   0.00000  Uiso   1.00
H508   H     0.84315   0.50000   0.76692   0.00000  Uiso   1.00
H509   H     0.91350   0.50000   0.86033   0.00000  Uiso   1.00
H510   H     0.91681   0.50000   0.73725   0.00000  Uiso   1.00
H511   H     0.98667   0.50000   0.83048   0.00000  Uiso   1.00
H512   H     0.36652   0.50000   0.99446   0.00000  Uiso   1.00
H513   H     0.40557   0.50000   0.87418   0.00000  Uiso   1.00
H514   H     0.46578   0.50000   0.91720   0.00000  Uiso   1.00
H515   H     0.32583   0.50000   0.85879   0.00000  Uiso   1.00
H516   H     0.15685   0.50000   0.76692   0.00000  Uiso   1.00
H517   H     0.08650   0.50000   0.86033   0.00000  Uiso   1.00
H518   H     0.08319   0.50000   0.73725   0.00000  Uiso   1.00
H519   H     0.01333   0.50000   0.83048   0.00000  Uiso   1.00
H520   H     0.63348   0.50000   0.99446   0.00000  Uiso   1.00
H521   H     0.59443   0.50000   0.87418   0.00000  Uiso   1.00
H522   H     0.53422   0.50000   0.91720   0.00000  Uiso   1.00
H523   H     0.32583   0.50000   0.14121   0.00000  Uiso   1.00
H524   H     0.15685   0.50000   0.23308   0.00000  Uiso   1.00
H525   H     0.08650   0.50000   0.13967   0.00000  Uiso   1.00
H526   H     0.08319   0.50000   0.26275   0.00000  Uiso   1.00
H527   H     0.01333   0.50000   0.16952   0.00000  Uiso   1.00
H528   H     0.63348   0.50000   0.00554   0.00000  Uiso   1.00
H529   H     0.59443   0.50000   0.12582   0.00000  Uiso   1.00
H530   H     0.53422   0.50000   0.08280   0.00000  Uiso   1.00
H531   H     0.67417   0.50000   0.14121   0.00000  Uiso   1.00
H532   H     0.84315   0.50000   0.23308   0.00000  Uiso   1.00
H533   H     0.91350   0.50000   0.13967   0.00000  Uiso   1.00
H534   H     0.91681   0.50000   0.26275   0.00000  Uiso   1.00
H535   H     0.98667   0.50000   0.16952   0.00000  Uiso   1.00
H536   H     0.36652   0.50000   0.00554   0.00000  Uiso   1.00
H537   H     0.40557   0.50000   0.12582   0.00000  Uiso   1.00
H538   H     0.46578   0.50000   0.08280   0.00000  Uiso   1.00
H539   H     0.49774   0.50000   0.93956   0.00000  Uiso   1.00
H540   H     0.50226   0.50000   0.06044   0.00000  Uiso   1.00
C541   C     0.65845   0.50000   0.05486   0.00000  Uiso   1.00
N542   N     0.72406   0.50000   0.10546   0.00000  Uiso   1.00
C543   C     0.34155   0.50000   0.05486   0.00000  Uiso   1.00
N544   N     0.27594   0.50000   0.10546   0.00000  Uiso   1.00
C545   C     0.34155   0.50000   0.94514   0.00000  Uiso   1.00
N546   N     0.27594   0.50000   0.89454   0.00000  Uiso   1.00
C547   C     0.65845   0.50000   0.94514   0.00000  Uiso   1.00
N548   N     0.72406   0.50000   0.89454   0.00000  Uiso   1.00
H549   H     0.69423   0.50000   0.04616   0.00000  Uiso   1.00
H550   H     0.30577   0.50000   0.04616   0.00000  Uiso   1.00
H551   H     0.30577   0.50000   0.95384   0.00000  Uiso   1.00
H552   H     0.69423   0.50000   0.95384   0.00000  Uiso   1.00
C553   C     0.15845   0.00000   0.05486   0.00000  Uiso   1.00
N554   N     0.22406   0.00000   0.10546   0.00000  Uiso   1.00
C555   C     0.84155   0.00000   0.05486   0.00000  Uiso   1.00
N556   N     0.77594   0.00000   0.10546   0.00000  Uiso   1.00
C557   C     0.84155   0.00000   0.94514   0.00000  Uiso   1.00
N558   N     0.77594   0.00000   0.89454   0.00000  Uiso   1.00
C559   C     0.15845   0.00000   0.94514   0.00000  Uiso   1.00
N560   N     0.22406   0.00000   0.89454   0.00000  Uiso   1.00
H561   H     0.19423   0.00000   0.04616   0.00000  Uiso   1.00
H562   H     0.80577   0.00000   0.04616   0.00000  Uiso   1.00
H563   H     0.80577   0.00000   0.95384   0.00000  Uiso   1.00
H564   H     0.19423   0.00000   0.95384   0.00000  Uiso   1.00
loop_
_geom_bond_atom_site_label_1
_geom_bond_atom_site_label_2
_geom_bond_distance
_geom_bond_site_symmetry_2
_ccdc_geom_bond_type
C1     C2      1.398   .     S
C1     H5      1.140   .     S
C1     C46     1.400   .     D
C2     H6      1.140   .     S
C2     C47     1.400   .     D
C3     C4      1.398   .     S
C3     H7      1.140   .     S
C3     C359    1.401   1_565 D
C4     H8      1.140   .     S
C4     C358    1.399   1_565 D
C9     C10     1.398   .     S
C9     H13     1.140   .     S
C9     C218    1.400   .     D
C10    H14     1.140   .     S
C10    C219    1.400   .     D
C11    C12     1.398   .     D
C11    H15     1.140   .     S
C11    C374    1.401   .     S
C12    H16     1.140   .     S
C12    C373    1.399   .     S
C17    C18     1.398   .     S
C17    H21     1.140   .     S
C17    C63     1.400   .     D
C18    H22     1.140   .     S
C18    C64     1.400   .     D
C19    C20     1.398   .     S
C19    H23     1.140   .     S
C19    C389    1.401   1_565 D
C20    H24     1.140   .     S
C20    C388    1.399   1_565 D
C25    C26     1.398   .     S
C25    H29     1.140   .     S
C25    C235    1.400   .     D
C26    H30     1.140   .     S
C26    C236    1.400   .     D
C27    C28     1.398   .     S
C27    H31     1.140   .     S
C27    C404    1.401   .     D
C28    H32     1.140   .     S
C28    C403    1.399   .     D
C33    C34     1.516   .     S
C33    C239    1.405   .     D
C33    C205    1.438   .     S
C34    C45     1.399   .     D
C34    C215    1.413   .     S
C35    C36     1.397   .     S
C35    H68     1.140   .     S
C35    C215    1.393   .     D
C36    C48     1.468   .     S
C36    C216    1.396   .     D
C37    C38     1.398   .     D
C37    C39     1.395   .     S
C37    C219    1.462   .     S
C38    C40     1.400   .     S
C38    H69     1.140   .     S
C39    C41     1.393   .     D
C39    H70     1.140   .     S
C40    C42     1.411   .     D
C40    H71     1.140   .     S
C41    C42     1.404   .     S
C41    H72     1.140   .     S
C42    C406    1.545   1_565 S
C43    H73     1.140   .     S
C43    C206    1.413   .     D
C43    C207    1.393   .     S
C44    H74     1.140   .     S
C44    C208    1.396   .     S
C44    C217    1.401   .     D
C45    H75     1.140   .     S
C45    C216    1.401   .     S
C46    C181    1.400   .     S
C46    N221    1.424   .     S
C47    C182    1.400   .     S
C47    C209    1.462   .     S
C48    N49     1.294   .     D
C48    H76     1.140   .     S
N49    C218    1.424   .     S
C50    C51     1.516   .     S
C50    C222    1.438   .     D
C50    C239    1.405   .     S
C51    C62     1.399   .     D
C51    C232    1.413   .     S
C52    C53     1.397   .     S
C52    H77     1.140   .     S
C52    C232    1.393   .     D
C53    C65     1.468   .     S
C53    C233    1.396   .     D
C54    C55     1.398   .     D
C54    C56     1.395   .     S
C54    C236    1.462   .     S
C55    C57     1.400   .     S
C55    H78     1.140   .     S
C56    C58     1.393   .     D
C56    H79     1.140   .     S
C57    C59     1.411   .     D
C57    H80     1.140   .     S
C58    C59     1.404   .     S
C58    H81     1.140   .     S
C59    C405    1.545   1_565 S
C60    H82     1.140   .     S
C60    C223    1.413   .     S
C60    C224    1.393   .     D
C61    H83     1.140   .     S
C61    C225    1.396   .     D
C61    C234    1.401   .     S
C62    H84     1.140   .     S
C62    C233    1.401   .     S
C63    C197    1.400   .     S
C63    N238    1.424   .     S
C64    C198    1.400   .     S
C64    C226    1.462   .     S
C65    N66     1.294   .     D
C65    H85     1.140   .     S
N66    C235    1.424   .     S
C67    H86     1.140   .     S
C67    C205    1.405   .     D
C67    C222    1.405   .     S
H72    H244    0.798   1_565 S
H75    H247    0.478   .     S
H81    H253    0.798   1_565 S
H84    H256    0.478   .     S
C87    C88     1.398   .     D
C87    H91     1.140   .     S
C87    C132    1.400   .     S
C88    H92     1.140   .     S
C88    C133    1.400   .     S
C89    C90     1.398   .     S
C89    H93     1.140   .     S
C89    C457    1.401   .     D
C90    H94     1.140   .     S
C90    C456    1.399   .     D
C95    C96     1.398   .     D
C95    H99     1.140   .     S
C95    C304    1.400   1_655 S
C96    H100    1.140   .     S
C96    C305    1.400   1_655 S
C97    C98     1.398   .     D
C97    H101    1.140   .     S
C97    C472    1.401   .     S
C98    H102    1.140   .     S
C98    C471    1.399   .     S
C103   C104    1.398   .     D
C103   H107    1.140   .     S
C103   C149    1.400   1_655 S
C104   H108    1.140   .     S
C104   C150    1.400   1_655 S
C105   C106    1.398   .     S
C105   H109    1.140   .     S
C105   C487    1.401   .     D
C106   H110    1.140   .     S
C106   C486    1.399   .     D
C111   C112    1.398   .     D
C111   H115    1.140   .     S
C111   C321    1.400   .     S
C112   H116    1.140   .     S
C112   C322    1.400   .     S
C113   C114    1.398   .     D
C113   H117    1.140   .     S
C113   C502    1.401   .     S
C114   H118    1.140   .     S
C114   C501    1.399   .     S
C119   C120    1.516   .     S
C119   C325    1.405   .     D
C119   C291    1.438   1_545 S
C120   C131    1.399   .     D
C120   C301    1.413   .     S
C121   C122    1.397   .     S
C121   H154    1.140   .     S
C121   C301    1.393   .     D
C122   C134    1.468   .     S
C122   C302    1.396   .     D
C123   C124    1.398   .     D
C123   C125    1.395   .     S
C123   C305    1.462   .     S
C124   C126    1.400   .     S
C124   H155    1.140   .     S
C125   C127    1.393   .     D
C125   H156    1.140   .     S
C126   C128    1.411   .     D
C126   H157    1.140   .     S
C127   C128    1.404   .     S
C127   H158    1.140   .     S
C128   C504    1.545   .     S
C129   H159    1.140   .     S
C129   C292    1.413   .     S
C129   C293    1.393   .     D
C130   H160    1.140   .     S
C130   C294    1.396   .     D
C130   C303    1.401   .     S
C131   H161    1.140   .     S
C131   C302    1.401   .     S
C132   N307    1.424   .     S
C132   C267    1.400   1_455 D
C133   C295    1.462   .     S
C133   C268    1.400   1_455 D
C134   N135    1.294   .     D
C134   H162    1.140   .     S
N135   C304    1.424   .     S
C136   C137    1.516   .     S
C136   C325    1.405   .     S
C136   C308    1.438   1_545 D
C137   C148    1.399   .     D
C137   C318    1.413   .     S
C138   C139    1.397   .     S
C138   H163    1.140   .     S
C138   C318    1.393   .     D
C139   C151    1.468   .     S
C139   C319    1.396   .     D
C140   C141    1.398   .     S
C140   C142    1.395   .     D
C140   C322    1.462   .     S
C141   C143    1.400   .     D
C141   H164    1.140   .     S
C142   C144    1.393   .     S
C142   H165    1.140   .     S
C143   C145    1.411   .     S
C143   H166    1.140   .     S
C144   C145    1.404   .     D
C144   H167    1.140   .     S
C145   C503    1.545   .     S
C146   H168    1.140   .     S
C146   C309    1.413   .     S
C146   C310    1.393   .     D
C147   H169    1.140   .     S
C147   C311    1.396   .     D
C147   C320    1.401   .     S
C148   H170    1.140   .     S
C148   C319    1.401   .     S
C149   C283    1.400   .     D
C149   N324    1.424   .     S
C149   C103    1.400   1_455 S
C150   C284    1.400   .     D
C150   C312    1.462   .     S
C150   C104    1.400   1_455 S
C151   N152    1.294   .     D
C151   H171    1.140   .     S
N152   C321    1.424   .     S
C153   H172    1.140   .     S
C153   C291    1.405   .     D
C153   C308    1.405   .     S
H158   H330    0.798   .     S
H161   H333    0.478   1_545 S
H167   H339    0.798   .     S
H170   H342    0.478   1_545 S
C173   C174    1.398   .     D
C173   H177    1.140   .     S
C173   C218    1.400   .     S
C174   H178    1.140   .     S
C174   C219    1.400   .     S
C175   C176    1.398   .     D
C175   H179    1.140   .     S
C175   C359    1.401   .     S
C176   H180    1.140   .     S
C176   C358    1.399   .     S
C181   C182    1.398   .     D
C181   H185    1.140   .     S
C182   H186    1.140   .     S
C183   C184    1.398   .     S
C183   H187    1.140   .     S
C183   C374    1.401   1_565 D
C184   H188    1.140   .     S
C184   C373    1.399   1_565 D
C189   C190    1.398   .     D
C189   H193    1.140   .     S
C189   C235    1.400   .     S
C190   H194    1.140   .     S
C190   C236    1.400   .     S
C191   C192    1.398   .     D
C191   H195    1.140   .     S
C191   C389    1.401   .     S
C192   H196    1.140   .     S
C192   C388    1.399   .     S
C197   C198    1.398   .     D
C197   H201    1.140   .     S
C198   H202    1.140   .     S
C199   C200    1.398   .     D
C199   H203    1.140   .     S
C199   C404    1.401   1_565 S
C200   H204    1.140   .     S
C200   C403    1.399   1_565 S
C205   C206    1.516   .     S
C206   C217    1.399   .     S
C207   C208    1.397   .     D
C207   H240    1.140   .     S
C208   C220    1.468   .     S
C209   C210    1.398   .     D
C209   C211    1.395   .     S
C210   C212    1.400   .     S
C210   H241    1.140   .     S
C211   C213    1.393   .     D
C211   H242    1.140   .     S
C212   C214    1.411   .     D
C212   H243    1.140   .     S
C213   C214    1.404   .     S
C213   H244    1.140   .     S
C214   C406    1.545   .     S
C215   H245    1.140   .     S
C216   H246    1.140   .     S
C217   H247    1.140   .     S
C220   N221    1.294   .     D
C220   H248    1.140   .     S
C222   C223    1.516   .     S
C223   C234    1.399   .     D
C224   C225    1.397   .     S
C224   H249    1.140   .     S
C225   C237    1.468   .     S
C226   C227    1.398   .     D
C226   C228    1.395   .     S
C227   C229    1.400   .     S
C227   H250    1.140   .     S
C228   C230    1.393   .     D
C228   H251    1.140   .     S
C229   C231    1.411   .     D
C229   H252    1.140   .     S
C230   C231    1.404   .     S
C230   H253    1.140   .     S
C231   C405    1.545   .     S
C232   H254    1.140   .     S
C233   H255    1.140   .     S
C234   H256    1.140   .     S
C237   N238    1.294   .     D
C237   H257    1.140   .     S
C239   H258    1.140   .     S
H244   H72     0.798   1_545 S
H253   H81     0.798   1_545 S
C259   C260    1.398   .     S
C259   H263    1.140   .     S
C259   C304    1.400   .     D
C260   H264    1.140   .     S
C260   C305    1.400   .     D
C261   C262    1.398   .     D
C261   H265    1.140   .     S
C261   C457    1.401   .     S
C262   H266    1.140   .     S
C262   C456    1.399   .     S
C267   C268    1.398   .     S
C267   H271    1.140   .     S
C267   C132    1.400   1_655 D
C268   H272    1.140   .     S
C268   C133    1.400   1_655 D
C269   C270    1.398   .     S
C269   H273    1.140   .     S
C269   C472    1.401   .     D
C270   H274    1.140   .     S
C270   C471    1.399   .     D
C275   C276    1.398   .     S
C275   H279    1.140   .     S
C275   C321    1.400   1_655 D
C276   H280    1.140   .     S
C276   C322    1.400   1_655 D
C277   C278    1.398   .     D
C277   H281    1.140   .     S
C277   C487    1.401   .     S
C278   H282    1.140   .     S
C278   C486    1.399   .     S
C283   C284    1.398   .     S
C283   H287    1.140   .     S
C284   H288    1.140   .     S
C285   C286    1.398   .     S
C285   H289    1.140   .     S
C285   C502    1.401   .     D
C286   H290    1.140   .     S
C286   C501    1.399   .     D
C291   C292    1.516   .     S
C291   C119    1.438   1_565 S
C292   C303    1.399   .     D
C293   C294    1.397   .     S
C293   H326    1.140   .     S
C294   C306    1.468   .     S
C295   C296    1.398   .     S
C295   C297    1.395   .     D
C296   C298    1.400   .     D
C296   H327    1.140   .     S
C297   C299    1.393   .     S
C297   H328    1.140   .     S
C298   C300    1.411   .     S
C298   H329    1.140   .     S
C299   C300    1.404   .     D
C299   H330    1.140   .     S
C300   C504    1.545   .     S
C301   H331    1.140   .     S
C302   H332    1.140   .     S
C303   H333    1.140   .     S
C304   C95     1.400   1_455 S
C305   C96     1.400   1_455 S
C306   N307    1.294   .     D
C306   H334    1.140   .     S
C308   C309    1.516   .     S
C308   C136    1.438   1_565 D
C309   C320    1.399   .     D
C310   C311    1.397   .     S
C310   H335    1.140   .     S
C311   C323    1.468   .     S
C312   C313    1.398   .     D
C312   C314    1.395   .     S
C313   C315    1.400   .     S
C313   H336    1.140   .     S
C314   C316    1.393   .     D
C314   H337    1.140   .     S
C315   C317    1.411   .     D
C315   H338    1.140   .     S
C316   C317    1.404   .     S
C316   H339    1.140   .     S
C317   C503    1.545   .     S
C318   H340    1.140   .     S
C319   H341    1.140   .     S
C320   H342    1.140   .     S
C321   C275    1.400   1_455 D
C322   C276    1.400   1_455 D
C323   N324    1.294   .     D
C323   H343    1.140   .     S
C325   H344    1.140   .     S
H333   H161    0.478   1_565 S
H342   H170    0.478   1_565 S
C345   C369    1.394   .     D
C345   C372    1.418   .     S
C345   C401    1.518   .     S
C346   C347    1.466   .     S
C346   C370    1.391   .     S
C346   C559    1.471   .     D
C347   H409    1.140   .     S
C347   N560    1.294   .     D
C348   C349    1.398   .     D
C348   C350    1.397   .     S
C348   C404    1.385   .     S
C349   C351    1.399   .     S
C349   H410    1.140   .     S
C350   C352    1.394   .     D
C350   H411    1.140   .     S
C351   C353    1.411   .     D
C351   H412    1.140   .     S
C352   C353    1.404   .     S
C352   H413    1.140   .     S
C353   C405    1.545   .     S
C354   C360    1.394   .     D
C354   H414    1.140   .     S
C354   C557    1.391   .     S
C355   C357    1.399   .     D
C355   C361    1.391   .     S
C355   H415    1.140   .     S
C356   C390    1.518   .     S
C356   C408    1.404   .     S
C356   C401    1.444   1_554 D
C357   C360    1.418   .     S
C357   H416    1.140   .     S
C358   N554    1.424   .     S
C358   C4      1.399   1_545 D
C359   C393    1.385   .     S
C359   C3      1.401   1_545 D
C360   C386    1.518   .     S
C361   C362    1.466   .     S
C361   C557    1.471   .     D
C362   H417    1.140   .     S
C362   N558    1.294   .     D
C363   C364    1.398   .     S
C363   C365    1.397   .     D
C363   C389    1.385   .     S
C364   C366    1.399   .     D
C364   H418    1.140   .     S
C365   C367    1.394   .     S
C365   H419    1.140   .     S
C366   C368    1.411   .     S
C366   H420    1.140   .     S
C367   C368    1.404   .     D
C367   H421    1.140   .     S
C368   C405    1.545   .     S
C369   H422    1.140   .     S
C369   C559    1.391   .     S
C370   C372    1.399   .     D
C370   H423    1.140   .     S
C371   C375    1.518   .     S
C371   C386    1.444   1_554 S
C371   C408    1.404   1_655 D
C372   H424    1.140   .     S
C373   N556    1.424   .     S
C373   C184    1.399   1_545 D
C374   C378    1.385   .     S
C374   C183    1.401   1_545 D
C375   C399    1.394   .     S
C375   C402    1.418   .     D
C376   C377    1.466   .     S
C376   C400    1.391   .     D
C376   C555    1.471   .     S
C377   H425    1.140   .     S
C377   N556    1.294   .     D
C378   C379    1.398   .     S
C378   C380    1.397   .     D
C379   C381    1.399   .     D
C379   H426    1.140   .     S
C380   C382    1.394   .     S
C380   H427    1.140   .     S
C381   C383    1.411   .     S
C381   H428    1.140   .     S
C382   C383    1.404   .     D
C382   H429    1.140   .     S
C383   C406    1.545   .     S
C384   C390    1.394   .     S
C384   H430    1.140   .     S
C384   C553    1.391   .     D
C385   C387    1.399   .     S
C385   C391    1.391   .     D
C385   H431    1.140   .     S
C386   C371    1.444   1_556 S
C386   C407    1.404   1_655 D
C387   C390    1.418   .     D
C387   H432    1.140   .     S
C388   N558    1.424   .     S
C388   C20     1.399   1_545 D
C389   C19     1.401   1_545 D
C391   C392    1.466   .     S
C391   C553    1.471   .     S
C392   H433    1.140   .     S
C392   N554    1.294   .     D
C393   C394    1.398   .     S
C393   C395    1.397   .     D
C394   C396    1.399   .     D
C394   H434    1.140   .     S
C395   C397    1.394   .     S
C395   H435    1.140   .     S
C396   C398    1.411   .     S
C396   H436    1.140   .     S
C397   C398    1.404   .     D
C397   H437    1.140   .     S
C398   C406    1.545   .     S
C399   H438    1.140   .     S
C399   C555    1.391   .     D
C400   C402    1.399   .     S
C400   H439    1.140   .     S
C401   C407    1.404   .     S
C401   C356    1.444   1_556 D
C402   H440    1.140   .     S
C403   N560    1.424   .     S
C403   C200    1.399   1_545 S
C404   C199    1.401   1_545 S
C405   C59     1.545   1_545 S
C406   C42     1.545   1_545 S
C407   C386    1.404   1_455 D
C407   H441    1.140   1_455 S
C408   H442    1.140   .     S
C408   C371    1.404   1_455 D
H413   H421    0.806   .     S
H414   H438    0.456   1_556 S
H422   H430    0.456   1_556 S
H429   H437    0.806   .     S
H430   H422    0.456   1_554 S
H438   H414    0.456   1_554 S
H441   C407    1.140   1_655 S
C443   C467    1.394   .     D
C443   C470    1.418   .     S
C443   C499    1.518   .     S
C444   C445    1.466   .     S
C444   C468    1.391   .     S
C444   C547    1.471   .     D
C445   H507    1.140   .     S
C445   N548    1.294   .     D
C446   C447    1.398   .     S
C446   C448    1.397   .     D
C446   C502    1.385   .     S
C447   C449    1.399   .     D
C447   H508    1.140   .     S
C448   C450    1.394   .     S
C448   H509    1.140   .     S
C449   C451    1.411   .     S
C449   H510    1.140   .     S
C450   C451    1.404   .     D
C450   H511    1.140   .     S
C451   C503    1.545   1_655 S
C452   C458    1.394   .     D
C452   H512    1.140   .     S
C452   C545    1.391   .     S
C453   C455    1.399   .     D
C453   C459    1.391   .     S
C453   H513    1.140   .     S
C454   C488    1.518   .     S
C454   C506    1.404   .     S
C454   C499    1.444   1_554 D
C455   C458    1.418   .     S
C455   H514    1.140   .     S
C456   N542    1.424   .     S
C457   C491    1.385   .     S
C458   C484    1.518   .     S
C459   C460    1.466   .     S
C459   C545    1.471   .     D
C460   H515    1.140   .     S
C460   N546    1.294   .     D
C461   C462    1.398   .     D
C461   C463    1.397   .     S
C461   C487    1.385   .     S
C462   C464    1.399   .     S
C462   H516    1.140   .     S
C463   C465    1.394   .     D
C463   H517    1.140   .     S
C464   C466    1.411   .     D
C464   H518    1.140   .     S
C465   C466    1.404   .     S
C465   H519    1.140   .     S
C466   C503    1.545   .     S
C467   H520    1.140   .     S
C467   C547    1.391   .     S
C468   C470    1.399   .     D
C468   H521    1.140   .     S
C469   C473    1.518   .     S
C469   C506    1.404   .     D
C469   C484    1.444   1_554 S
C470   H522    1.140   .     S
C471   N544    1.424   .     S
C472   C476    1.385   .     S
C473   C497    1.394   .     S
C473   C500    1.418   .     D
C474   C475    1.466   .     S
C474   C498    1.391   .     D
C474   C543    1.471   .     S
C475   H523    1.140   .     S
C475   N544    1.294   .     D
C476   C477    1.398   .     S
C476   C478    1.397   .     D
C477   C479    1.399   .     D
C477   H524    1.140   .     S
C478   C480    1.394   .     S
C478   H525    1.140   .     S
C479   C481    1.411   .     S
C479   H526    1.140   .     S
C480   C481    1.404   .     D
C480   H527    1.140   .     S
C481   C504    1.545   .     S
C482   C488    1.394   .     S
C482   H528    1.140   .     S
C482   C541    1.391   .     D
C483   C485    1.399   .     S
C483   C489    1.391   .     D
C483   H529    1.140   .     S
C484   C505    1.404   .     D
C484   C469    1.444   1_556 S
C485   C488    1.418   .     D
C485   H530    1.140   .     S
C486   N546    1.424   .     S
C489   C490    1.466   .     S
C489   C541    1.471   .     S
C490   H531    1.140   .     S
C490   N542    1.294   .     D
C491   C492    1.398   .     D
C491   C493    1.397   .     S
C492   C494    1.399   .     S
C492   H532    1.140   .     S
C493   C495    1.394   .     D
C493   H533    1.140   .     S
C494   C496    1.411   .     D
C494   H534    1.140   .     S
C495   C496    1.404   .     S
C495   H535    1.140   .     S
C496   C504    1.545   1_655 S
C497   H536    1.140   .     S
C497   C543    1.391   .     D
C498   C500    1.399   .     S
C498   H537    1.140   .     S
C499   C505    1.404   .     S
C499   C454    1.444   1_556 D
C500   H538    1.140   .     S
C501   N548    1.424   .     S
C503   C451    1.545   1_455 S
C504   C496    1.545   1_455 S
C505   H539    1.140   .     S
C506   H540    1.140   .     S
H511   H519    0.806   1_655 S
H512   H536    0.456   1_556 S
H519   H511    0.806   1_455 S
H520   H528    0.456   1_556 S
H527   H535    0.806   1_455 S
H528   H520    0.456   1_554 S
H535   H527    0.806   1_655 S
H536   H512    0.456   1_554 S
C541   H549    1.140   .     S
C543   H550    1.140   .     S
C545   H551    1.140   .     S
C547   H552    1.140   .     S
C553   H561    1.140   .     S
C555   H562    1.140   .     S
C557   H563    1.140   .     S
C559   H564    1.140   .     S
