data_833
_audit_creation_date              2023-09-08
_audit_creation_method            'Materials Studio'
_symmetry_space_group_name_H-M    'P1'
_symmetry_Int_Tables_number       1
_symmetry_cell_setting            triclinic
loop_
_symmetry_equiv_pos_as_xyz
  x,y,z
_cell_length_a                    47.3196
_cell_length_b                    90.9675
_cell_length_c                    27.9995
_cell_angle_alpha                 90.0000
_cell_angle_beta                  88.2007
_cell_angle_gamma                 90.0000
loop_
_atom_site_label
_atom_site_type_symbol
_atom_site_fract_x
_atom_site_fract_y
_atom_site_fract_z
_atom_site_U_iso_or_equiv
_atom_site_adp_type
_atom_site_occupancy
C1     C     0.61187   0.73556   0.92579   0.00000  Uiso   1.00
C2     C     0.08832   0.24103   0.95155   0.00000  Uiso   1.00
C3     C     0.07783   0.23348   0.99154   0.00000  Uiso   1.00
C4     C     0.59047   0.72033   0.00528   0.00000  Uiso   1.00
C5     C     0.61369   0.71470   0.97869   0.00000  Uiso   1.00
C6     C     0.62435   0.72232   0.93908   0.00000  Uiso   1.00
N7     N     0.58160   0.71380   0.04942   0.00000  Uiso   1.00
C8     C     0.58257   0.69985   0.05804   0.00000  Uiso   1.00
C9     C     0.57696   0.69454   0.10664   0.00000  Uiso   1.00
C10    C     0.57125   0.67965   0.11451   0.00000  Uiso   1.00
C11    C     0.56687   0.67443   0.16093   0.00000  Uiso   1.00
C12    C     0.56860   0.68404   0.20005   0.00000  Uiso   1.00
C13    C     0.57472   0.69893   0.19193   0.00000  Uiso   1.00
C14    C     0.57863   0.70417   0.14561   0.00000  Uiso   1.00
C15    C     0.56385   0.67862   0.24925   0.00000  Uiso   1.00
C16    C     0.04934   0.18736   0.28343   0.00000  Uiso   1.00
C17    C     0.04425   0.18211   0.32958   0.00000  Uiso   1.00
C18    C     0.55315   0.66800   0.34167   0.00000  Uiso   1.00
C19    C     0.56802   0.65933   0.30817   0.00000  Uiso   1.00
C20    C     0.57352   0.66464   0.26225   0.00000  Uiso   1.00
C21    C     0.35234   0.48625   0.40157   0.00000  Uiso   1.00
C22    C     0.84836   0.97924   0.44580   0.00000  Uiso   1.00
C23    C     0.83459   0.96568   0.44846   0.00000  Uiso   1.00
C24    C     0.82467   0.95912   0.40662   0.00000  Uiso   1.00
C25    C     0.32828   0.46638   0.36285   0.00000  Uiso   1.00
C26    C     0.34204   0.47986   0.36023   0.00000  Uiso   1.00
N27    N     0.81221   0.94482   0.40579   0.00000  Uiso   1.00
C28    C     0.30614   0.43624   0.44160   0.00000  Uiso   1.00
C29    C     0.29472   0.42154   0.43225   0.00000  Uiso   1.00
C30    C     0.29122   0.41671   0.38511   0.00000  Uiso   1.00
C31    C     0.28090   0.40272   0.37624   0.00000  Uiso   1.00
C32    C     0.27385   0.39327   0.41424   0.00000  Uiso   1.00
C33    C     0.77723   0.89807   0.46143   0.00000  Uiso   1.00
C34    C     0.78762   0.91213   0.47037   0.00000  Uiso   1.00
C35    C     0.26240   0.37856   0.40457   0.00000  Uiso   1.00
C36    C     0.27154   0.36637   0.43053   0.00000  Uiso   1.00
C37    C     0.25929   0.35267   0.42373   0.00000  Uiso   1.00
C38    C     0.23758   0.35096   0.39117   0.00000  Uiso   1.00
C39    C     0.72934   0.86296   0.36354   0.00000  Uiso   1.00
C40    C     0.74167   0.87669   0.37023   0.00000  Uiso   1.00
C41    C     0.13961   0.25614   0.89344   0.00000  Uiso   1.00
C42    C     0.14540   0.26130   0.94172   0.00000  Uiso   1.00
C43    C     0.66759   0.75514   0.96686   0.00000  Uiso   1.00
C44    C     0.67440   0.76085   0.01129   0.00000  Uiso   1.00
C45    C     0.15893   0.27262   0.03095   0.00000  Uiso   1.00
C46    C     0.13654   0.27867   0.00547   0.00000  Uiso   1.00
C47    C     0.12964   0.27290   0.96144   0.00000  Uiso   1.00
N48    N     0.16769   0.27887   0.07495   0.00000  Uiso   1.00
C49    C     0.15137   0.28666   0.10309   0.00000  Uiso   1.00
C50    C     0.16255   0.29418   0.14464   0.00000  Uiso   1.00
C51    C     0.14510   0.30421   0.16935   0.00000  Uiso   1.00
C52    C     0.15517   0.31194   0.20806   0.00000  Uiso   1.00
C53    C     0.18288   0.30969   0.22294   0.00000  Uiso   1.00
C54    C     0.20048   0.29969   0.19803   0.00000  Uiso   1.00
C55    C     0.19040   0.29198   0.15901   0.00000  Uiso   1.00
C56    C     0.19281   0.31732   0.26561   0.00000  Uiso   1.00
C57    C     0.71999   0.82349   0.26621   0.00000  Uiso   1.00
C58    C     0.72927   0.83038   0.30734   0.00000  Uiso   1.00
C59    C     0.21155   0.33113   0.34840   0.00000  Uiso   1.00
C60    C     0.18429   0.32511   0.34745   0.00000  Uiso   1.00
C61    C     0.17504   0.31825   0.30653   0.00000  Uiso   1.00
N62    N     0.54525   0.66195   0.38734   0.00000  Uiso   1.00
C63    C     0.15179   0.73535   0.85356   0.00000  Uiso   1.00
C64    C     0.67485   0.24093   0.82680   0.00000  Uiso   1.00
C65    C     0.68502   0.23337   0.78660   0.00000  Uiso   1.00
C66    C     0.17255   0.72010   0.77359   0.00000  Uiso   1.00
C67    C     0.14989   0.71434   0.80126   0.00000  Uiso   1.00
C68    C     0.13956   0.72196   0.84110   0.00000  Uiso   1.00
N69    N     0.18093   0.71359   0.72914   0.00000  Uiso   1.00
C70    C     0.17996   0.69965   0.72039   0.00000  Uiso   1.00
C71    C     0.18531   0.69439   0.67165   0.00000  Uiso   1.00
C72    C     0.19147   0.67955   0.66360   0.00000  Uiso   1.00
C73    C     0.19601   0.67442   0.61711   0.00000  Uiso   1.00
C74    C     0.19399   0.68404   0.57807   0.00000  Uiso   1.00
C75    C     0.18722   0.69885   0.58638   0.00000  Uiso   1.00
C76    C     0.18316   0.70402   0.63277   0.00000  Uiso   1.00
C77    C     0.19947   0.67875   0.52885   0.00000  Uiso   1.00
C78    C     0.71380   0.18774   0.49515   0.00000  Uiso   1.00
C79    C     0.71998   0.18256   0.44923   0.00000  Uiso   1.00
C80    C     0.21239   0.66825   0.43684   0.00000  Uiso   1.00
C81    C     0.19754   0.65936   0.46979   0.00000  Uiso   1.00
C82    C     0.19096   0.66459   0.51546   0.00000  Uiso   1.00
C83    C     0.41223   0.48625   0.38198   0.00000  Uiso   1.00
C84    C     0.91622   0.97928   0.33771   0.00000  Uiso   1.00
C85    C     0.93000   0.96572   0.33495   0.00000  Uiso   1.00
C86    C     0.93993   0.95913   0.37674   0.00000  Uiso   1.00
C87    C     0.43633   0.46636   0.42056   0.00000  Uiso   1.00
C88    C     0.42256   0.47984   0.42327   0.00000  Uiso   1.00
N89    N     0.95238   0.94483   0.37746   0.00000  Uiso   1.00
C90    C     0.45840   0.43629   0.34153   0.00000  Uiso   1.00
C91    C     0.46980   0.42158   0.35060   0.00000  Uiso   1.00
C92    C     0.47345   0.41667   0.39763   0.00000  Uiso   1.00
C93    C     0.48386   0.40266   0.40615   0.00000  Uiso   1.00
C94    C     0.49084   0.39330   0.36789   0.00000  Uiso   1.00
C95    C     0.98725   0.89817   0.32083   0.00000  Uiso   1.00
C96    C     0.97678   0.91223   0.31226   0.00000  Uiso   1.00
C97    C     0.50268   0.37865   0.37701   0.00000  Uiso   1.00
C98    C     0.49364   0.36647   0.35091   0.00000  Uiso   1.00
C99    C     0.50651   0.35288   0.35665   0.00000  Uiso   1.00
C100   C     0.52878   0.35128   0.38817   0.00000  Uiso   1.00
C101   C     0.03691   0.86327   0.41603   0.00000  Uiso   1.00
C102   C     0.02390   0.87688   0.41051   0.00000  Uiso   1.00
C103   C     0.62416   0.25598   0.88592   0.00000  Uiso   1.00
C104   C     0.61833   0.26116   0.83770   0.00000  Uiso   1.00
C105   C     0.09640   0.75486   0.81225   0.00000  Uiso   1.00
C106   C     0.08950   0.76061   0.76792   0.00000  Uiso   1.00
C107   C     0.60465   0.27254   0.74865   0.00000  Uiso   1.00
C108   C     0.62673   0.27876   0.77446   0.00000  Uiso   1.00
C109   C     0.63369   0.27297   0.81842   0.00000  Uiso   1.00
N110   N     0.59596   0.27878   0.70461   0.00000  Uiso   1.00
C111   C     0.61255   0.28639   0.67636   0.00000  Uiso   1.00
C112   C     0.60169   0.29392   0.63460   0.00000  Uiso   1.00
C113   C     0.61992   0.30323   0.60849   0.00000  Uiso   1.00
C114   C     0.61026   0.31093   0.56940   0.00000  Uiso   1.00
C115   C     0.58216   0.30941   0.55568   0.00000  Uiso   1.00
C116   C     0.56374   0.30017   0.58205   0.00000  Uiso   1.00
C117   C     0.57344   0.29246   0.62134   0.00000  Uiso   1.00
C118   C     0.57261   0.31703   0.51283   0.00000  Uiso   1.00
C119   C     0.04658   0.82441   0.51314   0.00000  Uiso   1.00
C120   C     0.03783   0.83149   0.47204   0.00000  Uiso   1.00
C121   C     0.55479   0.33123   0.43009   0.00000  Uiso   1.00
C122   C     0.58089   0.32391   0.43005   0.00000  Uiso   1.00
C123   C     0.58969   0.31687   0.47097   0.00000  Uiso   1.00
N124   N     0.22135   0.66235   0.39147   0.00000  Uiso   1.00
H125   H     0.07859   0.25127   0.94124   0.00000  Uiso   1.00
H126   H     0.06013   0.23794   0.01227   0.00000  Uiso   1.00
H127   H     0.62439   0.70483   0.98973   0.00000  Uiso   1.00
H128   H     0.64285   0.71814   0.91988   0.00000  Uiso   1.00
H129   H     0.58803   0.69206   0.02992   0.00000  Uiso   1.00
H130   H     0.57005   0.67210   0.08475   0.00000  Uiso   1.00
H131   H     0.56188   0.66292   0.16612   0.00000  Uiso   1.00
H132   H     0.57691   0.70650   0.22139   0.00000  Uiso   1.00
H133   H     0.58360   0.71570   0.14043   0.00000  Uiso   1.00
H134   H     0.04129   0.19808   0.27418   0.00000  Uiso   1.00
H135   H     0.03253   0.18879   0.35536   0.00000  Uiso   1.00
H136   H     0.57500   0.64841   0.31761   0.00000  Uiso   1.00
H137   H     0.58522   0.65779   0.23697   0.00000  Uiso   1.00
H138   H     0.85645   0.98412   0.47789   0.00000  Uiso   1.00
H139   H     0.83236   0.96039   0.48290   0.00000  Uiso   1.00
H140   H     0.32083   0.46138   0.33049   0.00000  Uiso   1.00
H141   H     0.34518   0.48519   0.32588   0.00000  Uiso   1.00
H142   H     0.30963   0.43955   0.47798   0.00000  Uiso   1.00
H143   H     0.29659   0.42371   0.35489   0.00000  Uiso   1.00
H144   H     0.27867   0.39922   0.33961   0.00000  Uiso   1.00
H145   H     0.77141   0.89103   0.49135   0.00000  Uiso   1.00
H146   H     0.79004   0.91565   0.50697   0.00000  Uiso   1.00
H147   H     0.28782   0.36751   0.45661   0.00000  Uiso   1.00
H148   H     0.26589   0.34346   0.44523   0.00000  Uiso   1.00
H149   H     0.71232   0.86187   0.33885   0.00000  Uiso   1.00
H150   H     0.73414   0.88599   0.35012   0.00000  Uiso   1.00
H151   H     0.67984   0.74613   0.95169   0.00000  Uiso   1.00
H152   H     0.69195   0.75624   0.03014   0.00000  Uiso   1.00
H153   H     0.12489   0.28818   0.01834   0.00000  Uiso   1.00
H154   H     0.11230   0.27765   0.94245   0.00000  Uiso   1.00
H155   H     0.12926   0.28814   0.09568   0.00000  Uiso   1.00
H156   H     0.12372   0.30620   0.15824   0.00000  Uiso   1.00
H157   H     0.14131   0.31974   0.22627   0.00000  Uiso   1.00
H158   H     0.22180   0.29763   0.20930   0.00000  Uiso   1.00
H159   H     0.20433   0.28433   0.14026   0.00000  Uiso   1.00
H160   H     0.73398   0.82300   0.23489   0.00000  Uiso   1.00
H161   H     0.75040   0.83493   0.30749   0.00000  Uiso   1.00
H162   H     0.17013   0.32568   0.37854   0.00000  Uiso   1.00
H163   H     0.15412   0.31344   0.30716   0.00000  Uiso   1.00
H164   H     0.68440   0.25128   0.83645   0.00000  Uiso   1.00
H165   H     0.70229   0.23793   0.76509   0.00000  Uiso   1.00
H166   H     0.13932   0.70435   0.79088   0.00000  Uiso   1.00
H167   H     0.12143   0.71767   0.86106   0.00000  Uiso   1.00
H168   H     0.17488   0.69182   0.74858   0.00000  Uiso   1.00
H169   H     0.19304   0.67200   0.69328   0.00000  Uiso   1.00
H170   H     0.20149   0.66297   0.61185   0.00000  Uiso   1.00
H171   H     0.18477   0.70643   0.55701   0.00000  Uiso   1.00
H172   H     0.17784   0.71549   0.63811   0.00000  Uiso   1.00
H173   H     0.72097   0.19861   0.50467   0.00000  Uiso   1.00
H174   H     0.73155   0.18945   0.42388   0.00000  Uiso   1.00
H175   H     0.19143   0.64831   0.46013   0.00000  Uiso   1.00
H176   H     0.17939   0.65754   0.54030   0.00000  Uiso   1.00
H177   H     0.90812   0.98418   0.30565   0.00000  Uiso   1.00
H178   H     0.93224   0.96046   0.30046   0.00000  Uiso   1.00
H179   H     0.44380   0.46135   0.45288   0.00000  Uiso   1.00
H180   H     0.41942   0.48515   0.45766   0.00000  Uiso   1.00
H181   H     0.45489   0.43965   0.30520   0.00000  Uiso   1.00
H182   H     0.46818   0.42362   0.42819   0.00000  Uiso   1.00
H183   H     0.48630   0.39910   0.44268   0.00000  Uiso   1.00
H184   H     0.99301   0.89120   0.29073   0.00000  Uiso   1.00
H185   H     0.97424   0.91581   0.27575   0.00000  Uiso   1.00
H186   H     0.47698   0.36755   0.32550   0.00000  Uiso   1.00
H187   H     0.49987   0.34367   0.33517   0.00000  Uiso   1.00
H188   H     0.05426   0.86224   0.44011   0.00000  Uiso   1.00
H189   H     0.03129   0.88618   0.43078   0.00000  Uiso   1.00
H190   H     0.08442   0.74571   0.82713   0.00000  Uiso   1.00
H191   H     0.07217   0.75588   0.74881   0.00000  Uiso   1.00
H192   H     0.63807   0.28839   0.76181   0.00000  Uiso   1.00
H193   H     0.65077   0.27786   0.83769   0.00000  Uiso   1.00
H194   H     0.63473   0.28762   0.68374   0.00000  Uiso   1.00
H195   H     0.64162   0.30467   0.61872   0.00000  Uiso   1.00
H196   H     0.62474   0.31815   0.54998   0.00000  Uiso   1.00
H197   H     0.54207   0.29870   0.57171   0.00000  Uiso   1.00
H198   H     0.55891   0.28538   0.64124   0.00000  Uiso   1.00
H199   H     0.03316   0.82478   0.54518   0.00000  Uiso   1.00
H200   H     0.01772   0.83708   0.47242   0.00000  Uiso   1.00
H201   H     0.59452   0.32364   0.39826   0.00000  Uiso   1.00
H202   H     0.60972   0.31112   0.46975   0.00000  Uiso   1.00
C203   C     0.11187   0.23556   0.92579   0.00000  Uiso   1.00
C204   C     0.58832   0.74103   0.95155   0.00000  Uiso   1.00
C205   C     0.57783   0.73348   0.99154   0.00000  Uiso   1.00
C206   C     0.09047   0.22033   0.00528   0.00000  Uiso   1.00
C207   C     0.11369   0.21470   0.97869   0.00000  Uiso   1.00
C208   C     0.12435   0.22232   0.93908   0.00000  Uiso   1.00
N209   N     0.08160   0.21380   0.04942   0.00000  Uiso   1.00
C210   C     0.08257   0.19985   0.05804   0.00000  Uiso   1.00
C211   C     0.07696   0.19454   0.10664   0.00000  Uiso   1.00
C212   C     0.07125   0.17965   0.11451   0.00000  Uiso   1.00
C213   C     0.06687   0.17443   0.16093   0.00000  Uiso   1.00
C214   C     0.06860   0.18404   0.20005   0.00000  Uiso   1.00
C215   C     0.07472   0.19893   0.19193   0.00000  Uiso   1.00
C216   C     0.07863   0.20417   0.14561   0.00000  Uiso   1.00
C217   C     0.06385   0.17862   0.24925   0.00000  Uiso   1.00
C218   C     0.54934   0.68736   0.28343   0.00000  Uiso   1.00
C219   C     0.54425   0.68211   0.32958   0.00000  Uiso   1.00
C220   C     0.05315   0.16800   0.34167   0.00000  Uiso   1.00
C221   C     0.06802   0.15933   0.30817   0.00000  Uiso   1.00
C222   C     0.07352   0.16464   0.26225   0.00000  Uiso   1.00
C223   C     0.85234   0.98625   0.40157   0.00000  Uiso   1.00
C224   C     0.34836   0.47924   0.44580   0.00000  Uiso   1.00
C225   C     0.33459   0.46568   0.44846   0.00000  Uiso   1.00
C226   C     0.32467   0.45912   0.40662   0.00000  Uiso   1.00
C227   C     0.82828   0.96638   0.36285   0.00000  Uiso   1.00
C228   C     0.84204   0.97986   0.36023   0.00000  Uiso   1.00
N229   N     0.31221   0.44482   0.40579   0.00000  Uiso   1.00
C230   C     0.80614   0.93624   0.44160   0.00000  Uiso   1.00
C231   C     0.79472   0.92154   0.43225   0.00000  Uiso   1.00
C232   C     0.79122   0.91671   0.38511   0.00000  Uiso   1.00
C233   C     0.78090   0.90272   0.37624   0.00000  Uiso   1.00
C234   C     0.77385   0.89327   0.41424   0.00000  Uiso   1.00
C235   C     0.27723   0.39807   0.46143   0.00000  Uiso   1.00
C236   C     0.28762   0.41213   0.47037   0.00000  Uiso   1.00
C237   C     0.76240   0.87856   0.40457   0.00000  Uiso   1.00
C238   C     0.77154   0.86637   0.43053   0.00000  Uiso   1.00
C239   C     0.75929   0.85267   0.42373   0.00000  Uiso   1.00
C240   C     0.73758   0.85096   0.39117   0.00000  Uiso   1.00
C241   C     0.22934   0.36296   0.36354   0.00000  Uiso   1.00
C242   C     0.24167   0.37669   0.37023   0.00000  Uiso   1.00
C243   C     0.63961   0.75614   0.89344   0.00000  Uiso   1.00
C244   C     0.64540   0.76130   0.94172   0.00000  Uiso   1.00
C245   C     0.16759   0.25514   0.96686   0.00000  Uiso   1.00
C246   C     0.17440   0.26085   0.01129   0.00000  Uiso   1.00
C247   C     0.65893   0.77262   0.03095   0.00000  Uiso   1.00
C248   C     0.63654   0.77867   0.00547   0.00000  Uiso   1.00
C249   C     0.62964   0.77290   0.96144   0.00000  Uiso   1.00
N250   N     0.66769   0.77887   0.07495   0.00000  Uiso   1.00
C251   C     0.65137   0.78666   0.10309   0.00000  Uiso   1.00
C252   C     0.66255   0.79418   0.14464   0.00000  Uiso   1.00
C253   C     0.64510   0.80421   0.16935   0.00000  Uiso   1.00
C254   C     0.65517   0.81194   0.20806   0.00000  Uiso   1.00
C255   C     0.68288   0.80969   0.22294   0.00000  Uiso   1.00
C256   C     0.70048   0.79969   0.19803   0.00000  Uiso   1.00
C257   C     0.69040   0.79198   0.15901   0.00000  Uiso   1.00
C258   C     0.69281   0.81732   0.26561   0.00000  Uiso   1.00
C259   C     0.21999   0.32349   0.26621   0.00000  Uiso   1.00
C260   C     0.22927   0.33038   0.30734   0.00000  Uiso   1.00
C261   C     0.71155   0.83113   0.34840   0.00000  Uiso   1.00
C262   C     0.68429   0.82511   0.34745   0.00000  Uiso   1.00
C263   C     0.67504   0.81825   0.30653   0.00000  Uiso   1.00
N264   N     0.04525   0.16195   0.38734   0.00000  Uiso   1.00
C265   C     0.65179   0.23535   0.85356   0.00000  Uiso   1.00
C266   C     0.17485   0.74093   0.82680   0.00000  Uiso   1.00
C267   C     0.18502   0.73337   0.78660   0.00000  Uiso   1.00
C268   C     0.67255   0.22010   0.77359   0.00000  Uiso   1.00
C269   C     0.64989   0.21434   0.80126   0.00000  Uiso   1.00
C270   C     0.63956   0.22196   0.84110   0.00000  Uiso   1.00
N271   N     0.68093   0.21359   0.72914   0.00000  Uiso   1.00
C272   C     0.67996   0.19965   0.72039   0.00000  Uiso   1.00
C273   C     0.68531   0.19439   0.67165   0.00000  Uiso   1.00
C274   C     0.69147   0.17955   0.66360   0.00000  Uiso   1.00
C275   C     0.69601   0.17442   0.61711   0.00000  Uiso   1.00
C276   C     0.69399   0.18404   0.57807   0.00000  Uiso   1.00
C277   C     0.68722   0.19885   0.58638   0.00000  Uiso   1.00
C278   C     0.68316   0.20402   0.63277   0.00000  Uiso   1.00
C279   C     0.69947   0.17875   0.52885   0.00000  Uiso   1.00
C280   C     0.21380   0.68774   0.49515   0.00000  Uiso   1.00
C281   C     0.21998   0.68256   0.44923   0.00000  Uiso   1.00
C282   C     0.71239   0.16825   0.43684   0.00000  Uiso   1.00
C283   C     0.69754   0.15936   0.46979   0.00000  Uiso   1.00
C284   C     0.69096   0.16459   0.51546   0.00000  Uiso   1.00
C285   C     0.91223   0.98625   0.38198   0.00000  Uiso   1.00
C286   C     0.41622   0.47928   0.33771   0.00000  Uiso   1.00
C287   C     0.43000   0.46572   0.33495   0.00000  Uiso   1.00
C288   C     0.43993   0.45913   0.37674   0.00000  Uiso   1.00
C289   C     0.93633   0.96636   0.42056   0.00000  Uiso   1.00
C290   C     0.92256   0.97984   0.42327   0.00000  Uiso   1.00
N291   N     0.45238   0.44483   0.37746   0.00000  Uiso   1.00
C292   C     0.95840   0.93629   0.34153   0.00000  Uiso   1.00
C293   C     0.96980   0.92158   0.35060   0.00000  Uiso   1.00
C294   C     0.97345   0.91667   0.39763   0.00000  Uiso   1.00
C295   C     0.98386   0.90266   0.40615   0.00000  Uiso   1.00
C296   C     0.99084   0.89330   0.36789   0.00000  Uiso   1.00
C297   C     0.48725   0.39817   0.32083   0.00000  Uiso   1.00
C298   C     0.47678   0.41223   0.31226   0.00000  Uiso   1.00
C299   C     0.00268   0.87865   0.37701   0.00000  Uiso   1.00
C300   C     0.99364   0.86647   0.35091   0.00000  Uiso   1.00
C301   C     0.00651   0.85288   0.35665   0.00000  Uiso   1.00
C302   C     0.02878   0.85128   0.38817   0.00000  Uiso   1.00
C303   C     0.53691   0.36327   0.41603   0.00000  Uiso   1.00
C304   C     0.52390   0.37688   0.41051   0.00000  Uiso   1.00
C305   C     0.12416   0.75598   0.88592   0.00000  Uiso   1.00
C306   C     0.11833   0.76116   0.83770   0.00000  Uiso   1.00
C307   C     0.59640   0.25486   0.81225   0.00000  Uiso   1.00
C308   C     0.58950   0.26061   0.76792   0.00000  Uiso   1.00
C309   C     0.10465   0.77254   0.74865   0.00000  Uiso   1.00
C310   C     0.12673   0.77876   0.77446   0.00000  Uiso   1.00
C311   C     0.13369   0.77297   0.81842   0.00000  Uiso   1.00
N312   N     0.09596   0.77878   0.70461   0.00000  Uiso   1.00
C313   C     0.11255   0.78639   0.67636   0.00000  Uiso   1.00
C314   C     0.10169   0.79392   0.63460   0.00000  Uiso   1.00
C315   C     0.11992   0.80323   0.60849   0.00000  Uiso   1.00
C316   C     0.11026   0.81093   0.56940   0.00000  Uiso   1.00
C317   C     0.08216   0.80941   0.55568   0.00000  Uiso   1.00
C318   C     0.06374   0.80017   0.58205   0.00000  Uiso   1.00
C319   C     0.07344   0.79246   0.62134   0.00000  Uiso   1.00
C320   C     0.07261   0.81703   0.51283   0.00000  Uiso   1.00
C321   C     0.54658   0.32441   0.51314   0.00000  Uiso   1.00
C322   C     0.53783   0.33149   0.47204   0.00000  Uiso   1.00
C323   C     0.05479   0.83123   0.43009   0.00000  Uiso   1.00
C324   C     0.08089   0.82391   0.43005   0.00000  Uiso   1.00
C325   C     0.08969   0.81687   0.47097   0.00000  Uiso   1.00
N326   N     0.72135   0.16235   0.39147   0.00000  Uiso   1.00
H327   H     0.57859   0.75127   0.94124   0.00000  Uiso   1.00
H328   H     0.56013   0.73794   0.01227   0.00000  Uiso   1.00
H329   H     0.12439   0.20483   0.98973   0.00000  Uiso   1.00
H330   H     0.14285   0.21814   0.91988   0.00000  Uiso   1.00
H331   H     0.08803   0.19206   0.02992   0.00000  Uiso   1.00
H332   H     0.07005   0.17210   0.08475   0.00000  Uiso   1.00
H333   H     0.06188   0.16292   0.16612   0.00000  Uiso   1.00
H334   H     0.07691   0.20650   0.22139   0.00000  Uiso   1.00
H335   H     0.08360   0.21570   0.14043   0.00000  Uiso   1.00
H336   H     0.54129   0.69808   0.27418   0.00000  Uiso   1.00
H337   H     0.53253   0.68879   0.35536   0.00000  Uiso   1.00
H338   H     0.07500   0.14841   0.31761   0.00000  Uiso   1.00
H339   H     0.08522   0.15779   0.23697   0.00000  Uiso   1.00
H340   H     0.35645   0.48412   0.47789   0.00000  Uiso   1.00
H341   H     0.33236   0.46039   0.48290   0.00000  Uiso   1.00
H342   H     0.82083   0.96138   0.33049   0.00000  Uiso   1.00
H343   H     0.84518   0.98519   0.32588   0.00000  Uiso   1.00
H344   H     0.80963   0.93955   0.47798   0.00000  Uiso   1.00
H345   H     0.79659   0.92371   0.35489   0.00000  Uiso   1.00
H346   H     0.77867   0.89922   0.33961   0.00000  Uiso   1.00
H347   H     0.27141   0.39103   0.49135   0.00000  Uiso   1.00
H348   H     0.29004   0.41565   0.50697   0.00000  Uiso   1.00
H349   H     0.78782   0.86751   0.45661   0.00000  Uiso   1.00
H350   H     0.76589   0.84346   0.44523   0.00000  Uiso   1.00
H351   H     0.21232   0.36187   0.33885   0.00000  Uiso   1.00
H352   H     0.23414   0.38599   0.35012   0.00000  Uiso   1.00
H353   H     0.17984   0.24613   0.95169   0.00000  Uiso   1.00
H354   H     0.19195   0.25624   0.03014   0.00000  Uiso   1.00
H355   H     0.62489   0.78818   0.01834   0.00000  Uiso   1.00
H356   H     0.61230   0.77765   0.94245   0.00000  Uiso   1.00
H357   H     0.62926   0.78814   0.09568   0.00000  Uiso   1.00
H358   H     0.62372   0.80620   0.15824   0.00000  Uiso   1.00
H359   H     0.64131   0.81974   0.22627   0.00000  Uiso   1.00
H360   H     0.72180   0.79763   0.20930   0.00000  Uiso   1.00
H361   H     0.70433   0.78433   0.14026   0.00000  Uiso   1.00
H362   H     0.23398   0.32300   0.23489   0.00000  Uiso   1.00
H363   H     0.25040   0.33493   0.30749   0.00000  Uiso   1.00
H364   H     0.67013   0.82568   0.37854   0.00000  Uiso   1.00
H365   H     0.65412   0.81344   0.30716   0.00000  Uiso   1.00
H366   H     0.18440   0.75128   0.83645   0.00000  Uiso   1.00
H367   H     0.20229   0.73793   0.76509   0.00000  Uiso   1.00
H368   H     0.63932   0.20435   0.79088   0.00000  Uiso   1.00
H369   H     0.62143   0.21767   0.86106   0.00000  Uiso   1.00
H370   H     0.67488   0.19182   0.74858   0.00000  Uiso   1.00
H371   H     0.69304   0.17200   0.69328   0.00000  Uiso   1.00
H372   H     0.70149   0.16297   0.61185   0.00000  Uiso   1.00
H373   H     0.68477   0.20643   0.55701   0.00000  Uiso   1.00
H374   H     0.67784   0.21549   0.63811   0.00000  Uiso   1.00
H375   H     0.22097   0.69861   0.50467   0.00000  Uiso   1.00
H376   H     0.23155   0.68945   0.42388   0.00000  Uiso   1.00
H377   H     0.69143   0.14831   0.46013   0.00000  Uiso   1.00
H378   H     0.67939   0.15754   0.54030   0.00000  Uiso   1.00
H379   H     0.40812   0.48418   0.30565   0.00000  Uiso   1.00
H380   H     0.43224   0.46046   0.30046   0.00000  Uiso   1.00
H381   H     0.94380   0.96135   0.45288   0.00000  Uiso   1.00
H382   H     0.91942   0.98515   0.45766   0.00000  Uiso   1.00
H383   H     0.95489   0.93965   0.30520   0.00000  Uiso   1.00
H384   H     0.96818   0.92362   0.42819   0.00000  Uiso   1.00
H385   H     0.98630   0.89910   0.44268   0.00000  Uiso   1.00
H386   H     0.49301   0.39120   0.29073   0.00000  Uiso   1.00
H387   H     0.47424   0.41581   0.27575   0.00000  Uiso   1.00
H388   H     0.97698   0.86755   0.32550   0.00000  Uiso   1.00
H389   H     0.99987   0.84367   0.33517   0.00000  Uiso   1.00
H390   H     0.55426   0.36224   0.44011   0.00000  Uiso   1.00
H391   H     0.53129   0.38618   0.43078   0.00000  Uiso   1.00
H392   H     0.58442   0.24571   0.82713   0.00000  Uiso   1.00
H393   H     0.57217   0.25588   0.74881   0.00000  Uiso   1.00
H394   H     0.13807   0.78839   0.76181   0.00000  Uiso   1.00
H395   H     0.15077   0.77786   0.83769   0.00000  Uiso   1.00
H396   H     0.13473   0.78762   0.68374   0.00000  Uiso   1.00
H397   H     0.14162   0.80467   0.61872   0.00000  Uiso   1.00
H398   H     0.12474   0.81815   0.54998   0.00000  Uiso   1.00
H399   H     0.04207   0.79870   0.57171   0.00000  Uiso   1.00
H400   H     0.05891   0.78538   0.64124   0.00000  Uiso   1.00
H401   H     0.53316   0.32478   0.54518   0.00000  Uiso   1.00
H402   H     0.51772   0.33708   0.47242   0.00000  Uiso   1.00
H403   H     0.09452   0.82364   0.39826   0.00000  Uiso   1.00
H404   H     0.10972   0.81112   0.46975   0.00000  Uiso   1.00
C405   C     0.38813   0.73556   0.07421   0.00000  Uiso   1.00
C406   C     0.91168   0.24103   0.04845   0.00000  Uiso   1.00
C407   C     0.92217   0.23348   0.00846   0.00000  Uiso   1.00
C408   C     0.40953   0.72033   0.99472   0.00000  Uiso   1.00
C409   C     0.38631   0.71470   0.02131   0.00000  Uiso   1.00
C410   C     0.37565   0.72232   0.06092   0.00000  Uiso   1.00
N411   N     0.41840   0.71380   0.95058   0.00000  Uiso   1.00
C412   C     0.41743   0.69985   0.94196   0.00000  Uiso   1.00
C413   C     0.42304   0.69454   0.89336   0.00000  Uiso   1.00
C414   C     0.42875   0.67965   0.88549   0.00000  Uiso   1.00
C415   C     0.43313   0.67443   0.83907   0.00000  Uiso   1.00
C416   C     0.43140   0.68404   0.79995   0.00000  Uiso   1.00
C417   C     0.42528   0.69893   0.80807   0.00000  Uiso   1.00
C418   C     0.42137   0.70417   0.85439   0.00000  Uiso   1.00
C419   C     0.43615   0.67862   0.75075   0.00000  Uiso   1.00
C420   C     0.95066   0.18736   0.71657   0.00000  Uiso   1.00
C421   C     0.95575   0.18211   0.67042   0.00000  Uiso   1.00
C422   C     0.44685   0.66800   0.65833   0.00000  Uiso   1.00
C423   C     0.43198   0.65933   0.69183   0.00000  Uiso   1.00
C424   C     0.42648   0.66464   0.73775   0.00000  Uiso   1.00
C425   C     0.64766   0.48625   0.59843   0.00000  Uiso   1.00
C426   C     0.15164   0.97924   0.55420   0.00000  Uiso   1.00
C427   C     0.16541   0.96568   0.55154   0.00000  Uiso   1.00
C428   C     0.17533   0.95912   0.59338   0.00000  Uiso   1.00
C429   C     0.67172   0.46638   0.63715   0.00000  Uiso   1.00
C430   C     0.65796   0.47986   0.63977   0.00000  Uiso   1.00
N431   N     0.18779   0.94482   0.59421   0.00000  Uiso   1.00
C432   C     0.69386   0.43624   0.55840   0.00000  Uiso   1.00
C433   C     0.70528   0.42154   0.56775   0.00000  Uiso   1.00
C434   C     0.70878   0.41671   0.61489   0.00000  Uiso   1.00
C435   C     0.71910   0.40272   0.62376   0.00000  Uiso   1.00
C436   C     0.72615   0.39327   0.58576   0.00000  Uiso   1.00
C437   C     0.22277   0.89807   0.53857   0.00000  Uiso   1.00
C438   C     0.21238   0.91213   0.52963   0.00000  Uiso   1.00
C439   C     0.73760   0.37856   0.59543   0.00000  Uiso   1.00
C440   C     0.72846   0.36637   0.56947   0.00000  Uiso   1.00
C441   C     0.74071   0.35267   0.57627   0.00000  Uiso   1.00
C442   C     0.76242   0.35096   0.60883   0.00000  Uiso   1.00
C443   C     0.27066   0.86296   0.63646   0.00000  Uiso   1.00
C444   C     0.25833   0.87669   0.62977   0.00000  Uiso   1.00
C445   C     0.86039   0.25614   0.10656   0.00000  Uiso   1.00
C446   C     0.85460   0.26130   0.05828   0.00000  Uiso   1.00
C447   C     0.33241   0.75514   0.03314   0.00000  Uiso   1.00
C448   C     0.32560   0.76085   0.98871   0.00000  Uiso   1.00
C449   C     0.84107   0.27262   0.96905   0.00000  Uiso   1.00
C450   C     0.86346   0.27867   0.99453   0.00000  Uiso   1.00
C451   C     0.87036   0.27290   0.03856   0.00000  Uiso   1.00
N452   N     0.83231   0.27887   0.92505   0.00000  Uiso   1.00
C453   C     0.84863   0.28666   0.89691   0.00000  Uiso   1.00
C454   C     0.83745   0.29418   0.85536   0.00000  Uiso   1.00
C455   C     0.85490   0.30421   0.83065   0.00000  Uiso   1.00
C456   C     0.84483   0.31194   0.79194   0.00000  Uiso   1.00
C457   C     0.81712   0.30969   0.77706   0.00000  Uiso   1.00
C458   C     0.79952   0.29969   0.80197   0.00000  Uiso   1.00
C459   C     0.80960   0.29198   0.84099   0.00000  Uiso   1.00
C460   C     0.80719   0.31732   0.73439   0.00000  Uiso   1.00
C461   C     0.28001   0.82349   0.73379   0.00000  Uiso   1.00
C462   C     0.27073   0.83038   0.69266   0.00000  Uiso   1.00
C463   C     0.78845   0.33113   0.65160   0.00000  Uiso   1.00
C464   C     0.81571   0.32511   0.65255   0.00000  Uiso   1.00
C465   C     0.82496   0.31825   0.69347   0.00000  Uiso   1.00
N466   N     0.45475   0.66195   0.61266   0.00000  Uiso   1.00
C467   C     0.84821   0.73535   0.14644   0.00000  Uiso   1.00
C468   C     0.32515   0.24093   0.17320   0.00000  Uiso   1.00
C469   C     0.31498   0.23337   0.21340   0.00000  Uiso   1.00
C470   C     0.82745   0.72010   0.22641   0.00000  Uiso   1.00
C471   C     0.85011   0.71434   0.19874   0.00000  Uiso   1.00
C472   C     0.86044   0.72196   0.15890   0.00000  Uiso   1.00
N473   N     0.81907   0.71359   0.27086   0.00000  Uiso   1.00
C474   C     0.82004   0.69965   0.27961   0.00000  Uiso   1.00
C475   C     0.81469   0.69439   0.32835   0.00000  Uiso   1.00
C476   C     0.80853   0.67955   0.33640   0.00000  Uiso   1.00
C477   C     0.80399   0.67442   0.38289   0.00000  Uiso   1.00
C478   C     0.80601   0.68404   0.42193   0.00000  Uiso   1.00
C479   C     0.81278   0.69885   0.41362   0.00000  Uiso   1.00
C480   C     0.81684   0.70402   0.36723   0.00000  Uiso   1.00
C481   C     0.80053   0.67875   0.47115   0.00000  Uiso   1.00
C482   C     0.28620   0.18774   0.50485   0.00000  Uiso   1.00
C483   C     0.28002   0.18256   0.55077   0.00000  Uiso   1.00
C484   C     0.78761   0.66825   0.56316   0.00000  Uiso   1.00
C485   C     0.80246   0.65936   0.53021   0.00000  Uiso   1.00
C486   C     0.80904   0.66459   0.48454   0.00000  Uiso   1.00
C487   C     0.58777   0.48625   0.61802   0.00000  Uiso   1.00
C488   C     0.08378   0.97928   0.66229   0.00000  Uiso   1.00
C489   C     0.07000   0.96572   0.66505   0.00000  Uiso   1.00
C490   C     0.06007   0.95913   0.62326   0.00000  Uiso   1.00
C491   C     0.56367   0.46636   0.57944   0.00000  Uiso   1.00
C492   C     0.57744   0.47984   0.57673   0.00000  Uiso   1.00
N493   N     0.04762   0.94483   0.62254   0.00000  Uiso   1.00
C494   C     0.54160   0.43629   0.65847   0.00000  Uiso   1.00
C495   C     0.53020   0.42158   0.64940   0.00000  Uiso   1.00
C496   C     0.52655   0.41667   0.60237   0.00000  Uiso   1.00
C497   C     0.51614   0.40266   0.59385   0.00000  Uiso   1.00
C498   C     0.50916   0.39330   0.63211   0.00000  Uiso   1.00
C499   C     0.01275   0.89817   0.67917   0.00000  Uiso   1.00
C500   C     0.02322   0.91223   0.68774   0.00000  Uiso   1.00
C501   C     0.49732   0.37865   0.62299   0.00000  Uiso   1.00
C502   C     0.50636   0.36647   0.64909   0.00000  Uiso   1.00
C503   C     0.49349   0.35288   0.64335   0.00000  Uiso   1.00
C504   C     0.47122   0.35128   0.61183   0.00000  Uiso   1.00
C505   C     0.96309   0.86327   0.58397   0.00000  Uiso   1.00
C506   C     0.97610   0.87688   0.58949   0.00000  Uiso   1.00
C507   C     0.37584   0.25598   0.11408   0.00000  Uiso   1.00
C508   C     0.38167   0.26116   0.16230   0.00000  Uiso   1.00
C509   C     0.90360   0.75486   0.18775   0.00000  Uiso   1.00
C510   C     0.91050   0.76061   0.23208   0.00000  Uiso   1.00
C511   C     0.39535   0.27254   0.25135   0.00000  Uiso   1.00
C512   C     0.37327   0.27876   0.22554   0.00000  Uiso   1.00
C513   C     0.36631   0.27297   0.18158   0.00000  Uiso   1.00
N514   N     0.40404   0.27878   0.29539   0.00000  Uiso   1.00
C515   C     0.38745   0.28639   0.32364   0.00000  Uiso   1.00
C516   C     0.39831   0.29392   0.36540   0.00000  Uiso   1.00
C517   C     0.38008   0.30323   0.39151   0.00000  Uiso   1.00
C518   C     0.38974   0.31093   0.43060   0.00000  Uiso   1.00
C519   C     0.41784   0.30941   0.44432   0.00000  Uiso   1.00
C520   C     0.43626   0.30017   0.41795   0.00000  Uiso   1.00
C521   C     0.42656   0.29246   0.37866   0.00000  Uiso   1.00
C522   C     0.42739   0.31703   0.48717   0.00000  Uiso   1.00
C523   C     0.95342   0.82441   0.48686   0.00000  Uiso   1.00
C524   C     0.96217   0.83149   0.52796   0.00000  Uiso   1.00
C525   C     0.44521   0.33123   0.56991   0.00000  Uiso   1.00
C526   C     0.41911   0.32391   0.56995   0.00000  Uiso   1.00
C527   C     0.41031   0.31687   0.52903   0.00000  Uiso   1.00
N528   N     0.77865   0.66235   0.60853   0.00000  Uiso   1.00
H529   H     0.92141   0.25127   0.05876   0.00000  Uiso   1.00
H530   H     0.93987   0.23794   0.98773   0.00000  Uiso   1.00
H531   H     0.37561   0.70483   0.01027   0.00000  Uiso   1.00
H532   H     0.35715   0.71814   0.08012   0.00000  Uiso   1.00
H533   H     0.41197   0.69206   0.97008   0.00000  Uiso   1.00
H534   H     0.42995   0.67210   0.91525   0.00000  Uiso   1.00
H535   H     0.43812   0.66292   0.83388   0.00000  Uiso   1.00
H536   H     0.42309   0.70650   0.77861   0.00000  Uiso   1.00
H537   H     0.41640   0.71570   0.85957   0.00000  Uiso   1.00
H538   H     0.95871   0.19808   0.72582   0.00000  Uiso   1.00
H539   H     0.96747   0.18879   0.64464   0.00000  Uiso   1.00
H540   H     0.42500   0.64841   0.68239   0.00000  Uiso   1.00
H541   H     0.41478   0.65779   0.76303   0.00000  Uiso   1.00
H542   H     0.14355   0.98412   0.52211   0.00000  Uiso   1.00
H543   H     0.16764   0.96039   0.51710   0.00000  Uiso   1.00
H544   H     0.67917   0.46138   0.66951   0.00000  Uiso   1.00
H545   H     0.65482   0.48519   0.67412   0.00000  Uiso   1.00
H546   H     0.69037   0.43955   0.52202   0.00000  Uiso   1.00
H547   H     0.70341   0.42371   0.64511   0.00000  Uiso   1.00
H548   H     0.72133   0.39922   0.66039   0.00000  Uiso   1.00
H549   H     0.22859   0.89103   0.50865   0.00000  Uiso   1.00
H550   H     0.20996   0.91565   0.49303   0.00000  Uiso   1.00
H551   H     0.71218   0.36751   0.54339   0.00000  Uiso   1.00
H552   H     0.73411   0.34346   0.55477   0.00000  Uiso   1.00
H553   H     0.28768   0.86187   0.66115   0.00000  Uiso   1.00
H554   H     0.26586   0.88599   0.64988   0.00000  Uiso   1.00
H555   H     0.32016   0.74613   0.04831   0.00000  Uiso   1.00
H556   H     0.30805   0.75624   0.96986   0.00000  Uiso   1.00
H557   H     0.87511   0.28818   0.98166   0.00000  Uiso   1.00
H558   H     0.88770   0.27765   0.05755   0.00000  Uiso   1.00
H559   H     0.87074   0.28814   0.90432   0.00000  Uiso   1.00
H560   H     0.87628   0.30620   0.84176   0.00000  Uiso   1.00
H561   H     0.85869   0.31974   0.77373   0.00000  Uiso   1.00
H562   H     0.77820   0.29763   0.79070   0.00000  Uiso   1.00
H563   H     0.79567   0.28433   0.85974   0.00000  Uiso   1.00
H564   H     0.26602   0.82300   0.76511   0.00000  Uiso   1.00
H565   H     0.24960   0.83493   0.69251   0.00000  Uiso   1.00
H566   H     0.82987   0.32568   0.62146   0.00000  Uiso   1.00
H567   H     0.84588   0.31344   0.69284   0.00000  Uiso   1.00
H568   H     0.31560   0.25128   0.16355   0.00000  Uiso   1.00
H569   H     0.29771   0.23793   0.23491   0.00000  Uiso   1.00
H570   H     0.86068   0.70435   0.20912   0.00000  Uiso   1.00
H571   H     0.87857   0.71767   0.13894   0.00000  Uiso   1.00
H572   H     0.82512   0.69182   0.25142   0.00000  Uiso   1.00
H573   H     0.80696   0.67200   0.30672   0.00000  Uiso   1.00
H574   H     0.79851   0.66297   0.38815   0.00000  Uiso   1.00
H575   H     0.81523   0.70643   0.44299   0.00000  Uiso   1.00
H576   H     0.82216   0.71549   0.36189   0.00000  Uiso   1.00
H577   H     0.27903   0.19861   0.49533   0.00000  Uiso   1.00
H578   H     0.26845   0.18945   0.57612   0.00000  Uiso   1.00
H579   H     0.80857   0.64831   0.53987   0.00000  Uiso   1.00
H580   H     0.82061   0.65754   0.45970   0.00000  Uiso   1.00
H581   H     0.09188   0.98418   0.69435   0.00000  Uiso   1.00
H582   H     0.06776   0.96046   0.69954   0.00000  Uiso   1.00
H583   H     0.55620   0.46135   0.54712   0.00000  Uiso   1.00
H584   H     0.58058   0.48515   0.54234   0.00000  Uiso   1.00
H585   H     0.54511   0.43965   0.69480   0.00000  Uiso   1.00
H586   H     0.53182   0.42362   0.57181   0.00000  Uiso   1.00
H587   H     0.51370   0.39910   0.55732   0.00000  Uiso   1.00
H588   H     0.00699   0.89120   0.70927   0.00000  Uiso   1.00
H589   H     0.02576   0.91581   0.72425   0.00000  Uiso   1.00
H590   H     0.52302   0.36755   0.67450   0.00000  Uiso   1.00
H591   H     0.50013   0.34367   0.66483   0.00000  Uiso   1.00
H592   H     0.94574   0.86224   0.55989   0.00000  Uiso   1.00
H593   H     0.96871   0.88618   0.56922   0.00000  Uiso   1.00
H594   H     0.91558   0.74571   0.17287   0.00000  Uiso   1.00
H595   H     0.92783   0.75588   0.25119   0.00000  Uiso   1.00
H596   H     0.36193   0.28839   0.23819   0.00000  Uiso   1.00
H597   H     0.34923   0.27786   0.16231   0.00000  Uiso   1.00
H598   H     0.36527   0.28762   0.31626   0.00000  Uiso   1.00
H599   H     0.35838   0.30467   0.38128   0.00000  Uiso   1.00
H600   H     0.37526   0.31815   0.45002   0.00000  Uiso   1.00
H601   H     0.45793   0.29870   0.42829   0.00000  Uiso   1.00
H602   H     0.44109   0.28538   0.35876   0.00000  Uiso   1.00
H603   H     0.96684   0.82478   0.45482   0.00000  Uiso   1.00
H604   H     0.98228   0.83708   0.52758   0.00000  Uiso   1.00
H605   H     0.40548   0.32364   0.60174   0.00000  Uiso   1.00
H606   H     0.39028   0.31112   0.53025   0.00000  Uiso   1.00
C607   C     0.88813   0.23556   0.07421   0.00000  Uiso   1.00
C608   C     0.41168   0.74103   0.04845   0.00000  Uiso   1.00
C609   C     0.42217   0.73348   0.00846   0.00000  Uiso   1.00
C610   C     0.90953   0.22033   0.99472   0.00000  Uiso   1.00
C611   C     0.88631   0.21470   0.02131   0.00000  Uiso   1.00
C612   C     0.87565   0.22232   0.06092   0.00000  Uiso   1.00
N613   N     0.91840   0.21380   0.95058   0.00000  Uiso   1.00
C614   C     0.91743   0.19985   0.94196   0.00000  Uiso   1.00
C615   C     0.92304   0.19454   0.89336   0.00000  Uiso   1.00
C616   C     0.92875   0.17965   0.88549   0.00000  Uiso   1.00
C617   C     0.93313   0.17443   0.83907   0.00000  Uiso   1.00
C618   C     0.93140   0.18404   0.79995   0.00000  Uiso   1.00
C619   C     0.92528   0.19893   0.80807   0.00000  Uiso   1.00
C620   C     0.92137   0.20417   0.85439   0.00000  Uiso   1.00
C621   C     0.93615   0.17862   0.75075   0.00000  Uiso   1.00
C622   C     0.45066   0.68736   0.71657   0.00000  Uiso   1.00
C623   C     0.45575   0.68211   0.67042   0.00000  Uiso   1.00
C624   C     0.94685   0.16800   0.65833   0.00000  Uiso   1.00
C625   C     0.93198   0.15933   0.69183   0.00000  Uiso   1.00
C626   C     0.92648   0.16464   0.73775   0.00000  Uiso   1.00
C627   C     0.14766   0.98625   0.59843   0.00000  Uiso   1.00
C628   C     0.65164   0.47924   0.55420   0.00000  Uiso   1.00
C629   C     0.66541   0.46568   0.55154   0.00000  Uiso   1.00
C630   C     0.67533   0.45912   0.59338   0.00000  Uiso   1.00
C631   C     0.17172   0.96638   0.63715   0.00000  Uiso   1.00
C632   C     0.15796   0.97986   0.63977   0.00000  Uiso   1.00
N633   N     0.68779   0.44482   0.59421   0.00000  Uiso   1.00
C634   C     0.19386   0.93624   0.55840   0.00000  Uiso   1.00
C635   C     0.20528   0.92154   0.56775   0.00000  Uiso   1.00
C636   C     0.20878   0.91671   0.61489   0.00000  Uiso   1.00
C637   C     0.21910   0.90272   0.62376   0.00000  Uiso   1.00
C638   C     0.22615   0.89327   0.58576   0.00000  Uiso   1.00
C639   C     0.72277   0.39807   0.53857   0.00000  Uiso   1.00
C640   C     0.71238   0.41213   0.52963   0.00000  Uiso   1.00
C641   C     0.23760   0.87856   0.59543   0.00000  Uiso   1.00
C642   C     0.22846   0.86637   0.56947   0.00000  Uiso   1.00
C643   C     0.24071   0.85267   0.57627   0.00000  Uiso   1.00
C644   C     0.26242   0.85096   0.60883   0.00000  Uiso   1.00
C645   C     0.77066   0.36296   0.63646   0.00000  Uiso   1.00
C646   C     0.75833   0.37669   0.62977   0.00000  Uiso   1.00
C647   C     0.36039   0.75614   0.10656   0.00000  Uiso   1.00
C648   C     0.35460   0.76130   0.05828   0.00000  Uiso   1.00
C649   C     0.83241   0.25514   0.03314   0.00000  Uiso   1.00
C650   C     0.82560   0.26085   0.98871   0.00000  Uiso   1.00
C651   C     0.34107   0.77262   0.96905   0.00000  Uiso   1.00
C652   C     0.36346   0.77867   0.99453   0.00000  Uiso   1.00
C653   C     0.37036   0.77290   0.03856   0.00000  Uiso   1.00
N654   N     0.33231   0.77887   0.92505   0.00000  Uiso   1.00
C655   C     0.34863   0.78666   0.89691   0.00000  Uiso   1.00
C656   C     0.33745   0.79418   0.85536   0.00000  Uiso   1.00
C657   C     0.35490   0.80421   0.83065   0.00000  Uiso   1.00
C658   C     0.34483   0.81194   0.79194   0.00000  Uiso   1.00
C659   C     0.31712   0.80969   0.77706   0.00000  Uiso   1.00
C660   C     0.29952   0.79969   0.80197   0.00000  Uiso   1.00
C661   C     0.30960   0.79198   0.84099   0.00000  Uiso   1.00
C662   C     0.30719   0.81732   0.73439   0.00000  Uiso   1.00
C663   C     0.78001   0.32349   0.73379   0.00000  Uiso   1.00
C664   C     0.77073   0.33038   0.69266   0.00000  Uiso   1.00
C665   C     0.28845   0.83113   0.65160   0.00000  Uiso   1.00
C666   C     0.31571   0.82511   0.65255   0.00000  Uiso   1.00
C667   C     0.32496   0.81825   0.69347   0.00000  Uiso   1.00
N668   N     0.95475   0.16195   0.61266   0.00000  Uiso   1.00
C669   C     0.34821   0.23535   0.14644   0.00000  Uiso   1.00
C670   C     0.82515   0.74093   0.17320   0.00000  Uiso   1.00
C671   C     0.81498   0.73337   0.21340   0.00000  Uiso   1.00
C672   C     0.32745   0.22010   0.22641   0.00000  Uiso   1.00
C673   C     0.35011   0.21434   0.19874   0.00000  Uiso   1.00
C674   C     0.36044   0.22196   0.15890   0.00000  Uiso   1.00
N675   N     0.31907   0.21359   0.27086   0.00000  Uiso   1.00
C676   C     0.32004   0.19965   0.27961   0.00000  Uiso   1.00
C677   C     0.31469   0.19439   0.32835   0.00000  Uiso   1.00
C678   C     0.30853   0.17955   0.33640   0.00000  Uiso   1.00
C679   C     0.30399   0.17442   0.38289   0.00000  Uiso   1.00
C680   C     0.30601   0.18404   0.42193   0.00000  Uiso   1.00
C681   C     0.31278   0.19885   0.41362   0.00000  Uiso   1.00
C682   C     0.31684   0.20402   0.36723   0.00000  Uiso   1.00
C683   C     0.30053   0.17875   0.47115   0.00000  Uiso   1.00
C684   C     0.78620   0.68774   0.50485   0.00000  Uiso   1.00
C685   C     0.78002   0.68256   0.55077   0.00000  Uiso   1.00
C686   C     0.28761   0.16825   0.56316   0.00000  Uiso   1.00
C687   C     0.30246   0.15936   0.53021   0.00000  Uiso   1.00
C688   C     0.30904   0.16459   0.48454   0.00000  Uiso   1.00
C689   C     0.08777   0.98625   0.61802   0.00000  Uiso   1.00
C690   C     0.58378   0.47928   0.66229   0.00000  Uiso   1.00
C691   C     0.57000   0.46572   0.66505   0.00000  Uiso   1.00
C692   C     0.56007   0.45913   0.62326   0.00000  Uiso   1.00
C693   C     0.06367   0.96636   0.57944   0.00000  Uiso   1.00
C694   C     0.07744   0.97984   0.57673   0.00000  Uiso   1.00
N695   N     0.54762   0.44483   0.62254   0.00000  Uiso   1.00
C696   C     0.04160   0.93629   0.65847   0.00000  Uiso   1.00
C697   C     0.03020   0.92158   0.64940   0.00000  Uiso   1.00
C698   C     0.02655   0.91667   0.60237   0.00000  Uiso   1.00
C699   C     0.01614   0.90266   0.59385   0.00000  Uiso   1.00
C700   C     0.00916   0.89330   0.63211   0.00000  Uiso   1.00
C701   C     0.51275   0.39817   0.67917   0.00000  Uiso   1.00
C702   C     0.52322   0.41223   0.68774   0.00000  Uiso   1.00
C703   C     0.99732   0.87865   0.62299   0.00000  Uiso   1.00
C704   C     0.00636   0.86647   0.64909   0.00000  Uiso   1.00
C705   C     0.99349   0.85288   0.64335   0.00000  Uiso   1.00
C706   C     0.97122   0.85128   0.61183   0.00000  Uiso   1.00
C707   C     0.46309   0.36327   0.58397   0.00000  Uiso   1.00
C708   C     0.47610   0.37688   0.58949   0.00000  Uiso   1.00
C709   C     0.87584   0.75598   0.11408   0.00000  Uiso   1.00
C710   C     0.88167   0.76116   0.16230   0.00000  Uiso   1.00
C711   C     0.40360   0.25486   0.18775   0.00000  Uiso   1.00
C712   C     0.41050   0.26061   0.23208   0.00000  Uiso   1.00
C713   C     0.89535   0.77254   0.25135   0.00000  Uiso   1.00
C714   C     0.87327   0.77876   0.22554   0.00000  Uiso   1.00
C715   C     0.86631   0.77297   0.18158   0.00000  Uiso   1.00
N716   N     0.90404   0.77878   0.29539   0.00000  Uiso   1.00
C717   C     0.88745   0.78639   0.32364   0.00000  Uiso   1.00
C718   C     0.89831   0.79392   0.36540   0.00000  Uiso   1.00
C719   C     0.88008   0.80323   0.39151   0.00000  Uiso   1.00
C720   C     0.88974   0.81093   0.43060   0.00000  Uiso   1.00
C721   C     0.91784   0.80941   0.44432   0.00000  Uiso   1.00
C722   C     0.93626   0.80017   0.41795   0.00000  Uiso   1.00
C723   C     0.92656   0.79246   0.37866   0.00000  Uiso   1.00
C724   C     0.92739   0.81703   0.48717   0.00000  Uiso   1.00
C725   C     0.45342   0.32441   0.48686   0.00000  Uiso   1.00
C726   C     0.46217   0.33149   0.52796   0.00000  Uiso   1.00
C727   C     0.94521   0.83123   0.56991   0.00000  Uiso   1.00
C728   C     0.91911   0.82391   0.56995   0.00000  Uiso   1.00
C729   C     0.91031   0.81687   0.52903   0.00000  Uiso   1.00
N730   N     0.27865   0.16235   0.60853   0.00000  Uiso   1.00
H731   H     0.42141   0.75127   0.05876   0.00000  Uiso   1.00
H732   H     0.43987   0.73794   0.98773   0.00000  Uiso   1.00
H733   H     0.87561   0.20483   0.01027   0.00000  Uiso   1.00
H734   H     0.85715   0.21814   0.08012   0.00000  Uiso   1.00
H735   H     0.91197   0.19206   0.97008   0.00000  Uiso   1.00
H736   H     0.92995   0.17210   0.91525   0.00000  Uiso   1.00
H737   H     0.93812   0.16292   0.83388   0.00000  Uiso   1.00
H738   H     0.92309   0.20650   0.77861   0.00000  Uiso   1.00
H739   H     0.91640   0.21570   0.85957   0.00000  Uiso   1.00
H740   H     0.45871   0.69808   0.72582   0.00000  Uiso   1.00
H741   H     0.46747   0.68879   0.64464   0.00000  Uiso   1.00
H742   H     0.92500   0.14841   0.68239   0.00000  Uiso   1.00
H743   H     0.91478   0.15779   0.76303   0.00000  Uiso   1.00
H744   H     0.64355   0.48412   0.52211   0.00000  Uiso   1.00
H745   H     0.66764   0.46039   0.51710   0.00000  Uiso   1.00
H746   H     0.17917   0.96138   0.66951   0.00000  Uiso   1.00
H747   H     0.15482   0.98519   0.67412   0.00000  Uiso   1.00
H748   H     0.19037   0.93955   0.52202   0.00000  Uiso   1.00
H749   H     0.20341   0.92371   0.64511   0.00000  Uiso   1.00
H750   H     0.22133   0.89922   0.66039   0.00000  Uiso   1.00
H751   H     0.72859   0.39103   0.50865   0.00000  Uiso   1.00
H752   H     0.70996   0.41565   0.49303   0.00000  Uiso   1.00
H753   H     0.21218   0.86751   0.54339   0.00000  Uiso   1.00
H754   H     0.23411   0.84346   0.55477   0.00000  Uiso   1.00
H755   H     0.78768   0.36187   0.66115   0.00000  Uiso   1.00
H756   H     0.76586   0.38599   0.64988   0.00000  Uiso   1.00
H757   H     0.82016   0.24613   0.04831   0.00000  Uiso   1.00
H758   H     0.80805   0.25624   0.96986   0.00000  Uiso   1.00
H759   H     0.37511   0.78818   0.98166   0.00000  Uiso   1.00
H760   H     0.38770   0.77765   0.05755   0.00000  Uiso   1.00
H761   H     0.37074   0.78814   0.90432   0.00000  Uiso   1.00
H762   H     0.37628   0.80620   0.84176   0.00000  Uiso   1.00
H763   H     0.35869   0.81974   0.77373   0.00000  Uiso   1.00
H764   H     0.27820   0.79763   0.79070   0.00000  Uiso   1.00
H765   H     0.29567   0.78433   0.85974   0.00000  Uiso   1.00
H766   H     0.76602   0.32300   0.76511   0.00000  Uiso   1.00
H767   H     0.74960   0.33493   0.69251   0.00000  Uiso   1.00
H768   H     0.32987   0.82568   0.62146   0.00000  Uiso   1.00
H769   H     0.34588   0.81344   0.69284   0.00000  Uiso   1.00
H770   H     0.81560   0.75128   0.16355   0.00000  Uiso   1.00
H771   H     0.79771   0.73793   0.23491   0.00000  Uiso   1.00
H772   H     0.36068   0.20435   0.20912   0.00000  Uiso   1.00
H773   H     0.37857   0.21767   0.13894   0.00000  Uiso   1.00
H774   H     0.32512   0.19182   0.25142   0.00000  Uiso   1.00
H775   H     0.30696   0.17200   0.30672   0.00000  Uiso   1.00
H776   H     0.29851   0.16297   0.38815   0.00000  Uiso   1.00
H777   H     0.31523   0.20643   0.44299   0.00000  Uiso   1.00
H778   H     0.32216   0.21549   0.36189   0.00000  Uiso   1.00
H779   H     0.77903   0.69861   0.49533   0.00000  Uiso   1.00
H780   H     0.76845   0.68945   0.57612   0.00000  Uiso   1.00
H781   H     0.30857   0.14831   0.53987   0.00000  Uiso   1.00
H782   H     0.32061   0.15754   0.45970   0.00000  Uiso   1.00
H783   H     0.59188   0.48418   0.69435   0.00000  Uiso   1.00
H784   H     0.56776   0.46046   0.69954   0.00000  Uiso   1.00
H785   H     0.05620   0.96135   0.54712   0.00000  Uiso   1.00
H786   H     0.08058   0.98515   0.54234   0.00000  Uiso   1.00
H787   H     0.04511   0.93965   0.69480   0.00000  Uiso   1.00
H788   H     0.03182   0.92362   0.57181   0.00000  Uiso   1.00
H789   H     0.01370   0.89910   0.55732   0.00000  Uiso   1.00
H790   H     0.50699   0.39120   0.70927   0.00000  Uiso   1.00
H791   H     0.52576   0.41581   0.72425   0.00000  Uiso   1.00
H792   H     0.02302   0.86755   0.67450   0.00000  Uiso   1.00
H793   H     0.00013   0.84367   0.66483   0.00000  Uiso   1.00
H794   H     0.44574   0.36224   0.55989   0.00000  Uiso   1.00
H795   H     0.46871   0.38618   0.56922   0.00000  Uiso   1.00
H796   H     0.41558   0.24571   0.17287   0.00000  Uiso   1.00
H797   H     0.42783   0.25588   0.25119   0.00000  Uiso   1.00
H798   H     0.86193   0.78839   0.23819   0.00000  Uiso   1.00
H799   H     0.84923   0.77786   0.16231   0.00000  Uiso   1.00
H800   H     0.86527   0.78762   0.31626   0.00000  Uiso   1.00
H801   H     0.85838   0.80467   0.38128   0.00000  Uiso   1.00
H802   H     0.87526   0.81815   0.45002   0.00000  Uiso   1.00
H803   H     0.95793   0.79870   0.42829   0.00000  Uiso   1.00
H804   H     0.94109   0.78538   0.35876   0.00000  Uiso   1.00
H805   H     0.46684   0.32478   0.45482   0.00000  Uiso   1.00
H806   H     0.48228   0.33708   0.52758   0.00000  Uiso   1.00
H807   H     0.90548   0.82364   0.60174   0.00000  Uiso   1.00
H808   H     0.89028   0.81112   0.53025   0.00000  Uiso   1.00
C809   C     0.38813   0.26444   0.07421   0.00000  Uiso   1.00
C810   C     0.91168   0.75897   0.04845   0.00000  Uiso   1.00
C811   C     0.92217   0.76652   0.00846   0.00000  Uiso   1.00
C812   C     0.40953   0.27967   0.99472   0.00000  Uiso   1.00
C813   C     0.38631   0.28530   0.02131   0.00000  Uiso   1.00
C814   C     0.37565   0.27768   0.06092   0.00000  Uiso   1.00
N815   N     0.41840   0.28620   0.95058   0.00000  Uiso   1.00
C816   C     0.41743   0.30015   0.94196   0.00000  Uiso   1.00
C817   C     0.42304   0.30546   0.89336   0.00000  Uiso   1.00
C818   C     0.42875   0.32035   0.88549   0.00000  Uiso   1.00
C819   C     0.43313   0.32557   0.83907   0.00000  Uiso   1.00
C820   C     0.43140   0.31596   0.79995   0.00000  Uiso   1.00
C821   C     0.42528   0.30107   0.80807   0.00000  Uiso   1.00
C822   C     0.42137   0.29583   0.85439   0.00000  Uiso   1.00
C823   C     0.43615   0.32138   0.75075   0.00000  Uiso   1.00
C824   C     0.95066   0.81264   0.71657   0.00000  Uiso   1.00
C825   C     0.95575   0.81789   0.67042   0.00000  Uiso   1.00
C826   C     0.44685   0.33200   0.65833   0.00000  Uiso   1.00
C827   C     0.43198   0.34067   0.69183   0.00000  Uiso   1.00
C828   C     0.42648   0.33536   0.73775   0.00000  Uiso   1.00
C829   C     0.64766   0.51375   0.59843   0.00000  Uiso   1.00
C830   C     0.15164   0.02076   0.55420   0.00000  Uiso   1.00
C831   C     0.16541   0.03432   0.55154   0.00000  Uiso   1.00
C832   C     0.17533   0.04088   0.59338   0.00000  Uiso   1.00
C833   C     0.67172   0.53362   0.63715   0.00000  Uiso   1.00
C834   C     0.65796   0.52014   0.63977   0.00000  Uiso   1.00
N835   N     0.18779   0.05518   0.59421   0.00000  Uiso   1.00
C836   C     0.69386   0.56376   0.55840   0.00000  Uiso   1.00
C837   C     0.70528   0.57846   0.56775   0.00000  Uiso   1.00
C838   C     0.70878   0.58329   0.61489   0.00000  Uiso   1.00
C839   C     0.71910   0.59728   0.62376   0.00000  Uiso   1.00
C840   C     0.72615   0.60673   0.58576   0.00000  Uiso   1.00
C841   C     0.22277   0.10193   0.53857   0.00000  Uiso   1.00
C842   C     0.21238   0.08787   0.52963   0.00000  Uiso   1.00
C843   C     0.73760   0.62144   0.59543   0.00000  Uiso   1.00
C844   C     0.72846   0.63363   0.56947   0.00000  Uiso   1.00
C845   C     0.74071   0.64733   0.57627   0.00000  Uiso   1.00
C846   C     0.76242   0.64904   0.60883   0.00000  Uiso   1.00
C847   C     0.27066   0.13704   0.63646   0.00000  Uiso   1.00
C848   C     0.25833   0.12331   0.62977   0.00000  Uiso   1.00
C849   C     0.86039   0.74386   0.10656   0.00000  Uiso   1.00
C850   C     0.85460   0.73870   0.05828   0.00000  Uiso   1.00
C851   C     0.33241   0.24486   0.03314   0.00000  Uiso   1.00
C852   C     0.32560   0.23915   0.98871   0.00000  Uiso   1.00
C853   C     0.84107   0.72738   0.96905   0.00000  Uiso   1.00
C854   C     0.86346   0.72133   0.99453   0.00000  Uiso   1.00
C855   C     0.87036   0.72710   0.03856   0.00000  Uiso   1.00
N856   N     0.83231   0.72113   0.92505   0.00000  Uiso   1.00
C857   C     0.84863   0.71334   0.89691   0.00000  Uiso   1.00
C858   C     0.83745   0.70582   0.85536   0.00000  Uiso   1.00
C859   C     0.85490   0.69579   0.83065   0.00000  Uiso   1.00
C860   C     0.84483   0.68806   0.79194   0.00000  Uiso   1.00
C861   C     0.81712   0.69031   0.77706   0.00000  Uiso   1.00
C862   C     0.79952   0.70031   0.80197   0.00000  Uiso   1.00
C863   C     0.80960   0.70802   0.84099   0.00000  Uiso   1.00
C864   C     0.80719   0.68268   0.73439   0.00000  Uiso   1.00
C865   C     0.28001   0.17651   0.73379   0.00000  Uiso   1.00
C866   C     0.27073   0.16962   0.69266   0.00000  Uiso   1.00
C867   C     0.78845   0.66887   0.65160   0.00000  Uiso   1.00
C868   C     0.81571   0.67489   0.65255   0.00000  Uiso   1.00
C869   C     0.82496   0.68175   0.69347   0.00000  Uiso   1.00
N870   N     0.45475   0.33805   0.61266   0.00000  Uiso   1.00
C871   C     0.84821   0.26465   0.14644   0.00000  Uiso   1.00
C872   C     0.32515   0.75907   0.17320   0.00000  Uiso   1.00
C873   C     0.31498   0.76663   0.21340   0.00000  Uiso   1.00
C874   C     0.82745   0.27990   0.22641   0.00000  Uiso   1.00
C875   C     0.85011   0.28566   0.19874   0.00000  Uiso   1.00
C876   C     0.86044   0.27804   0.15890   0.00000  Uiso   1.00
N877   N     0.81907   0.28641   0.27086   0.00000  Uiso   1.00
C878   C     0.82004   0.30035   0.27961   0.00000  Uiso   1.00
C879   C     0.81469   0.30561   0.32835   0.00000  Uiso   1.00
C880   C     0.80853   0.32045   0.33640   0.00000  Uiso   1.00
C881   C     0.80399   0.32558   0.38289   0.00000  Uiso   1.00
C882   C     0.80601   0.31596   0.42193   0.00000  Uiso   1.00
C883   C     0.81278   0.30115   0.41362   0.00000  Uiso   1.00
C884   C     0.81684   0.29598   0.36723   0.00000  Uiso   1.00
C885   C     0.80053   0.32125   0.47115   0.00000  Uiso   1.00
C886   C     0.28620   0.81226   0.50485   0.00000  Uiso   1.00
C887   C     0.28002   0.81744   0.55077   0.00000  Uiso   1.00
C888   C     0.78761   0.33175   0.56316   0.00000  Uiso   1.00
C889   C     0.80246   0.34064   0.53021   0.00000  Uiso   1.00
C890   C     0.80904   0.33541   0.48454   0.00000  Uiso   1.00
C891   C     0.58777   0.51375   0.61802   0.00000  Uiso   1.00
C892   C     0.08378   0.02072   0.66229   0.00000  Uiso   1.00
C893   C     0.07000   0.03428   0.66505   0.00000  Uiso   1.00
C894   C     0.06007   0.04087   0.62326   0.00000  Uiso   1.00
C895   C     0.56367   0.53364   0.57944   0.00000  Uiso   1.00
C896   C     0.57744   0.52016   0.57673   0.00000  Uiso   1.00
N897   N     0.04762   0.05517   0.62254   0.00000  Uiso   1.00
C898   C     0.54160   0.56371   0.65847   0.00000  Uiso   1.00
C899   C     0.53020   0.57842   0.64940   0.00000  Uiso   1.00
C900   C     0.52655   0.58333   0.60237   0.00000  Uiso   1.00
C901   C     0.51614   0.59734   0.59385   0.00000  Uiso   1.00
C902   C     0.50916   0.60670   0.63211   0.00000  Uiso   1.00
C903   C     0.01275   0.10183   0.67917   0.00000  Uiso   1.00
C904   C     0.02322   0.08777   0.68774   0.00000  Uiso   1.00
C905   C     0.49732   0.62135   0.62299   0.00000  Uiso   1.00
C906   C     0.50636   0.63353   0.64909   0.00000  Uiso   1.00
C907   C     0.49349   0.64712   0.64335   0.00000  Uiso   1.00
C908   C     0.47122   0.64872   0.61183   0.00000  Uiso   1.00
C909   C     0.96309   0.13673   0.58397   0.00000  Uiso   1.00
C910   C     0.97610   0.12312   0.58949   0.00000  Uiso   1.00
C911   C     0.37584   0.74402   0.11408   0.00000  Uiso   1.00
C912   C     0.38167   0.73884   0.16230   0.00000  Uiso   1.00
C913   C     0.90360   0.24514   0.18775   0.00000  Uiso   1.00
C914   C     0.91050   0.23939   0.23208   0.00000  Uiso   1.00
C915   C     0.39535   0.72746   0.25135   0.00000  Uiso   1.00
C916   C     0.37327   0.72124   0.22554   0.00000  Uiso   1.00
C917   C     0.36631   0.72703   0.18158   0.00000  Uiso   1.00
N918   N     0.40404   0.72122   0.29539   0.00000  Uiso   1.00
C919   C     0.38745   0.71361   0.32364   0.00000  Uiso   1.00
C920   C     0.39831   0.70608   0.36540   0.00000  Uiso   1.00
C921   C     0.38008   0.69677   0.39151   0.00000  Uiso   1.00
C922   C     0.38974   0.68907   0.43060   0.00000  Uiso   1.00
C923   C     0.41784   0.69059   0.44432   0.00000  Uiso   1.00
C924   C     0.43626   0.69983   0.41795   0.00000  Uiso   1.00
C925   C     0.42656   0.70754   0.37866   0.00000  Uiso   1.00
C926   C     0.42739   0.68297   0.48717   0.00000  Uiso   1.00
C927   C     0.95342   0.17559   0.48686   0.00000  Uiso   1.00
C928   C     0.96217   0.16851   0.52796   0.00000  Uiso   1.00
C929   C     0.44521   0.66877   0.56991   0.00000  Uiso   1.00
C930   C     0.41911   0.67609   0.56995   0.00000  Uiso   1.00
C931   C     0.41031   0.68313   0.52903   0.00000  Uiso   1.00
N932   N     0.77865   0.33765   0.60853   0.00000  Uiso   1.00
H933   H     0.92141   0.74873   0.05876   0.00000  Uiso   1.00
H934   H     0.93987   0.76206   0.98773   0.00000  Uiso   1.00
H935   H     0.37561   0.29517   0.01027   0.00000  Uiso   1.00
H936   H     0.35715   0.28186   0.08012   0.00000  Uiso   1.00
H937   H     0.41197   0.30794   0.97008   0.00000  Uiso   1.00
H938   H     0.42995   0.32790   0.91525   0.00000  Uiso   1.00
H939   H     0.43812   0.33708   0.83388   0.00000  Uiso   1.00
H940   H     0.42309   0.29350   0.77861   0.00000  Uiso   1.00
H941   H     0.41640   0.28430   0.85957   0.00000  Uiso   1.00
H942   H     0.95871   0.80192   0.72582   0.00000  Uiso   1.00
H943   H     0.96747   0.81121   0.64464   0.00000  Uiso   1.00
H944   H     0.42500   0.35159   0.68239   0.00000  Uiso   1.00
H945   H     0.41478   0.34221   0.76303   0.00000  Uiso   1.00
H946   H     0.14355   0.01588   0.52211   0.00000  Uiso   1.00
H947   H     0.16764   0.03961   0.51710   0.00000  Uiso   1.00
H948   H     0.67917   0.53862   0.66951   0.00000  Uiso   1.00
H949   H     0.65482   0.51481   0.67412   0.00000  Uiso   1.00
H950   H     0.69037   0.56045   0.52202   0.00000  Uiso   1.00
H951   H     0.70341   0.57629   0.64511   0.00000  Uiso   1.00
H952   H     0.72133   0.60078   0.66039   0.00000  Uiso   1.00
H953   H     0.22859   0.10897   0.50865   0.00000  Uiso   1.00
H954   H     0.20996   0.08435   0.49303   0.00000  Uiso   1.00
H955   H     0.71218   0.63249   0.54339   0.00000  Uiso   1.00
H956   H     0.73411   0.65654   0.55477   0.00000  Uiso   1.00
H957   H     0.28768   0.13813   0.66115   0.00000  Uiso   1.00
H958   H     0.26586   0.11401   0.64988   0.00000  Uiso   1.00
H959   H     0.32016   0.25387   0.04831   0.00000  Uiso   1.00
H960   H     0.30805   0.24376   0.96986   0.00000  Uiso   1.00
H961   H     0.87511   0.71182   0.98166   0.00000  Uiso   1.00
H962   H     0.88770   0.72235   0.05755   0.00000  Uiso   1.00
H963   H     0.87074   0.71186   0.90432   0.00000  Uiso   1.00
H964   H     0.87628   0.69380   0.84176   0.00000  Uiso   1.00
H965   H     0.85869   0.68026   0.77373   0.00000  Uiso   1.00
H966   H     0.77820   0.70237   0.79070   0.00000  Uiso   1.00
H967   H     0.79567   0.71567   0.85974   0.00000  Uiso   1.00
H968   H     0.26602   0.17700   0.76511   0.00000  Uiso   1.00
H969   H     0.24960   0.16507   0.69251   0.00000  Uiso   1.00
H970   H     0.82987   0.67432   0.62146   0.00000  Uiso   1.00
H971   H     0.84588   0.68656   0.69284   0.00000  Uiso   1.00
H972   H     0.31560   0.74872   0.16355   0.00000  Uiso   1.00
H973   H     0.29771   0.76207   0.23491   0.00000  Uiso   1.00
H974   H     0.86068   0.29565   0.20912   0.00000  Uiso   1.00
H975   H     0.87857   0.28233   0.13894   0.00000  Uiso   1.00
H976   H     0.82512   0.30818   0.25142   0.00000  Uiso   1.00
H977   H     0.80696   0.32800   0.30672   0.00000  Uiso   1.00
H978   H     0.79851   0.33703   0.38815   0.00000  Uiso   1.00
H979   H     0.81523   0.29357   0.44299   0.00000  Uiso   1.00
H980   H     0.82216   0.28451   0.36189   0.00000  Uiso   1.00
H981   H     0.27903   0.80139   0.49533   0.00000  Uiso   1.00
H982   H     0.26845   0.81055   0.57612   0.00000  Uiso   1.00
H983   H     0.80857   0.35169   0.53987   0.00000  Uiso   1.00
H984   H     0.82061   0.34246   0.45970   0.00000  Uiso   1.00
H985   H     0.09188   0.01582   0.69435   0.00000  Uiso   1.00
H986   H     0.06776   0.03954   0.69954   0.00000  Uiso   1.00
H987   H     0.55620   0.53865   0.54712   0.00000  Uiso   1.00
H988   H     0.58058   0.51485   0.54234   0.00000  Uiso   1.00
H989   H     0.54511   0.56035   0.69480   0.00000  Uiso   1.00
H990   H     0.53182   0.57638   0.57181   0.00000  Uiso   1.00
H991   H     0.51370   0.60090   0.55732   0.00000  Uiso   1.00
H992   H     0.00699   0.10880   0.70927   0.00000  Uiso   1.00
H993   H     0.02576   0.08419   0.72425   0.00000  Uiso   1.00
H994   H     0.52302   0.63245   0.67450   0.00000  Uiso   1.00
H995   H     0.50013   0.65633   0.66483   0.00000  Uiso   1.00
H996   H     0.94574   0.13776   0.55989   0.00000  Uiso   1.00
H997   H     0.96871   0.11382   0.56922   0.00000  Uiso   1.00
H998   H     0.91558   0.25429   0.17287   0.00000  Uiso   1.00
H999   H     0.92783   0.24412   0.25119   0.00000  Uiso   1.00
H1000  H     0.36193   0.71161   0.23819   0.00000  Uiso   1.00
H1001  H     0.34923   0.72214   0.16231   0.00000  Uiso   1.00
H1002  H     0.36527   0.71238   0.31626   0.00000  Uiso   1.00
H1003  H     0.35838   0.69533   0.38128   0.00000  Uiso   1.00
H1004  H     0.37526   0.68185   0.45002   0.00000  Uiso   1.00
H1005  H     0.45793   0.70130   0.42829   0.00000  Uiso   1.00
H1006  H     0.44109   0.71462   0.35876   0.00000  Uiso   1.00
H1007  H     0.96684   0.17522   0.45482   0.00000  Uiso   1.00
H1008  H     0.98228   0.16292   0.52758   0.00000  Uiso   1.00
H1009  H     0.40548   0.67636   0.60174   0.00000  Uiso   1.00
H1010  H     0.39028   0.68888   0.53025   0.00000  Uiso   1.00
C1011  C     0.88813   0.76444   0.07421   0.00000  Uiso   1.00
C1012  C     0.41168   0.25897   0.04845   0.00000  Uiso   1.00
C1013  C     0.42217   0.26652   0.00846   0.00000  Uiso   1.00
C1014  C     0.90953   0.77967   0.99472   0.00000  Uiso   1.00
C1015  C     0.88631   0.78530   0.02131   0.00000  Uiso   1.00
C1016  C     0.87565   0.77768   0.06092   0.00000  Uiso   1.00
N1017  N     0.91840   0.78620   0.95058   0.00000  Uiso   1.00
C1018  C     0.91743   0.80015   0.94196   0.00000  Uiso   1.00
C1019  C     0.92304   0.80546   0.89336   0.00000  Uiso   1.00
C1020  C     0.92875   0.82035   0.88549   0.00000  Uiso   1.00
C1021  C     0.93313   0.82557   0.83907   0.00000  Uiso   1.00
C1022  C     0.93140   0.81596   0.79995   0.00000  Uiso   1.00
C1023  C     0.92528   0.80107   0.80807   0.00000  Uiso   1.00
C1024  C     0.92137   0.79583   0.85439   0.00000  Uiso   1.00
C1025  C     0.93615   0.82138   0.75075   0.00000  Uiso   1.00
C1026  C     0.45066   0.31264   0.71657   0.00000  Uiso   1.00
C1027  C     0.45575   0.31789   0.67042   0.00000  Uiso   1.00
C1028  C     0.94685   0.83200   0.65833   0.00000  Uiso   1.00
C1029  C     0.93198   0.84067   0.69183   0.00000  Uiso   1.00
C1030  C     0.92648   0.83536   0.73775   0.00000  Uiso   1.00
C1031  C     0.14766   0.01375   0.59843   0.00000  Uiso   1.00
C1032  C     0.65164   0.52076   0.55420   0.00000  Uiso   1.00
C1033  C     0.66541   0.53432   0.55154   0.00000  Uiso   1.00
C1034  C     0.67533   0.54088   0.59338   0.00000  Uiso   1.00
C1035  C     0.17172   0.03362   0.63715   0.00000  Uiso   1.00
C1036  C     0.15796   0.02014   0.63977   0.00000  Uiso   1.00
N1037  N     0.68779   0.55518   0.59421   0.00000  Uiso   1.00
C1038  C     0.19386   0.06376   0.55840   0.00000  Uiso   1.00
C1039  C     0.20528   0.07846   0.56775   0.00000  Uiso   1.00
C1040  C     0.20878   0.08329   0.61489   0.00000  Uiso   1.00
C1041  C     0.21910   0.09728   0.62376   0.00000  Uiso   1.00
C1042  C     0.22615   0.10673   0.58576   0.00000  Uiso   1.00
C1043  C     0.72277   0.60193   0.53857   0.00000  Uiso   1.00
C1044  C     0.71238   0.58787   0.52963   0.00000  Uiso   1.00
C1045  C     0.23760   0.12144   0.59543   0.00000  Uiso   1.00
C1046  C     0.22846   0.13363   0.56947   0.00000  Uiso   1.00
C1047  C     0.24071   0.14733   0.57627   0.00000  Uiso   1.00
C1048  C     0.26242   0.14904   0.60883   0.00000  Uiso   1.00
C1049  C     0.77066   0.63704   0.63646   0.00000  Uiso   1.00
C1050  C     0.75833   0.62331   0.62977   0.00000  Uiso   1.00
C1051  C     0.36039   0.24386   0.10656   0.00000  Uiso   1.00
C1052  C     0.35460   0.23870   0.05828   0.00000  Uiso   1.00
C1053  C     0.83241   0.74486   0.03314   0.00000  Uiso   1.00
C1054  C     0.82560   0.73915   0.98871   0.00000  Uiso   1.00
C1055  C     0.34107   0.22738   0.96905   0.00000  Uiso   1.00
C1056  C     0.36346   0.22133   0.99453   0.00000  Uiso   1.00
C1057  C     0.37036   0.22710   0.03856   0.00000  Uiso   1.00
N1058  N     0.33231   0.22113   0.92505   0.00000  Uiso   1.00
C1059  C     0.34863   0.21334   0.89691   0.00000  Uiso   1.00
C1060  C     0.33745   0.20582   0.85536   0.00000  Uiso   1.00
C1061  C     0.35490   0.19579   0.83065   0.00000  Uiso   1.00
C1062  C     0.34483   0.18806   0.79194   0.00000  Uiso   1.00
C1063  C     0.31712   0.19031   0.77706   0.00000  Uiso   1.00
C1064  C     0.29952   0.20031   0.80197   0.00000  Uiso   1.00
C1065  C     0.30960   0.20802   0.84099   0.00000  Uiso   1.00
C1066  C     0.30719   0.18268   0.73439   0.00000  Uiso   1.00
C1067  C     0.78001   0.67651   0.73379   0.00000  Uiso   1.00
C1068  C     0.77073   0.66962   0.69266   0.00000  Uiso   1.00
C1069  C     0.28845   0.16887   0.65160   0.00000  Uiso   1.00
C1070  C     0.31571   0.17489   0.65255   0.00000  Uiso   1.00
C1071  C     0.32496   0.18175   0.69347   0.00000  Uiso   1.00
N1072  N     0.95475   0.83805   0.61266   0.00000  Uiso   1.00
C1073  C     0.34821   0.76465   0.14644   0.00000  Uiso   1.00
C1074  C     0.82515   0.25907   0.17320   0.00000  Uiso   1.00
C1075  C     0.81498   0.26663   0.21340   0.00000  Uiso   1.00
C1076  C     0.32745   0.77990   0.22641   0.00000  Uiso   1.00
C1077  C     0.35011   0.78566   0.19874   0.00000  Uiso   1.00
C1078  C     0.36044   0.77804   0.15890   0.00000  Uiso   1.00
N1079  N     0.31907   0.78641   0.27086   0.00000  Uiso   1.00
C1080  C     0.32004   0.80035   0.27961   0.00000  Uiso   1.00
C1081  C     0.31469   0.80561   0.32835   0.00000  Uiso   1.00
C1082  C     0.30853   0.82045   0.33640   0.00000  Uiso   1.00
C1083  C     0.30399   0.82558   0.38289   0.00000  Uiso   1.00
C1084  C     0.30601   0.81596   0.42193   0.00000  Uiso   1.00
C1085  C     0.31278   0.80115   0.41362   0.00000  Uiso   1.00
C1086  C     0.31684   0.79598   0.36723   0.00000  Uiso   1.00
C1087  C     0.30053   0.82125   0.47115   0.00000  Uiso   1.00
C1088  C     0.78620   0.31226   0.50485   0.00000  Uiso   1.00
C1089  C     0.78002   0.31744   0.55077   0.00000  Uiso   1.00
C1090  C     0.28761   0.83175   0.56316   0.00000  Uiso   1.00
C1091  C     0.30246   0.84064   0.53021   0.00000  Uiso   1.00
C1092  C     0.30904   0.83541   0.48454   0.00000  Uiso   1.00
C1093  C     0.08777   0.01375   0.61802   0.00000  Uiso   1.00
C1094  C     0.58378   0.52072   0.66229   0.00000  Uiso   1.00
C1095  C     0.57000   0.53428   0.66505   0.00000  Uiso   1.00
C1096  C     0.56007   0.54087   0.62326   0.00000  Uiso   1.00
C1097  C     0.06367   0.03364   0.57944   0.00000  Uiso   1.00
C1098  C     0.07744   0.02016   0.57673   0.00000  Uiso   1.00
N1099  N     0.54762   0.55517   0.62254   0.00000  Uiso   1.00
C1100  C     0.04160   0.06371   0.65847   0.00000  Uiso   1.00
C1101  C     0.03020   0.07842   0.64940   0.00000  Uiso   1.00
C1102  C     0.02655   0.08333   0.60237   0.00000  Uiso   1.00
C1103  C     0.01614   0.09734   0.59385   0.00000  Uiso   1.00
C1104  C     0.00916   0.10670   0.63211   0.00000  Uiso   1.00
C1105  C     0.51275   0.60183   0.67917   0.00000  Uiso   1.00
C1106  C     0.52322   0.58777   0.68774   0.00000  Uiso   1.00
C1107  C     0.99732   0.12135   0.62299   0.00000  Uiso   1.00
C1108  C     0.00636   0.13353   0.64909   0.00000  Uiso   1.00
C1109  C     0.99349   0.14712   0.64335   0.00000  Uiso   1.00
C1110  C     0.97122   0.14872   0.61183   0.00000  Uiso   1.00
C1111  C     0.46309   0.63673   0.58397   0.00000  Uiso   1.00
C1112  C     0.47610   0.62312   0.58949   0.00000  Uiso   1.00
C1113  C     0.87584   0.24402   0.11408   0.00000  Uiso   1.00
C1114  C     0.88167   0.23884   0.16230   0.00000  Uiso   1.00
C1115  C     0.40360   0.74514   0.18775   0.00000  Uiso   1.00
C1116  C     0.41050   0.73939   0.23208   0.00000  Uiso   1.00
C1117  C     0.89535   0.22746   0.25135   0.00000  Uiso   1.00
C1118  C     0.87327   0.22124   0.22554   0.00000  Uiso   1.00
C1119  C     0.86631   0.22703   0.18158   0.00000  Uiso   1.00
N1120  N     0.90404   0.22122   0.29539   0.00000  Uiso   1.00
C1121  C     0.88745   0.21361   0.32364   0.00000  Uiso   1.00
C1122  C     0.89831   0.20608   0.36540   0.00000  Uiso   1.00
C1123  C     0.88008   0.19677   0.39151   0.00000  Uiso   1.00
C1124  C     0.88974   0.18907   0.43060   0.00000  Uiso   1.00
C1125  C     0.91784   0.19059   0.44432   0.00000  Uiso   1.00
C1126  C     0.93626   0.19983   0.41795   0.00000  Uiso   1.00
C1127  C     0.92656   0.20754   0.37866   0.00000  Uiso   1.00
C1128  C     0.92739   0.18297   0.48717   0.00000  Uiso   1.00
C1129  C     0.45342   0.67559   0.48686   0.00000  Uiso   1.00
C1130  C     0.46217   0.66851   0.52796   0.00000  Uiso   1.00
C1131  C     0.94521   0.16877   0.56991   0.00000  Uiso   1.00
C1132  C     0.91911   0.17609   0.56995   0.00000  Uiso   1.00
C1133  C     0.91031   0.18313   0.52903   0.00000  Uiso   1.00
N1134  N     0.27865   0.83765   0.60853   0.00000  Uiso   1.00
H1135  H     0.42141   0.24873   0.05876   0.00000  Uiso   1.00
H1136  H     0.43987   0.26206   0.98773   0.00000  Uiso   1.00
H1137  H     0.87561   0.79517   0.01027   0.00000  Uiso   1.00
H1138  H     0.85715   0.78186   0.08012   0.00000  Uiso   1.00
H1139  H     0.91197   0.80794   0.97008   0.00000  Uiso   1.00
H1140  H     0.92995   0.82790   0.91525   0.00000  Uiso   1.00
H1141  H     0.93812   0.83708   0.83388   0.00000  Uiso   1.00
H1142  H     0.92309   0.79350   0.77861   0.00000  Uiso   1.00
H1143  H     0.91640   0.78430   0.85957   0.00000  Uiso   1.00
H1144  H     0.45871   0.30192   0.72582   0.00000  Uiso   1.00
H1145  H     0.46747   0.31121   0.64464   0.00000  Uiso   1.00
H1146  H     0.92500   0.85159   0.68239   0.00000  Uiso   1.00
H1147  H     0.91478   0.84221   0.76303   0.00000  Uiso   1.00
H1148  H     0.64355   0.51588   0.52211   0.00000  Uiso   1.00
H1149  H     0.66764   0.53961   0.51710   0.00000  Uiso   1.00
H1150  H     0.17917   0.03862   0.66951   0.00000  Uiso   1.00
H1151  H     0.15482   0.01481   0.67412   0.00000  Uiso   1.00
H1152  H     0.19037   0.06045   0.52202   0.00000  Uiso   1.00
H1153  H     0.20341   0.07629   0.64511   0.00000  Uiso   1.00
H1154  H     0.22133   0.10078   0.66039   0.00000  Uiso   1.00
H1155  H     0.72859   0.60897   0.50865   0.00000  Uiso   1.00
H1156  H     0.70996   0.58435   0.49303   0.00000  Uiso   1.00
H1157  H     0.21218   0.13249   0.54339   0.00000  Uiso   1.00
H1158  H     0.23411   0.15654   0.55477   0.00000  Uiso   1.00
H1159  H     0.78768   0.63813   0.66115   0.00000  Uiso   1.00
H1160  H     0.76586   0.61401   0.64988   0.00000  Uiso   1.00
H1161  H     0.82016   0.75387   0.04831   0.00000  Uiso   1.00
H1162  H     0.80805   0.74376   0.96986   0.00000  Uiso   1.00
H1163  H     0.37511   0.21182   0.98166   0.00000  Uiso   1.00
H1164  H     0.38770   0.22235   0.05755   0.00000  Uiso   1.00
H1165  H     0.37074   0.21186   0.90432   0.00000  Uiso   1.00
H1166  H     0.37628   0.19380   0.84176   0.00000  Uiso   1.00
H1167  H     0.35869   0.18026   0.77373   0.00000  Uiso   1.00
H1168  H     0.27820   0.20237   0.79070   0.00000  Uiso   1.00
H1169  H     0.29567   0.21567   0.85974   0.00000  Uiso   1.00
H1170  H     0.76602   0.67700   0.76511   0.00000  Uiso   1.00
H1171  H     0.74960   0.66507   0.69251   0.00000  Uiso   1.00
H1172  H     0.32987   0.17432   0.62146   0.00000  Uiso   1.00
H1173  H     0.34588   0.18656   0.69284   0.00000  Uiso   1.00
H1174  H     0.81560   0.24872   0.16355   0.00000  Uiso   1.00
H1175  H     0.79771   0.26207   0.23491   0.00000  Uiso   1.00
H1176  H     0.36068   0.79565   0.20912   0.00000  Uiso   1.00
H1177  H     0.37857   0.78233   0.13894   0.00000  Uiso   1.00
H1178  H     0.32512   0.80818   0.25142   0.00000  Uiso   1.00
H1179  H     0.30696   0.82800   0.30672   0.00000  Uiso   1.00
H1180  H     0.29851   0.83703   0.38815   0.00000  Uiso   1.00
H1181  H     0.31523   0.79357   0.44299   0.00000  Uiso   1.00
H1182  H     0.32216   0.78451   0.36189   0.00000  Uiso   1.00
H1183  H     0.77903   0.30139   0.49533   0.00000  Uiso   1.00
H1184  H     0.76845   0.31055   0.57612   0.00000  Uiso   1.00
H1185  H     0.30857   0.85169   0.53987   0.00000  Uiso   1.00
H1186  H     0.32061   0.84246   0.45970   0.00000  Uiso   1.00
H1187  H     0.59188   0.51582   0.69435   0.00000  Uiso   1.00
H1188  H     0.56776   0.53954   0.69954   0.00000  Uiso   1.00
H1189  H     0.05620   0.03865   0.54712   0.00000  Uiso   1.00
H1190  H     0.08058   0.01485   0.54234   0.00000  Uiso   1.00
H1191  H     0.04511   0.06035   0.69480   0.00000  Uiso   1.00
H1192  H     0.03182   0.07638   0.57181   0.00000  Uiso   1.00
H1193  H     0.01370   0.10090   0.55732   0.00000  Uiso   1.00
H1194  H     0.50699   0.60880   0.70927   0.00000  Uiso   1.00
H1195  H     0.52576   0.58419   0.72425   0.00000  Uiso   1.00
H1196  H     0.02302   0.13245   0.67450   0.00000  Uiso   1.00
H1197  H     0.00013   0.15633   0.66483   0.00000  Uiso   1.00
H1198  H     0.44574   0.63776   0.55989   0.00000  Uiso   1.00
H1199  H     0.46871   0.61382   0.56922   0.00000  Uiso   1.00
H1200  H     0.41558   0.75429   0.17287   0.00000  Uiso   1.00
H1201  H     0.42783   0.74412   0.25119   0.00000  Uiso   1.00
H1202  H     0.86193   0.21161   0.23819   0.00000  Uiso   1.00
H1203  H     0.84923   0.22214   0.16231   0.00000  Uiso   1.00
H1204  H     0.86527   0.21238   0.31626   0.00000  Uiso   1.00
H1205  H     0.85838   0.19533   0.38128   0.00000  Uiso   1.00
H1206  H     0.87526   0.18185   0.45002   0.00000  Uiso   1.00
H1207  H     0.95793   0.20130   0.42829   0.00000  Uiso   1.00
H1208  H     0.94109   0.21462   0.35876   0.00000  Uiso   1.00
H1209  H     0.46684   0.67522   0.45482   0.00000  Uiso   1.00
H1210  H     0.48228   0.66292   0.52758   0.00000  Uiso   1.00
H1211  H     0.90548   0.17636   0.60174   0.00000  Uiso   1.00
H1212  H     0.89028   0.18888   0.53025   0.00000  Uiso   1.00
C1213  C     0.61187   0.26444   0.92579   0.00000  Uiso   1.00
C1214  C     0.08832   0.75897   0.95155   0.00000  Uiso   1.00
C1215  C     0.07783   0.76652   0.99154   0.00000  Uiso   1.00
C1216  C     0.59047   0.27967   0.00528   0.00000  Uiso   1.00
C1217  C     0.61369   0.28530   0.97869   0.00000  Uiso   1.00
C1218  C     0.62435   0.27768   0.93908   0.00000  Uiso   1.00
N1219  N     0.58160   0.28620   0.04942   0.00000  Uiso   1.00
C1220  C     0.58257   0.30015   0.05804   0.00000  Uiso   1.00
C1221  C     0.57696   0.30546   0.10664   0.00000  Uiso   1.00
C1222  C     0.57125   0.32035   0.11451   0.00000  Uiso   1.00
C1223  C     0.56687   0.32557   0.16093   0.00000  Uiso   1.00
C1224  C     0.56860   0.31596   0.20005   0.00000  Uiso   1.00
C1225  C     0.57472   0.30107   0.19193   0.00000  Uiso   1.00
C1226  C     0.57863   0.29583   0.14561   0.00000  Uiso   1.00
C1227  C     0.56385   0.32138   0.24925   0.00000  Uiso   1.00
C1228  C     0.04934   0.81264   0.28343   0.00000  Uiso   1.00
C1229  C     0.04425   0.81789   0.32958   0.00000  Uiso   1.00
C1230  C     0.55315   0.33200   0.34167   0.00000  Uiso   1.00
C1231  C     0.56802   0.34067   0.30817   0.00000  Uiso   1.00
C1232  C     0.57352   0.33536   0.26225   0.00000  Uiso   1.00
C1233  C     0.35234   0.51375   0.40157   0.00000  Uiso   1.00
C1234  C     0.84836   0.02076   0.44580   0.00000  Uiso   1.00
C1235  C     0.83459   0.03432   0.44846   0.00000  Uiso   1.00
C1236  C     0.82467   0.04088   0.40662   0.00000  Uiso   1.00
C1237  C     0.32828   0.53362   0.36285   0.00000  Uiso   1.00
C1238  C     0.34204   0.52014   0.36023   0.00000  Uiso   1.00
N1239  N     0.81221   0.05518   0.40579   0.00000  Uiso   1.00
C1240  C     0.30614   0.56376   0.44160   0.00000  Uiso   1.00
C1241  C     0.29472   0.57846   0.43225   0.00000  Uiso   1.00
C1242  C     0.29122   0.58329   0.38511   0.00000  Uiso   1.00
C1243  C     0.28090   0.59728   0.37624   0.00000  Uiso   1.00
C1244  C     0.27385   0.60673   0.41424   0.00000  Uiso   1.00
C1245  C     0.77723   0.10193   0.46143   0.00000  Uiso   1.00
C1246  C     0.78762   0.08787   0.47037   0.00000  Uiso   1.00
C1247  C     0.26240   0.62144   0.40457   0.00000  Uiso   1.00
C1248  C     0.27154   0.63363   0.43053   0.00000  Uiso   1.00
C1249  C     0.25929   0.64733   0.42373   0.00000  Uiso   1.00
C1250  C     0.23758   0.64904   0.39117   0.00000  Uiso   1.00
C1251  C     0.72934   0.13704   0.36354   0.00000  Uiso   1.00
C1252  C     0.74167   0.12331   0.37023   0.00000  Uiso   1.00
C1253  C     0.13961   0.74386   0.89344   0.00000  Uiso   1.00
C1254  C     0.14540   0.73870   0.94172   0.00000  Uiso   1.00
C1255  C     0.66759   0.24486   0.96686   0.00000  Uiso   1.00
C1256  C     0.67440   0.23915   0.01129   0.00000  Uiso   1.00
C1257  C     0.15893   0.72738   0.03095   0.00000  Uiso   1.00
C1258  C     0.13654   0.72133   0.00547   0.00000  Uiso   1.00
C1259  C     0.12964   0.72710   0.96144   0.00000  Uiso   1.00
N1260  N     0.16769   0.72113   0.07495   0.00000  Uiso   1.00
C1261  C     0.15137   0.71334   0.10309   0.00000  Uiso   1.00
C1262  C     0.16255   0.70582   0.14464   0.00000  Uiso   1.00
C1263  C     0.14510   0.69579   0.16935   0.00000  Uiso   1.00
C1264  C     0.15517   0.68806   0.20806   0.00000  Uiso   1.00
C1265  C     0.18288   0.69031   0.22294   0.00000  Uiso   1.00
C1266  C     0.20048   0.70031   0.19803   0.00000  Uiso   1.00
C1267  C     0.19040   0.70802   0.15901   0.00000  Uiso   1.00
C1268  C     0.19281   0.68268   0.26561   0.00000  Uiso   1.00
C1269  C     0.71999   0.17651   0.26621   0.00000  Uiso   1.00
C1270  C     0.72927   0.16962   0.30734   0.00000  Uiso   1.00
C1271  C     0.21155   0.66887   0.34840   0.00000  Uiso   1.00
C1272  C     0.18429   0.67489   0.34745   0.00000  Uiso   1.00
C1273  C     0.17504   0.68175   0.30653   0.00000  Uiso   1.00
N1274  N     0.54525   0.33805   0.38734   0.00000  Uiso   1.00
C1275  C     0.15179   0.26465   0.85356   0.00000  Uiso   1.00
C1276  C     0.67485   0.75907   0.82680   0.00000  Uiso   1.00
C1277  C     0.68502   0.76663   0.78660   0.00000  Uiso   1.00
C1278  C     0.17255   0.27990   0.77359   0.00000  Uiso   1.00
C1279  C     0.14989   0.28566   0.80126   0.00000  Uiso   1.00
C1280  C     0.13956   0.27804   0.84110   0.00000  Uiso   1.00
N1281  N     0.18093   0.28641   0.72914   0.00000  Uiso   1.00
C1282  C     0.17996   0.30035   0.72039   0.00000  Uiso   1.00
C1283  C     0.18531   0.30561   0.67165   0.00000  Uiso   1.00
C1284  C     0.19147   0.32045   0.66360   0.00000  Uiso   1.00
C1285  C     0.19601   0.32558   0.61711   0.00000  Uiso   1.00
C1286  C     0.19399   0.31596   0.57807   0.00000  Uiso   1.00
C1287  C     0.18722   0.30115   0.58638   0.00000  Uiso   1.00
C1288  C     0.18316   0.29598   0.63277   0.00000  Uiso   1.00
C1289  C     0.19947   0.32125   0.52885   0.00000  Uiso   1.00
C1290  C     0.71380   0.81226   0.49515   0.00000  Uiso   1.00
C1291  C     0.71998   0.81744   0.44923   0.00000  Uiso   1.00
C1292  C     0.21239   0.33175   0.43684   0.00000  Uiso   1.00
C1293  C     0.19754   0.34064   0.46979   0.00000  Uiso   1.00
C1294  C     0.19096   0.33541   0.51546   0.00000  Uiso   1.00
C1295  C     0.41223   0.51375   0.38198   0.00000  Uiso   1.00
C1296  C     0.91622   0.02072   0.33771   0.00000  Uiso   1.00
C1297  C     0.93000   0.03428   0.33495   0.00000  Uiso   1.00
C1298  C     0.93993   0.04087   0.37674   0.00000  Uiso   1.00
C1299  C     0.43633   0.53364   0.42056   0.00000  Uiso   1.00
C1300  C     0.42256   0.52016   0.42327   0.00000  Uiso   1.00
N1301  N     0.95238   0.05517   0.37746   0.00000  Uiso   1.00
C1302  C     0.45840   0.56371   0.34153   0.00000  Uiso   1.00
C1303  C     0.46980   0.57842   0.35060   0.00000  Uiso   1.00
C1304  C     0.47345   0.58333   0.39763   0.00000  Uiso   1.00
C1305  C     0.48386   0.59734   0.40615   0.00000  Uiso   1.00
C1306  C     0.49084   0.60670   0.36789   0.00000  Uiso   1.00
C1307  C     0.98725   0.10183   0.32083   0.00000  Uiso   1.00
C1308  C     0.97678   0.08777   0.31226   0.00000  Uiso   1.00
C1309  C     0.50268   0.62135   0.37701   0.00000  Uiso   1.00
C1310  C     0.49364   0.63353   0.35091   0.00000  Uiso   1.00
C1311  C     0.50651   0.64712   0.35665   0.00000  Uiso   1.00
C1312  C     0.52878   0.64872   0.38817   0.00000  Uiso   1.00
C1313  C     0.03691   0.13673   0.41603   0.00000  Uiso   1.00
C1314  C     0.02390   0.12312   0.41051   0.00000  Uiso   1.00
C1315  C     0.62416   0.74402   0.88592   0.00000  Uiso   1.00
C1316  C     0.61833   0.73884   0.83770   0.00000  Uiso   1.00
C1317  C     0.09640   0.24514   0.81225   0.00000  Uiso   1.00
C1318  C     0.08950   0.23939   0.76792   0.00000  Uiso   1.00
C1319  C     0.60465   0.72746   0.74865   0.00000  Uiso   1.00
C1320  C     0.62673   0.72124   0.77446   0.00000  Uiso   1.00
C1321  C     0.63369   0.72703   0.81842   0.00000  Uiso   1.00
N1322  N     0.59596   0.72122   0.70461   0.00000  Uiso   1.00
C1323  C     0.61255   0.71361   0.67636   0.00000  Uiso   1.00
C1324  C     0.60169   0.70608   0.63460   0.00000  Uiso   1.00
C1325  C     0.61992   0.69677   0.60849   0.00000  Uiso   1.00
C1326  C     0.61026   0.68907   0.56940   0.00000  Uiso   1.00
C1327  C     0.58216   0.69059   0.55568   0.00000  Uiso   1.00
C1328  C     0.56374   0.69983   0.58205   0.00000  Uiso   1.00
C1329  C     0.57344   0.70754   0.62134   0.00000  Uiso   1.00
C1330  C     0.57261   0.68297   0.51283   0.00000  Uiso   1.00
C1331  C     0.04658   0.17559   0.51314   0.00000  Uiso   1.00
C1332  C     0.03783   0.16851   0.47204   0.00000  Uiso   1.00
C1333  C     0.55479   0.66877   0.43009   0.00000  Uiso   1.00
C1334  C     0.58089   0.67609   0.43005   0.00000  Uiso   1.00
C1335  C     0.58969   0.68313   0.47097   0.00000  Uiso   1.00
N1336  N     0.22135   0.33765   0.39147   0.00000  Uiso   1.00
H1337  H     0.07859   0.74873   0.94124   0.00000  Uiso   1.00
H1338  H     0.06013   0.76206   0.01227   0.00000  Uiso   1.00
H1339  H     0.62439   0.29517   0.98973   0.00000  Uiso   1.00
H1340  H     0.64285   0.28186   0.91988   0.00000  Uiso   1.00
H1341  H     0.58803   0.30794   0.02992   0.00000  Uiso   1.00
H1342  H     0.57005   0.32790   0.08475   0.00000  Uiso   1.00
H1343  H     0.56188   0.33708   0.16612   0.00000  Uiso   1.00
H1344  H     0.57691   0.29350   0.22139   0.00000  Uiso   1.00
H1345  H     0.58360   0.28430   0.14043   0.00000  Uiso   1.00
H1346  H     0.04129   0.80192   0.27418   0.00000  Uiso   1.00
H1347  H     0.03253   0.81121   0.35536   0.00000  Uiso   1.00
H1348  H     0.57500   0.35159   0.31761   0.00000  Uiso   1.00
H1349  H     0.58522   0.34221   0.23697   0.00000  Uiso   1.00
H1350  H     0.85645   0.01588   0.47789   0.00000  Uiso   1.00
H1351  H     0.83236   0.03961   0.48290   0.00000  Uiso   1.00
H1352  H     0.32083   0.53862   0.33049   0.00000  Uiso   1.00
H1353  H     0.34518   0.51481   0.32588   0.00000  Uiso   1.00
H1354  H     0.30963   0.56045   0.47798   0.00000  Uiso   1.00
H1355  H     0.29659   0.57629   0.35489   0.00000  Uiso   1.00
H1356  H     0.27867   0.60078   0.33961   0.00000  Uiso   1.00
H1357  H     0.77141   0.10897   0.49135   0.00000  Uiso   1.00
H1358  H     0.79004   0.08435   0.50697   0.00000  Uiso   1.00
H1359  H     0.28782   0.63249   0.45661   0.00000  Uiso   1.00
H1360  H     0.26589   0.65654   0.44523   0.00000  Uiso   1.00
H1361  H     0.71232   0.13813   0.33885   0.00000  Uiso   1.00
H1362  H     0.73414   0.11401   0.35012   0.00000  Uiso   1.00
H1363  H     0.67984   0.25387   0.95169   0.00000  Uiso   1.00
H1364  H     0.69195   0.24376   0.03014   0.00000  Uiso   1.00
H1365  H     0.12489   0.71182   0.01834   0.00000  Uiso   1.00
H1366  H     0.11230   0.72235   0.94245   0.00000  Uiso   1.00
H1367  H     0.12926   0.71186   0.09568   0.00000  Uiso   1.00
H1368  H     0.12372   0.69380   0.15824   0.00000  Uiso   1.00
H1369  H     0.14131   0.68026   0.22627   0.00000  Uiso   1.00
H1370  H     0.22180   0.70237   0.20930   0.00000  Uiso   1.00
H1371  H     0.20433   0.71567   0.14026   0.00000  Uiso   1.00
H1372  H     0.73398   0.17700   0.23489   0.00000  Uiso   1.00
H1373  H     0.75040   0.16507   0.30749   0.00000  Uiso   1.00
H1374  H     0.17013   0.67432   0.37854   0.00000  Uiso   1.00
H1375  H     0.15412   0.68656   0.30716   0.00000  Uiso   1.00
H1376  H     0.68440   0.74872   0.83645   0.00000  Uiso   1.00
H1377  H     0.70229   0.76207   0.76509   0.00000  Uiso   1.00
H1378  H     0.13932   0.29565   0.79088   0.00000  Uiso   1.00
H1379  H     0.12143   0.28233   0.86106   0.00000  Uiso   1.00
H1380  H     0.17488   0.30818   0.74858   0.00000  Uiso   1.00
H1381  H     0.19304   0.32800   0.69328   0.00000  Uiso   1.00
H1382  H     0.20149   0.33703   0.61185   0.00000  Uiso   1.00
H1383  H     0.18477   0.29357   0.55701   0.00000  Uiso   1.00
H1384  H     0.17784   0.28451   0.63811   0.00000  Uiso   1.00
H1385  H     0.72097   0.80139   0.50467   0.00000  Uiso   1.00
H1386  H     0.73155   0.81055   0.42388   0.00000  Uiso   1.00
H1387  H     0.19143   0.35169   0.46013   0.00000  Uiso   1.00
H1388  H     0.17939   0.34246   0.54030   0.00000  Uiso   1.00
H1389  H     0.90812   0.01582   0.30565   0.00000  Uiso   1.00
H1390  H     0.93224   0.03954   0.30046   0.00000  Uiso   1.00
H1391  H     0.44380   0.53865   0.45288   0.00000  Uiso   1.00
H1392  H     0.41942   0.51485   0.45766   0.00000  Uiso   1.00
H1393  H     0.45489   0.56035   0.30520   0.00000  Uiso   1.00
H1394  H     0.46818   0.57638   0.42819   0.00000  Uiso   1.00
H1395  H     0.48630   0.60090   0.44268   0.00000  Uiso   1.00
H1396  H     0.99301   0.10880   0.29073   0.00000  Uiso   1.00
H1397  H     0.97424   0.08419   0.27575   0.00000  Uiso   1.00
H1398  H     0.47698   0.63245   0.32550   0.00000  Uiso   1.00
H1399  H     0.49987   0.65633   0.33517   0.00000  Uiso   1.00
H1400  H     0.05426   0.13776   0.44011   0.00000  Uiso   1.00
H1401  H     0.03129   0.11382   0.43078   0.00000  Uiso   1.00
H1402  H     0.08442   0.25429   0.82713   0.00000  Uiso   1.00
H1403  H     0.07217   0.24412   0.74881   0.00000  Uiso   1.00
H1404  H     0.63807   0.71161   0.76181   0.00000  Uiso   1.00
H1405  H     0.65077   0.72214   0.83769   0.00000  Uiso   1.00
H1406  H     0.63473   0.71238   0.68374   0.00000  Uiso   1.00
H1407  H     0.64162   0.69533   0.61872   0.00000  Uiso   1.00
H1408  H     0.62474   0.68185   0.54998   0.00000  Uiso   1.00
H1409  H     0.54207   0.70130   0.57171   0.00000  Uiso   1.00
H1410  H     0.55891   0.71462   0.64124   0.00000  Uiso   1.00
H1411  H     0.03316   0.17522   0.54518   0.00000  Uiso   1.00
H1412  H     0.01772   0.16292   0.47242   0.00000  Uiso   1.00
H1413  H     0.59452   0.67636   0.39826   0.00000  Uiso   1.00
H1414  H     0.60972   0.68888   0.46975   0.00000  Uiso   1.00
C1415  C     0.11187   0.76444   0.92579   0.00000  Uiso   1.00
C1416  C     0.58832   0.25897   0.95155   0.00000  Uiso   1.00
C1417  C     0.57783   0.26652   0.99154   0.00000  Uiso   1.00
C1418  C     0.09047   0.77967   0.00528   0.00000  Uiso   1.00
C1419  C     0.11369   0.78530   0.97869   0.00000  Uiso   1.00
C1420  C     0.12435   0.77768   0.93908   0.00000  Uiso   1.00
N1421  N     0.08160   0.78620   0.04942   0.00000  Uiso   1.00
C1422  C     0.08257   0.80015   0.05804   0.00000  Uiso   1.00
C1423  C     0.07696   0.80546   0.10664   0.00000  Uiso   1.00
C1424  C     0.07125   0.82035   0.11451   0.00000  Uiso   1.00
C1425  C     0.06687   0.82557   0.16093   0.00000  Uiso   1.00
C1426  C     0.06860   0.81596   0.20005   0.00000  Uiso   1.00
C1427  C     0.07472   0.80107   0.19193   0.00000  Uiso   1.00
C1428  C     0.07863   0.79583   0.14561   0.00000  Uiso   1.00
C1429  C     0.06385   0.82138   0.24925   0.00000  Uiso   1.00
C1430  C     0.54934   0.31264   0.28343   0.00000  Uiso   1.00
C1431  C     0.54425   0.31789   0.32958   0.00000  Uiso   1.00
C1432  C     0.05315   0.83200   0.34167   0.00000  Uiso   1.00
C1433  C     0.06802   0.84067   0.30817   0.00000  Uiso   1.00
C1434  C     0.07352   0.83536   0.26225   0.00000  Uiso   1.00
C1435  C     0.85234   0.01375   0.40157   0.00000  Uiso   1.00
C1436  C     0.34836   0.52076   0.44580   0.00000  Uiso   1.00
C1437  C     0.33459   0.53432   0.44846   0.00000  Uiso   1.00
C1438  C     0.32467   0.54088   0.40662   0.00000  Uiso   1.00
C1439  C     0.82828   0.03362   0.36285   0.00000  Uiso   1.00
C1440  C     0.84204   0.02014   0.36023   0.00000  Uiso   1.00
N1441  N     0.31221   0.55518   0.40579   0.00000  Uiso   1.00
C1442  C     0.80614   0.06376   0.44160   0.00000  Uiso   1.00
C1443  C     0.79472   0.07846   0.43225   0.00000  Uiso   1.00
C1444  C     0.79122   0.08329   0.38511   0.00000  Uiso   1.00
C1445  C     0.78090   0.09728   0.37624   0.00000  Uiso   1.00
C1446  C     0.77385   0.10673   0.41424   0.00000  Uiso   1.00
C1447  C     0.27723   0.60193   0.46143   0.00000  Uiso   1.00
C1448  C     0.28762   0.58787   0.47037   0.00000  Uiso   1.00
C1449  C     0.76240   0.12144   0.40457   0.00000  Uiso   1.00
C1450  C     0.77154   0.13363   0.43053   0.00000  Uiso   1.00
C1451  C     0.75929   0.14733   0.42373   0.00000  Uiso   1.00
C1452  C     0.73758   0.14904   0.39117   0.00000  Uiso   1.00
C1453  C     0.22934   0.63704   0.36354   0.00000  Uiso   1.00
C1454  C     0.24167   0.62331   0.37023   0.00000  Uiso   1.00
C1455  C     0.63961   0.24386   0.89344   0.00000  Uiso   1.00
C1456  C     0.64540   0.23870   0.94172   0.00000  Uiso   1.00
C1457  C     0.16759   0.74486   0.96686   0.00000  Uiso   1.00
C1458  C     0.17440   0.73915   0.01129   0.00000  Uiso   1.00
C1459  C     0.65893   0.22738   0.03095   0.00000  Uiso   1.00
C1460  C     0.63654   0.22133   0.00547   0.00000  Uiso   1.00
C1461  C     0.62964   0.22710   0.96144   0.00000  Uiso   1.00
N1462  N     0.66769   0.22113   0.07495   0.00000  Uiso   1.00
C1463  C     0.65137   0.21334   0.10309   0.00000  Uiso   1.00
C1464  C     0.66255   0.20582   0.14464   0.00000  Uiso   1.00
C1465  C     0.64510   0.19579   0.16935   0.00000  Uiso   1.00
C1466  C     0.65517   0.18806   0.20806   0.00000  Uiso   1.00
C1467  C     0.68288   0.19031   0.22294   0.00000  Uiso   1.00
C1468  C     0.70048   0.20031   0.19803   0.00000  Uiso   1.00
C1469  C     0.69040   0.20802   0.15901   0.00000  Uiso   1.00
C1470  C     0.69281   0.18268   0.26561   0.00000  Uiso   1.00
C1471  C     0.21999   0.67651   0.26621   0.00000  Uiso   1.00
C1472  C     0.22927   0.66962   0.30734   0.00000  Uiso   1.00
C1473  C     0.71155   0.16887   0.34840   0.00000  Uiso   1.00
C1474  C     0.68429   0.17489   0.34745   0.00000  Uiso   1.00
C1475  C     0.67504   0.18175   0.30653   0.00000  Uiso   1.00
N1476  N     0.04525   0.83805   0.38734   0.00000  Uiso   1.00
C1477  C     0.65179   0.76465   0.85356   0.00000  Uiso   1.00
C1478  C     0.17485   0.25907   0.82680   0.00000  Uiso   1.00
C1479  C     0.18502   0.26663   0.78660   0.00000  Uiso   1.00
C1480  C     0.67255   0.77990   0.77359   0.00000  Uiso   1.00
C1481  C     0.64989   0.78566   0.80126   0.00000  Uiso   1.00
C1482  C     0.63956   0.77804   0.84110   0.00000  Uiso   1.00
N1483  N     0.68093   0.78641   0.72914   0.00000  Uiso   1.00
C1484  C     0.67996   0.80035   0.72039   0.00000  Uiso   1.00
C1485  C     0.68531   0.80561   0.67165   0.00000  Uiso   1.00
C1486  C     0.69147   0.82045   0.66360   0.00000  Uiso   1.00
C1487  C     0.69601   0.82558   0.61711   0.00000  Uiso   1.00
C1488  C     0.69399   0.81596   0.57807   0.00000  Uiso   1.00
C1489  C     0.68722   0.80115   0.58638   0.00000  Uiso   1.00
C1490  C     0.68316   0.79598   0.63277   0.00000  Uiso   1.00
C1491  C     0.69947   0.82125   0.52885   0.00000  Uiso   1.00
C1492  C     0.21380   0.31226   0.49515   0.00000  Uiso   1.00
C1493  C     0.21998   0.31744   0.44923   0.00000  Uiso   1.00
C1494  C     0.71239   0.83175   0.43684   0.00000  Uiso   1.00
C1495  C     0.69754   0.84064   0.46979   0.00000  Uiso   1.00
C1496  C     0.69096   0.83541   0.51546   0.00000  Uiso   1.00
C1497  C     0.91223   0.01375   0.38198   0.00000  Uiso   1.00
C1498  C     0.41622   0.52072   0.33771   0.00000  Uiso   1.00
C1499  C     0.43000   0.53428   0.33495   0.00000  Uiso   1.00
C1500  C     0.43993   0.54087   0.37674   0.00000  Uiso   1.00
C1501  C     0.93633   0.03364   0.42056   0.00000  Uiso   1.00
C1502  C     0.92256   0.02016   0.42327   0.00000  Uiso   1.00
N1503  N     0.45238   0.55517   0.37746   0.00000  Uiso   1.00
C1504  C     0.95840   0.06371   0.34153   0.00000  Uiso   1.00
C1505  C     0.96980   0.07842   0.35060   0.00000  Uiso   1.00
C1506  C     0.97345   0.08333   0.39763   0.00000  Uiso   1.00
C1507  C     0.98386   0.09734   0.40615   0.00000  Uiso   1.00
C1508  C     0.99084   0.10670   0.36789   0.00000  Uiso   1.00
C1509  C     0.48725   0.60183   0.32083   0.00000  Uiso   1.00
C1510  C     0.47678   0.58777   0.31226   0.00000  Uiso   1.00
C1511  C     0.00268   0.12135   0.37701   0.00000  Uiso   1.00
C1512  C     0.99364   0.13353   0.35091   0.00000  Uiso   1.00
C1513  C     0.00651   0.14712   0.35665   0.00000  Uiso   1.00
C1514  C     0.02878   0.14872   0.38817   0.00000  Uiso   1.00
C1515  C     0.53691   0.63673   0.41603   0.00000  Uiso   1.00
C1516  C     0.52390   0.62312   0.41051   0.00000  Uiso   1.00
C1517  C     0.12416   0.24402   0.88592   0.00000  Uiso   1.00
C1518  C     0.11833   0.23884   0.83770   0.00000  Uiso   1.00
C1519  C     0.59640   0.74514   0.81225   0.00000  Uiso   1.00
C1520  C     0.58950   0.73939   0.76792   0.00000  Uiso   1.00
C1521  C     0.10465   0.22746   0.74865   0.00000  Uiso   1.00
C1522  C     0.12673   0.22124   0.77446   0.00000  Uiso   1.00
C1523  C     0.13369   0.22703   0.81842   0.00000  Uiso   1.00
N1524  N     0.09596   0.22122   0.70461   0.00000  Uiso   1.00
C1525  C     0.11255   0.21361   0.67636   0.00000  Uiso   1.00
C1526  C     0.10169   0.20608   0.63460   0.00000  Uiso   1.00
C1527  C     0.11992   0.19677   0.60849   0.00000  Uiso   1.00
C1528  C     0.11026   0.18907   0.56940   0.00000  Uiso   1.00
C1529  C     0.08216   0.19059   0.55568   0.00000  Uiso   1.00
C1530  C     0.06374   0.19983   0.58205   0.00000  Uiso   1.00
C1531  C     0.07344   0.20754   0.62134   0.00000  Uiso   1.00
C1532  C     0.07261   0.18297   0.51283   0.00000  Uiso   1.00
C1533  C     0.54658   0.67559   0.51314   0.00000  Uiso   1.00
C1534  C     0.53783   0.66851   0.47204   0.00000  Uiso   1.00
C1535  C     0.05479   0.16877   0.43009   0.00000  Uiso   1.00
C1536  C     0.08089   0.17609   0.43005   0.00000  Uiso   1.00
C1537  C     0.08969   0.18313   0.47097   0.00000  Uiso   1.00
N1538  N     0.72135   0.83765   0.39147   0.00000  Uiso   1.00
H1539  H     0.57859   0.24873   0.94124   0.00000  Uiso   1.00
H1540  H     0.56013   0.26206   0.01227   0.00000  Uiso   1.00
H1541  H     0.12439   0.79517   0.98973   0.00000  Uiso   1.00
H1542  H     0.14285   0.78186   0.91988   0.00000  Uiso   1.00
H1543  H     0.08803   0.80794   0.02992   0.00000  Uiso   1.00
H1544  H     0.07005   0.82790   0.08475   0.00000  Uiso   1.00
H1545  H     0.06188   0.83708   0.16612   0.00000  Uiso   1.00
H1546  H     0.07691   0.79350   0.22139   0.00000  Uiso   1.00
H1547  H     0.08360   0.78430   0.14043   0.00000  Uiso   1.00
H1548  H     0.54129   0.30192   0.27418   0.00000  Uiso   1.00
H1549  H     0.53253   0.31121   0.35536   0.00000  Uiso   1.00
H1550  H     0.07500   0.85159   0.31761   0.00000  Uiso   1.00
H1551  H     0.08522   0.84221   0.23697   0.00000  Uiso   1.00
H1552  H     0.35645   0.51588   0.47789   0.00000  Uiso   1.00
H1553  H     0.33236   0.53961   0.48290   0.00000  Uiso   1.00
H1554  H     0.82083   0.03862   0.33049   0.00000  Uiso   1.00
H1555  H     0.84518   0.01481   0.32588   0.00000  Uiso   1.00
H1556  H     0.80963   0.06045   0.47798   0.00000  Uiso   1.00
H1557  H     0.79659   0.07629   0.35489   0.00000  Uiso   1.00
H1558  H     0.77867   0.10078   0.33961   0.00000  Uiso   1.00
H1559  H     0.27141   0.60897   0.49135   0.00000  Uiso   1.00
H1560  H     0.29004   0.58435   0.50697   0.00000  Uiso   1.00
H1561  H     0.78782   0.13249   0.45661   0.00000  Uiso   1.00
H1562  H     0.76589   0.15654   0.44523   0.00000  Uiso   1.00
H1563  H     0.21232   0.63813   0.33885   0.00000  Uiso   1.00
H1564  H     0.23414   0.61401   0.35012   0.00000  Uiso   1.00
H1565  H     0.17984   0.75387   0.95169   0.00000  Uiso   1.00
H1566  H     0.19195   0.74376   0.03014   0.00000  Uiso   1.00
H1567  H     0.62489   0.21182   0.01834   0.00000  Uiso   1.00
H1568  H     0.61230   0.22235   0.94245   0.00000  Uiso   1.00
H1569  H     0.62926   0.21186   0.09568   0.00000  Uiso   1.00
H1570  H     0.62372   0.19380   0.15824   0.00000  Uiso   1.00
H1571  H     0.64131   0.18026   0.22627   0.00000  Uiso   1.00
H1572  H     0.72180   0.20237   0.20930   0.00000  Uiso   1.00
H1573  H     0.70433   0.21567   0.14026   0.00000  Uiso   1.00
H1574  H     0.23398   0.67700   0.23489   0.00000  Uiso   1.00
H1575  H     0.25040   0.66507   0.30749   0.00000  Uiso   1.00
H1576  H     0.67013   0.17432   0.37854   0.00000  Uiso   1.00
H1577  H     0.65412   0.18656   0.30716   0.00000  Uiso   1.00
H1578  H     0.18440   0.24872   0.83645   0.00000  Uiso   1.00
H1579  H     0.20229   0.26207   0.76509   0.00000  Uiso   1.00
H1580  H     0.63932   0.79565   0.79088   0.00000  Uiso   1.00
H1581  H     0.62143   0.78233   0.86106   0.00000  Uiso   1.00
H1582  H     0.67488   0.80818   0.74858   0.00000  Uiso   1.00
H1583  H     0.69304   0.82800   0.69328   0.00000  Uiso   1.00
H1584  H     0.70149   0.83703   0.61185   0.00000  Uiso   1.00
H1585  H     0.68477   0.79357   0.55701   0.00000  Uiso   1.00
H1586  H     0.67784   0.78451   0.63811   0.00000  Uiso   1.00
H1587  H     0.22097   0.30139   0.50467   0.00000  Uiso   1.00
H1588  H     0.23155   0.31055   0.42388   0.00000  Uiso   1.00
H1589  H     0.69143   0.85169   0.46013   0.00000  Uiso   1.00
H1590  H     0.67939   0.84246   0.54030   0.00000  Uiso   1.00
H1591  H     0.40812   0.51582   0.30565   0.00000  Uiso   1.00
H1592  H     0.43224   0.53954   0.30046   0.00000  Uiso   1.00
H1593  H     0.94380   0.03865   0.45288   0.00000  Uiso   1.00
H1594  H     0.91942   0.01485   0.45766   0.00000  Uiso   1.00
H1595  H     0.95489   0.06035   0.30520   0.00000  Uiso   1.00
H1596  H     0.96818   0.07638   0.42819   0.00000  Uiso   1.00
H1597  H     0.98630   0.10090   0.44268   0.00000  Uiso   1.00
H1598  H     0.49301   0.60880   0.29073   0.00000  Uiso   1.00
H1599  H     0.47424   0.58419   0.27575   0.00000  Uiso   1.00
H1600  H     0.97698   0.13245   0.32550   0.00000  Uiso   1.00
H1601  H     0.99987   0.15633   0.33517   0.00000  Uiso   1.00
H1602  H     0.55426   0.63776   0.44011   0.00000  Uiso   1.00
H1603  H     0.53129   0.61382   0.43078   0.00000  Uiso   1.00
H1604  H     0.58442   0.75429   0.82713   0.00000  Uiso   1.00
H1605  H     0.57217   0.74412   0.74881   0.00000  Uiso   1.00
H1606  H     0.13807   0.21161   0.76181   0.00000  Uiso   1.00
H1607  H     0.15077   0.22214   0.83769   0.00000  Uiso   1.00
H1608  H     0.13473   0.21238   0.68374   0.00000  Uiso   1.00
H1609  H     0.14162   0.19533   0.61872   0.00000  Uiso   1.00
H1610  H     0.12474   0.18185   0.54998   0.00000  Uiso   1.00
H1611  H     0.04207   0.20130   0.57171   0.00000  Uiso   1.00
H1612  H     0.05891   0.21462   0.64124   0.00000  Uiso   1.00
H1613  H     0.53316   0.67522   0.54518   0.00000  Uiso   1.00
H1614  H     0.51772   0.66292   0.47242   0.00000  Uiso   1.00
H1615  H     0.09452   0.17636   0.39826   0.00000  Uiso   1.00
H1616  H     0.10972   0.18888   0.46975   0.00000  Uiso   1.00
C1617  C     0.36837   0.50000   0.39779   0.00000  Uiso   1.00
C1618  C     0.39620   0.50000   0.38585   0.00000  Uiso   1.00
C1619  C     0.86837   0.00000   0.39779   0.00000  Uiso   1.00
C1620  C     0.89620   0.00000   0.38585   0.00000  Uiso   1.00
C1621  C     0.63163   0.50000   0.60221   0.00000  Uiso   1.00
C1622  C     0.60380   0.50000   0.61415   0.00000  Uiso   1.00
C1623  C     0.13163   0.00000   0.60221   0.00000  Uiso   1.00
C1624  C     0.10380   0.00000   0.61415   0.00000  Uiso   1.00
loop_
_geom_bond_atom_site_label_1
_geom_bond_atom_site_label_2
_geom_bond_distance
_geom_bond_site_symmetry_2
_ccdc_geom_bond_type
C1     C6      1.397   .     D
C1     C204    1.400   .     S
C1     C1315   1.461   .     S
C2     C3      1.392   .     S
C2     H125    1.082   .     S
C2     C203    1.400   .     D
C3     H126    1.083   1_556 S
C3     C206    1.397   1_556 D
C4     C5      1.404   1_554 D
C4     N7      1.423   .     S
C4     C205    1.397   1_554 S
C5     C4      1.404   1_556 D
C5     C6      1.389   .     S
C5     H127    1.081   .     S
C6     H128    1.082   .     S
N7     C8      1.293   .     D
C8     C9      1.460   .     S
C8     H129    1.084   .     S
C9     C10     1.397   .     D
C9     C14     1.403   .     S
C10    C11     1.393   .     S
C10    H130    1.083   .     S
C11    C12     1.406   .     D
C11    H131    1.082   .     S
C12    C13     1.402   .     S
C12    C15     1.474   .     S
C13    C14     1.389   .     D
C13    H132    1.082   .     S
C14    H133    1.084   .     S
C15    C20     1.403   .     D
C15    C218    1.406   .     S
C16    C17     1.391   .     S
C16    H134    1.081   .     S
C16    C217    1.406   .     D
C17    H135    1.083   .     S
C17    C220    1.396   .     D
C18    C19     1.398   .     D
C18    N62     1.431   .     S
C18    C219    1.396   .     S
C19    C20     1.390   .     S
C19    H136    1.082   .     S
C20    H137    1.082   .     S
C21    C26     1.397   .     D
C21    C224    1.400   .     S
C21    C1617   1.465   .     S
C22    C23     1.396   .     S
C22    H138    1.083   .     S
C22    C223    1.400   .     D
C23    C24     1.408   .     D
C23    H139    1.080   .     S
C24    N27     1.429   .     S
C24    C227    1.398   .     S
C25    C26     1.389   .     S
C25    H140    1.083   .     S
C25    C226    1.398   .     D
C26    H141    1.083   .     S
N27    C230    1.296   .     D
C28    C29     1.469   .     S
C28    H142    1.080   .     S
C28    N229    1.296   .     D
C29    C30     1.406   .     D
C29    C236    1.401   .     S
C30    C31     1.388   .     S
C30    H143    1.083   .     S
C31    C32     1.400   .     D
C31    H144    1.082   .     S
C32    C35     1.472   .     S
C32    C235    1.405   .     S
C33    C34     1.396   .     S
C33    H145    1.083   .     S
C33    C234    1.405   .     D
C34    H146    1.083   .     S
C34    C231    1.401   .     D
C35    C36     1.402   .     D
C35    C242    1.405   .     S
C36    C37     1.390   .     S
C36    H147    1.083   .     S
C37    C38     1.403   .     D
C37    H148    1.083   .     S
C38    C241    1.400   .     S
C38    N1336   1.434   .     S
C39    C40     1.394   .     S
C39    H149    1.082   .     S
C39    C240    1.400   .     D
C40    H150    1.083   .     S
C40    C237    1.405   .     D
C41    C42     1.465   .     S
C41    C1275   1.462   .     S
C41    C1517   1.343   .     D
C42    C47     1.396   .     D
C42    C245    1.399   .     S
C43    C44     1.395   1_556 S
C43    H151    1.083   .     S
C43    C244    1.399   .     D
C44    C43     1.395   1_554 S
C44    H152    1.082   .     S
C44    C247    1.400   .     D
C45    C46     1.408   .     D
C45    N48     1.430   .     S
C45    C246    1.400   .     S
C46    C47     1.388   1_554 S
C46    H153    1.082   .     S
C47    C46     1.388   1_556 S
C47    H154    1.082   .     S
N48    C49     1.297   .     D
C49    C50     1.463   .     S
C49    H155    1.081   .     S
C50    C51     1.399   .     D
C50    C55     1.404   .     S
C51    C52     1.389   .     S
C51    H156    1.083   .     S
C52    C53     1.403   .     D
C52    H157    1.083   .     S
C53    C54     1.404   .     S
C53    C56     1.471   .     S
C54    C55     1.395   .     D
C54    H158    1.083   .     S
C55    H159    1.083   .     S
C56    C61     1.402   .     D
C56    C259    1.404   .     S
C57    C58     1.394   .     S
C57    H160    1.083   .     S
C57    C258    1.404   .     D
C58    H161    1.082   .     S
C58    C261    1.403   .     D
C59    C60     1.402   .     D
C59    C260    1.403   .     S
C59    N1336   1.434   .     S
C60    C61     1.388   .     S
C60    H162    1.083   .     S
C61    H163    1.082   .     S
N62    C1312   1.434   .     S
N62    C1333   1.434   .     S
C63    C68     1.397   .     D
C63    C266    1.399   .     S
C63    C1253   1.462   .     S
C64    C65     1.392   .     S
C64    H164    1.082   .     S
C64    C265    1.399   .     D
C65    H165    1.082   .     S
C65    C268    1.397   .     D
C66    C67     1.404   .     D
C66    N69     1.423   .     S
C66    C267    1.397   .     S
C67    C68     1.389   .     S
C67    H166    1.081   .     S
C68    H167    1.082   .     S
N69    C70     1.293   .     D
C70    C71     1.461   .     S
C70    H168    1.085   .     S
C71    C72     1.398   .     D
C71    C76     1.403   .     S
C72    C73     1.393   .     S
C72    H169    1.082   .     S
C73    C74     1.406   .     D
C73    H170    1.082   .     S
C74    C75     1.403   .     S
C74    C77     1.475   .     S
C75    C76     1.389   .     D
C75    H171    1.082   .     S
C76    H172    1.083   .     S
C77    C82     1.404   .     D
C77    C280    1.407   .     S
C78    C79     1.392   .     S
C78    H173    1.081   .     S
C78    C279    1.407   .     D
C79    H174    1.083   .     S
C79    C282    1.397   .     D
C80    C81     1.399   .     D
C80    N124    1.431   .     S
C80    C281    1.397   .     S
C81    C82     1.390   .     S
C81    H175    1.083   .     S
C82    H176    1.082   .     S
C83    C88     1.397   .     S
C83    C286    1.400   .     D
C83    C1618   1.465   .     S
C84    C85     1.396   .     S
C84    H177    1.083   .     S
C84    C285    1.400   .     D
C85    C86     1.408   .     D
C85    H178    1.080   .     S
C86    N89     1.428   .     S
C86    C289    1.398   .     S
C87    C88     1.390   .     D
C87    H179    1.082   .     S
C87    C288    1.398   .     S
C88    H180    1.083   .     S
N89    C292    1.296   .     D
C90    C91     1.468   .     S
C90    H181    1.080   .     S
C90    N291    1.296   .     D
C91    C92     1.406   .     D
C91    C298    1.401   .     S
C92    C93     1.390   .     S
C92    H182    1.087   .     S
C93    C94     1.400   .     D
C93    H183    1.082   .     S
C94    C97     1.471   .     S
C94    C297    1.405   .     S
C95    C96     1.395   .     S
C95    H184    1.083   .     S
C95    C296    1.405   .     D
C96    H185    1.083   .     S
C96    C293    1.401   .     D
C97    C98     1.402   .     D
C97    C304    1.405   .     S
C98    C99     1.390   .     S
C98    H186    1.083   .     S
C99    C100    1.403   .     D
C99    H187    1.084   .     S
C100   C303    1.402   .     S
C100   N1274   1.434   .     S
C101   C102    1.393   .     S
C101   H188    1.083   .     S
C101   C302    1.402   .     D
C102   H189    1.083   .     S
C102   C299    1.405   .     D
C103   C104    1.464   .     S
C103   C1213   1.461   .     S
C103   C1455   1.343   .     D
C104   C109    1.396   .     D
C104   C307    1.400   .     S
C105   C106    1.395   .     S
C105   H190    1.083   .     S
C105   C306    1.400   .     D
C106   H191    1.082   .     S
C106   C309    1.399   .     D
C107   C108    1.408   .     D
C107   N110    1.430   .     S
C107   C308    1.399   .     S
C108   C109    1.388   .     S
C108   H192    1.081   .     S
C109   H193    1.081   .     S
N110   C111    1.297   .     D
C111   C112    1.462   .     S
C111   H194    1.082   .     S
C112   C113    1.399   .     D
C112   C117    1.405   .     S
C113   C114    1.389   .     S
C113   H195    1.083   .     S
C114   C115    1.402   .     D
C114   H196    1.083   .     S
C115   C116    1.404   .     S
C115   C118    1.469   .     S
C116   C117    1.394   .     D
C116   H197    1.083   .     S
C117   H198    1.083   .     S
C118   C123    1.403   .     D
C118   C321    1.403   .     S
C119   C120    1.393   .     S
C119   H199    1.083   .     S
C119   C320    1.403   .     D
C120   H200    1.079   .     S
C120   C323    1.402   .     D
C121   C122    1.403   .     D
C121   C322    1.402   .     S
C121   N1274   1.434   .     S
C122   C123    1.388   .     S
C122   H201    1.083   .     S
C123   H202    1.082   .     S
N124   C1250   1.434   .     S
N124   C1271   1.434   .     S
H126   C3      1.083   1_554 S
C203   C208    1.397   .     S
C203   C1517   1.461   .     S
C204   C205    1.392   .     D
C204   H327    1.082   .     S
C205   C4      1.397   1_556 S
C205   H328    1.083   1_556 S
C206   C3      1.397   1_554 D
C206   C207    1.404   1_554 S
C206   N209    1.423   .     S
C207   C206    1.404   1_556 S
C207   C208    1.389   .     D
C207   H329    1.081   .     S
C208   H330    1.082   .     S
N209   C210    1.293   .     D
C210   C211    1.460   .     S
C210   H331    1.084   .     S
C211   C212    1.397   .     D
C211   C216    1.403   .     S
C212   C213    1.393   .     S
C212   H332    1.083   .     S
C213   C214    1.406   .     D
C213   H333    1.082   .     S
C214   C215    1.402   .     S
C214   C217    1.474   .     S
C215   C216    1.389   .     D
C215   H334    1.082   .     S
C216   H335    1.084   .     S
C217   C222    1.403   .     S
C218   C219    1.391   .     D
C218   H336    1.081   .     S
C219   H337    1.083   .     S
C220   C221    1.398   .     S
C220   N264    1.431   .     S
C221   C222    1.390   .     D
C221   H338    1.082   .     S
C222   H339    1.082   .     S
C223   C228    1.397   .     S
C223   C1619   1.465   1_565 S
C224   C225    1.396   .     D
C224   H340    1.083   .     S
C225   C226    1.408   .     S
C225   H341    1.080   .     S
C226   N229    1.429   .     S
C227   C228    1.389   .     D
C227   H342    1.083   .     S
C228   H343    1.083   .     S
C230   C231    1.469   .     S
C230   H344    1.080   .     S
C231   C232    1.406   .     S
C232   C233    1.388   .     D
C232   H345    1.083   .     S
C233   C234    1.400   .     S
C233   H346    1.082   .     S
C234   C237    1.472   .     S
C235   C236    1.396   .     D
C235   H347    1.083   .     S
C236   H348    1.083   .     S
C237   C238    1.402   .     S
C238   C239    1.390   .     D
C238   H349    1.083   .     S
C239   C240    1.403   .     S
C239   H350    1.083   .     S
C240   N1538   1.434   .     S
C241   C242    1.394   .     D
C241   H351    1.082   .     S
C242   H352    1.083   .     S
C243   C244    1.465   .     S
C243   C1315   1.343   .     D
C243   C1477   1.462   .     S
C244   C249    1.396   .     S
C245   C246    1.395   1_556 D
C245   H353    1.083   .     S
C246   C245    1.395   1_554 D
C246   H354    1.082   .     S
C247   C248    1.408   .     S
C247   N250    1.430   .     S
C248   C249    1.388   1_554 D
C248   H355    1.082   .     S
C249   C248    1.388   1_556 D
C249   H356    1.082   .     S
N250   C251    1.297   .     D
C251   C252    1.463   .     S
C251   H357    1.081   .     S
C252   C253    1.399   .     D
C252   C257    1.404   .     S
C253   C254    1.389   .     S
C253   H358    1.083   .     S
C254   C255    1.403   .     D
C254   H359    1.083   .     S
C255   C256    1.404   .     S
C255   C258    1.471   .     S
C256   C257    1.395   .     D
C256   H360    1.083   .     S
C257   H361    1.083   .     S
C258   C263    1.402   .     S
C259   C260    1.394   .     D
C259   H362    1.083   .     S
C260   H363    1.082   .     S
C261   C262    1.402   .     S
C261   N1538   1.434   .     S
C262   C263    1.388   .     D
C262   H364    1.083   .     S
C263   H365    1.082   .     S
N264   C1514   1.434   .     S
N264   C1535   1.434   .     S
C265   C270    1.397   .     S
C265   C1455   1.462   .     S
C266   C267    1.392   .     D
C266   H366    1.082   .     S
C267   H367    1.082   .     S
C268   C269    1.404   .     S
C268   N271    1.423   .     S
C269   C270    1.389   .     D
C269   H368    1.081   .     S
C270   H369    1.082   .     S
N271   C272    1.293   .     D
C272   C273    1.461   .     S
C272   H370    1.085   .     S
C273   C274    1.398   .     D
C273   C278    1.404   .     S
C274   C275    1.393   .     S
C274   H371    1.082   .     S
C275   C276    1.406   .     D
C275   H372    1.082   .     S
C276   C277    1.403   .     S
C276   C279    1.475   .     S
C277   C278    1.389   .     D
C277   H373    1.082   .     S
C278   H374    1.083   .     S
C279   C284    1.404   .     S
C280   C281    1.392   .     D
C280   H375    1.081   .     S
C281   H376    1.083   .     S
C282   C283    1.399   .     S
C282   N326    1.431   .     S
C283   C284    1.390   .     D
C283   H377    1.083   .     S
C284   H378    1.082   .     S
C285   C290    1.397   .     S
C285   C1620   1.465   1_565 S
C286   C287    1.396   .     S
C286   H379    1.083   .     S
C287   C288    1.408   .     D
C287   H380    1.080   .     S
C288   N291    1.428   .     S
C289   C290    1.390   .     D
C289   H381    1.082   .     S
C290   H382    1.083   .     S
C292   C293    1.468   .     S
C292   H383    1.080   .     S
C293   C294    1.406   .     S
C294   C295    1.390   .     D
C294   H384    1.087   .     S
C295   C296    1.400   .     S
C295   H385    1.082   .     S
C296   C299    1.471   1_655 S
C297   C298    1.395   .     D
C297   H386    1.083   .     S
C298   H387    1.083   .     S
C299   C296    1.471   1_455 S
C299   C300    1.402   1_455 S
C300   C299    1.402   1_655 S
C300   C301    1.390   1_655 D
C300   H388    1.083   .     S
C301   C300    1.390   1_455 D
C301   C302    1.403   .     S
C301   H389    1.084   1_455 S
C302   N1476   1.434   .     S
C303   C304    1.393   .     D
C303   H390    1.083   .     S
C304   H391    1.083   .     S
C305   C306    1.464   .     S
C305   C1253   1.343   .     D
C305   C1415   1.461   .     S
C306   C311    1.396   .     S
C307   C308    1.395   .     D
C307   H392    1.083   .     S
C308   H393    1.082   .     S
C309   C310    1.408   .     S
C309   N312    1.430   .     S
C310   C311    1.388   .     D
C310   H394    1.081   .     S
C311   H395    1.081   .     S
N312   C313    1.297   .     D
C313   C314    1.462   .     S
C313   H396    1.082   .     S
C314   C315    1.399   .     D
C314   C319    1.405   .     S
C315   C316    1.389   .     S
C315   H397    1.083   .     S
C316   C317    1.402   .     D
C316   H398    1.083   .     S
C317   C318    1.404   .     S
C317   C320    1.469   .     S
C318   C319    1.394   .     D
C318   H399    1.083   .     S
C319   H400    1.083   .     S
C320   C325    1.403   .     S
C321   C322    1.393   .     D
C321   H401    1.083   .     S
C322   H402    1.079   .     S
C323   C324    1.403   .     S
C323   N1476   1.434   .     S
C324   C325    1.388   .     D
C324   H403    1.083   .     S
C325   H404    1.082   .     S
N326   C1452   1.434   .     S
N326   C1473   1.434   .     S
H328   C205    1.083   1_554 S
H389   C301    1.084   1_655 S
C405   C410    1.397   .     D
C405   C608    1.400   .     S
C405   C911    1.461   .     S
C406   C407    1.392   .     S
C406   H529    1.082   .     S
C406   C607    1.400   .     D
C407   H530    1.083   1_554 S
C407   C610    1.397   1_554 D
C408   C409    1.404   1_556 D
C408   N411    1.423   .     S
C408   C609    1.397   1_556 S
C409   C408    1.404   1_554 D
C409   C410    1.389   .     S
C409   H531    1.081   .     S
C410   H532    1.082   .     S
N411   C412    1.293   .     D
C412   C413    1.460   .     S
C412   H533    1.084   .     S
C413   C414    1.397   .     D
C413   C418    1.403   .     S
C414   C415    1.393   .     S
C414   H534    1.083   .     S
C415   C416    1.406   .     D
C415   H535    1.082   .     S
C416   C417    1.402   .     S
C416   C419    1.474   .     S
C417   C418    1.389   .     D
C417   H536    1.082   .     S
C418   H537    1.084   .     S
C419   C424    1.403   .     D
C419   C622    1.406   .     S
C420   C421    1.391   .     S
C420   H538    1.081   .     S
C420   C621    1.406   .     D
C421   H539    1.083   .     S
C421   C624    1.396   .     D
C422   C423    1.398   .     D
C422   N466    1.431   .     S
C422   C623    1.396   .     S
C423   C424    1.390   .     S
C423   H540    1.082   .     S
C424   H541    1.082   .     S
C425   C430    1.397   .     S
C425   C628    1.400   .     D
C425   C1621   1.465   .     S
C426   C427    1.396   .     S
C426   H542    1.083   .     S
C426   C627    1.400   .     D
C427   C428    1.408   .     D
C427   H543    1.080   .     S
C428   N431    1.429   .     S
C428   C631    1.398   .     S
C429   C430    1.389   .     D
C429   H544    1.083   .     S
C429   C630    1.398   .     S
C430   H545    1.083   .     S
N431   C634    1.296   .     D
C432   C433    1.469   .     S
C432   H546    1.080   .     S
C432   N633    1.296   .     D
C433   C434    1.406   .     D
C433   C640    1.401   .     S
C434   C435    1.388   .     S
C434   H547    1.083   .     S
C435   C436    1.400   .     D
C435   H548    1.082   .     S
C436   C439    1.472   .     S
C436   C639    1.405   .     S
C437   C438    1.396   .     S
C437   H549    1.083   .     S
C437   C638    1.405   .     D
C438   H550    1.083   .     S
C438   C635    1.401   .     D
C439   C440    1.402   .     D
C439   C646    1.405   .     S
C440   C441    1.390   .     S
C440   H551    1.083   .     S
C441   C442    1.403   .     D
C441   H552    1.083   .     S
C442   C645    1.400   .     S
C442   N932    1.434   .     S
C443   C444    1.394   .     S
C443   H553    1.082   .     S
C443   C644    1.400   .     D
C444   H554    1.083   .     S
C444   C641    1.405   .     D
C445   C446    1.465   .     S
C445   C871    1.462   .     S
C445   C1113   1.343   .     D
C446   C451    1.396   .     D
C446   C649    1.399   .     S
C447   C448    1.395   1_554 S
C447   H555    1.083   .     S
C447   C648    1.399   .     D
C448   C447    1.395   1_556 S
C448   H556    1.082   .     S
C448   C651    1.400   .     D
C449   C450    1.408   .     D
C449   N452    1.430   .     S
C449   C650    1.400   .     S
C450   C451    1.388   1_556 S
C450   H557    1.082   .     S
C451   C450    1.388   1_554 S
C451   H558    1.082   .     S
N452   C453    1.297   .     D
C453   C454    1.463   .     S
C453   H559    1.081   .     S
C454   C455    1.399   .     D
C454   C459    1.404   .     S
C455   C456    1.389   .     S
C455   H560    1.083   .     S
C456   C457    1.403   .     D
C456   H561    1.083   .     S
C457   C458    1.404   .     S
C457   C460    1.471   .     S
C458   C459    1.395   .     D
C458   H562    1.083   .     S
C459   H563    1.083   .     S
C460   C465    1.402   .     D
C460   C663    1.404   .     S
C461   C462    1.394   .     S
C461   H564    1.083   .     S
C461   C662    1.404   .     D
C462   H565    1.082   .     S
C462   C665    1.403   .     D
C463   C464    1.402   .     D
C463   C664    1.403   .     S
C463   N932    1.434   .     S
C464   C465    1.388   .     S
C464   H566    1.083   .     S
C465   H567    1.082   .     S
N466   C908    1.434   .     S
N466   C929    1.434   .     S
C467   C472    1.397   .     D
C467   C670    1.399   .     S
C467   C849    1.462   .     S
C468   C469    1.392   .     S
C468   H568    1.082   .     S
C468   C669    1.399   .     D
C469   H569    1.082   .     S
C469   C672    1.397   .     D
C470   C471    1.404   .     D
C470   N473    1.423   .     S
C470   C671    1.397   .     S
C471   C472    1.389   .     S
C471   H570    1.081   .     S
C472   H571    1.082   .     S
N473   C474    1.293   .     D
C474   C475    1.461   .     S
C474   H572    1.085   .     S
C475   C476    1.398   .     D
C475   C480    1.403   .     S
C476   C477    1.393   .     S
C476   H573    1.082   .     S
C477   C478    1.406   .     D
C477   H574    1.082   .     S
C478   C479    1.403   .     S
C478   C481    1.475   .     S
C479   C480    1.389   .     D
C479   H575    1.082   .     S
C480   H576    1.083   .     S
C481   C486    1.404   .     D
C481   C684    1.407   .     S
C482   C483    1.392   .     S
C482   H577    1.081   .     S
C482   C683    1.407   .     D
C483   H578    1.083   .     S
C483   C686    1.397   .     D
C484   C485    1.399   .     D
C484   N528    1.431   .     S
C484   C685    1.397   .     S
C485   C486    1.390   .     S
C485   H579    1.083   .     S
C486   H580    1.082   .     S
C487   C492    1.397   .     S
C487   C690    1.400   .     D
C487   C1622   1.465   .     S
C488   C489    1.396   .     S
C488   H581    1.083   .     S
C488   C689    1.400   .     D
C489   C490    1.408   .     D
C489   H582    1.080   .     S
C490   N493    1.428   .     S
C490   C693    1.398   .     S
C491   C492    1.390   .     D
C491   H583    1.082   .     S
C491   C692    1.398   .     S
C492   H584    1.083   .     S
N493   C696    1.296   .     D
C494   C495    1.468   .     S
C494   H585    1.080   .     S
C494   N695    1.296   .     D
C495   C496    1.406   .     D
C495   C702    1.401   .     S
C496   C497    1.390   .     S
C496   H586    1.087   .     S
C497   C498    1.400   .     D
C497   H587    1.082   .     S
C498   C501    1.471   .     S
C498   C701    1.405   .     S
C499   C500    1.395   .     S
C499   H588    1.083   .     S
C499   C700    1.405   .     D
C500   H589    1.083   .     S
C500   C697    1.401   .     D
C501   C502    1.402   .     D
C501   C708    1.405   .     S
C502   C503    1.390   .     S
C502   H590    1.083   .     S
C503   C504    1.403   .     D
C503   H591    1.084   .     S
C504   C707    1.402   .     S
C504   N870    1.434   .     S
C505   C506    1.393   .     S
C505   H592    1.083   .     S
C505   C706    1.402   .     D
C506   H593    1.083   .     S
C506   C703    1.405   .     D
C507   C508    1.464   .     S
C507   C809    1.461   .     S
C507   C1051   1.343   .     D
C508   C513    1.396   .     D
C508   C711    1.400   .     S
C509   C510    1.395   .     S
C509   H594    1.083   .     S
C509   C710    1.400   .     D
C510   H595    1.082   .     S
C510   C713    1.399   .     D
C511   C512    1.408   .     D
C511   N514    1.430   .     S
C511   C712    1.399   .     S
C512   C513    1.388   .     S
C512   H596    1.081   .     S
C513   H597    1.081   .     S
N514   C515    1.297   .     D
C515   C516    1.462   .     S
C515   H598    1.082   .     S
C516   C517    1.399   .     D
C516   C521    1.405   .     S
C517   C518    1.389   .     S
C517   H599    1.083   .     S
C518   C519    1.402   .     D
C518   H600    1.083   .     S
C519   C520    1.404   .     S
C519   C522    1.469   .     S
C520   C521    1.394   .     D
C520   H601    1.083   .     S
C521   H602    1.083   .     S
C522   C527    1.403   .     D
C522   C725    1.403   .     S
C523   C524    1.393   .     S
C523   H603    1.083   .     S
C523   C724    1.403   .     D
C524   H604    1.079   .     S
C524   C727    1.402   .     D
C525   C526    1.403   .     D
C525   C726    1.402   .     S
C525   N870    1.434   .     S
C526   C527    1.388   .     S
C526   H605    1.083   .     S
C527   H606    1.082   .     S
N528   C846    1.434   .     S
N528   C867    1.434   .     S
H530   C407    1.083   1_556 S
C607   C612    1.397   .     S
C607   C1113   1.461   .     S
C608   C609    1.392   .     D
C608   H731    1.082   .     S
C609   C408    1.397   1_554 S
C609   H732    1.083   1_554 S
C610   C407    1.397   1_556 D
C610   C611    1.404   1_556 S
C610   N613    1.423   .     S
C611   C610    1.404   1_554 S
C611   C612    1.389   .     D
C611   H733    1.081   .     S
C612   H734    1.082   .     S
N613   C614    1.293   .     D
C614   C615    1.460   .     S
C614   H735    1.084   .     S
C615   C616    1.397   .     D
C615   C620    1.403   .     S
C616   C617    1.393   .     S
C616   H736    1.083   .     S
C617   C618    1.406   .     D
C617   H737    1.082   .     S
C618   C619    1.402   .     S
C618   C621    1.474   .     S
C619   C620    1.389   .     D
C619   H738    1.082   .     S
C620   H739    1.084   .     S
C621   C626    1.403   .     S
C622   C623    1.391   .     D
C622   H740    1.081   .     S
C623   H741    1.083   .     S
C624   C625    1.398   .     S
C624   N668    1.431   .     S
C625   C626    1.390   .     D
C625   H742    1.082   .     S
C626   H743    1.082   .     S
C627   C632    1.397   .     S
C627   C1623   1.465   1_565 S
C628   C629    1.396   .     S
C628   H744    1.083   .     S
C629   C630    1.408   .     D
C629   H745    1.080   .     S
C630   N633    1.429   .     S
C631   C632    1.389   .     D
C631   H746    1.083   .     S
C632   H747    1.083   .     S
C634   C635    1.469   .     S
C634   H748    1.080   .     S
C635   C636    1.406   .     S
C636   C637    1.388   .     D
C636   H749    1.083   .     S
C637   C638    1.400   .     S
C637   H750    1.082   .     S
C638   C641    1.472   .     S
C639   C640    1.396   .     D
C639   H751    1.083   .     S
C640   H752    1.083   .     S
C641   C642    1.402   .     S
C642   C643    1.390   .     D
C642   H753    1.083   .     S
C643   C644    1.403   .     S
C643   H754    1.083   .     S
C644   N1134   1.434   .     S
C645   C646    1.394   .     D
C645   H755    1.082   .     S
C646   H756    1.083   .     S
C647   C648    1.465   .     S
C647   C911    1.343   .     D
C647   C1073   1.462   .     S
C648   C653    1.396   .     S
C649   C650    1.395   1_554 D
C649   H757    1.083   .     S
C650   C649    1.395   1_556 D
C650   H758    1.082   .     S
C651   C652    1.408   .     S
C651   N654    1.430   .     S
C652   C653    1.388   1_556 D
C652   H759    1.082   .     S
C653   C652    1.388   1_554 D
C653   H760    1.082   .     S
N654   C655    1.297   .     D
C655   C656    1.463   .     S
C655   H761    1.081   .     S
C656   C657    1.399   .     D
C656   C661    1.404   .     S
C657   C658    1.389   .     S
C657   H762    1.083   .     S
C658   C659    1.403   .     D
C658   H763    1.083   .     S
C659   C660    1.404   .     S
C659   C662    1.471   .     S
C660   C661    1.395   .     D
C660   H764    1.083   .     S
C661   H765    1.083   .     S
C662   C667    1.402   .     S
C663   C664    1.394   .     D
C663   H766    1.083   .     S
C664   H767    1.082   .     S
C665   C666    1.402   .     S
C665   N1134   1.434   .     S
C666   C667    1.388   .     D
C666   H768    1.083   .     S
C667   H769    1.082   .     S
N668   C1110   1.434   .     S
N668   C1131   1.434   .     S
C669   C674    1.397   .     S
C669   C1051   1.462   .     S
C670   C671    1.392   .     D
C670   H770    1.082   .     S
C671   H771    1.082   .     S
C672   C673    1.404   .     S
C672   N675    1.423   .     S
C673   C674    1.389   .     D
C673   H772    1.081   .     S
C674   H773    1.082   .     S
N675   C676    1.293   .     D
C676   C677    1.461   .     S
C676   H774    1.085   .     S
C677   C678    1.398   .     D
C677   C682    1.403   .     S
C678   C679    1.393   .     S
C678   H775    1.082   .     S
C679   C680    1.406   .     D
C679   H776    1.082   .     S
C680   C681    1.403   .     S
C680   C683    1.475   .     S
C681   C682    1.389   .     D
C681   H777    1.082   .     S
C682   H778    1.083   .     S
C683   C688    1.404   .     S
C684   C685    1.392   .     D
C684   H779    1.081   .     S
C685   H780    1.083   .     S
C686   C687    1.399   .     S
C686   N730    1.431   .     S
C687   C688    1.390   .     D
C687   H781    1.083   .     S
C688   H782    1.082   .     S
C689   C694    1.397   .     S
C689   C1624   1.465   1_565 S
C690   C691    1.396   .     S
C690   H783    1.083   .     S
C691   C692    1.408   .     D
C691   H784    1.080   .     S
C692   N695    1.428   .     S
C693   C694    1.390   .     D
C693   H785    1.082   .     S
C694   H786    1.083   .     S
C696   C697    1.468   .     S
C696   H787    1.080   .     S
C697   C698    1.406   .     S
C698   C699    1.390   .     D
C698   H788    1.087   .     S
C699   C700    1.400   .     S
C699   H789    1.082   .     S
C700   C703    1.471   1_455 S
C701   C702    1.395   .     D
C701   H790    1.083   .     S
C702   H791    1.083   .     S
C703   C700    1.471   1_655 S
C703   C704    1.402   1_655 S
C704   C703    1.402   1_455 S
C704   C705    1.390   1_455 D
C704   H792    1.083   .     S
C705   C704    1.390   1_655 D
C705   C706    1.403   .     S
C705   H793    1.084   1_655 S
C706   N1072   1.434   .     S
C707   C708    1.393   .     D
C707   H794    1.083   .     S
C708   H795    1.083   .     S
C709   C710    1.464   .     S
C709   C849    1.343   .     D
C709   C1011   1.461   .     S
C710   C715    1.396   .     S
C711   C712    1.395   .     D
C711   H796    1.083   .     S
C712   H797    1.082   .     S
C713   C714    1.408   .     S
C713   N716    1.430   .     S
C714   C715    1.388   .     D
C714   H798    1.081   .     S
C715   H799    1.081   .     S
N716   C717    1.297   .     D
C717   C718    1.462   .     S
C717   H800    1.082   .     S
C718   C719    1.399   .     D
C718   C723    1.405   .     S
C719   C720    1.389   .     S
C719   H801    1.083   .     S
C720   C721    1.402   .     D
C720   H802    1.083   .     S
C721   C722    1.404   .     S
C721   C724    1.469   .     S
C722   C723    1.394   .     D
C722   H803    1.083   .     S
C723   H804    1.083   .     S
C724   C729    1.403   .     S
C725   C726    1.393   .     D
C725   H805    1.083   .     S
C726   H806    1.079   .     S
C727   C728    1.403   .     S
C727   N1072   1.434   .     S
C728   C729    1.388   .     D
C728   H807    1.083   .     S
C729   H808    1.082   .     S
N730   C1048   1.434   .     S
N730   C1069   1.434   .     S
H732   C609    1.083   1_556 S
H793   C705    1.084   1_455 S
C809   C814    1.397   .     D
C809   C1012   1.400   .     S
C810   C811    1.392   .     S
C810   H933    1.082   .     S
C810   C1011   1.400   .     D
C811   H934    1.083   1_554 S
C811   C1014   1.397   1_554 D
C812   C813    1.404   1_556 D
C812   N815    1.423   .     S
C812   C1013   1.397   1_556 S
C813   C812    1.404   1_554 D
C813   C814    1.389   .     S
C813   H935    1.081   .     S
C814   H936    1.082   .     S
N815   C816    1.293   .     D
C816   C817    1.460   .     S
C816   H937    1.084   .     S
C817   C818    1.397   .     D
C817   C822    1.403   .     S
C818   C819    1.393   .     S
C818   H938    1.083   .     S
C819   C820    1.406   .     D
C819   H939    1.082   .     S
C820   C821    1.402   .     S
C820   C823    1.474   .     S
C821   C822    1.389   .     D
C821   H940    1.082   .     S
C822   H941    1.084   .     S
C823   C828    1.403   .     D
C823   C1026   1.406   .     S
C824   C825    1.391   .     S
C824   H942    1.081   .     S
C824   C1025   1.406   .     D
C825   H943    1.083   .     S
C825   C1028   1.396   .     D
C826   C827    1.398   .     D
C826   N870    1.431   .     S
C826   C1027   1.396   .     S
C827   C828    1.390   .     S
C827   H944    1.082   .     S
C828   H945    1.082   .     S
C829   C834    1.397   .     S
C829   C1032   1.400   .     D
C829   C1621   1.465   .     S
C830   C831    1.396   .     D
C830   H946    1.083   .     S
C830   C1031   1.400   .     S
C831   C832    1.408   .     S
C831   H947    1.080   .     S
C832   N835    1.429   .     S
C832   C1035   1.398   .     D
C833   C834    1.389   .     D
C833   H948    1.083   .     S
C833   C1034   1.398   .     S
C834   H949    1.083   .     S
N835   C1038   1.296   .     D
C836   C837    1.469   .     S
C836   H950    1.080   .     S
C836   N1037   1.296   .     D
C837   C838    1.406   .     D
C837   C1044   1.401   .     S
C838   C839    1.388   .     S
C838   H951    1.083   .     S
C839   C840    1.400   .     D
C839   H952    1.082   .     S
C840   C843    1.472   .     S
C840   C1043   1.405   .     S
C841   C842    1.396   .     D
C841   H953    1.083   .     S
C841   C1042   1.405   .     S
C842   H954    1.083   .     S
C842   C1039   1.401   .     S
C843   C844    1.402   .     D
C843   C1050   1.405   .     S
C844   C845    1.390   .     S
C844   H955    1.083   .     S
C845   C846    1.403   .     D
C845   H956    1.083   .     S
C846   C1049   1.400   .     S
C847   C848    1.394   .     D
C847   H957    1.082   .     S
C847   C1048   1.400   .     S
C848   H958    1.083   .     S
C848   C1045   1.405   .     S
C849   C850    1.465   .     S
C850   C855    1.396   .     D
C850   C1053   1.399   .     S
C851   C852    1.395   1_554 S
C851   H959    1.083   .     S
C851   C1052   1.399   .     D
C852   C851    1.395   1_556 S
C852   H960    1.082   .     S
C852   C1055   1.400   .     D
C853   C854    1.408   .     D
C853   N856    1.430   .     S
C853   C1054   1.400   .     S
C854   C855    1.388   1_556 S
C854   H961    1.082   .     S
C855   C854    1.388   1_554 S
C855   H962    1.082   .     S
N856   C857    1.297   .     D
C857   C858    1.463   .     S
C857   H963    1.081   .     S
C858   C859    1.399   .     D
C858   C863    1.404   .     S
C859   C860    1.389   .     S
C859   H964    1.083   .     S
C860   C861    1.403   .     D
C860   H965    1.083   .     S
C861   C862    1.404   .     S
C861   C864    1.471   .     S
C862   C863    1.395   .     D
C862   H966    1.083   .     S
C863   H967    1.083   .     S
C864   C869    1.402   .     D
C864   C1067   1.404   .     S
C865   C866    1.394   .     S
C865   H968    1.083   .     S
C865   C1066   1.404   .     D
C866   H969    1.082   .     S
C866   C1069   1.403   .     D
C867   C868    1.402   .     D
C867   C1068   1.403   .     S
C868   C869    1.388   .     S
C868   H970    1.083   .     S
C869   H971    1.082   .     S
C871   C876    1.397   .     D
C871   C1074   1.399   .     S
C872   C873    1.392   .     S
C872   H972    1.082   .     S
C872   C1073   1.399   .     D
C873   H973    1.082   .     S
C873   C1076   1.397   .     D
C874   C875    1.404   .     D
C874   N877    1.423   .     S
C874   C1075   1.397   .     S
C875   C876    1.389   .     S
C875   H974    1.081   .     S
C876   H975    1.082   .     S
N877   C878    1.293   .     D
C878   C879    1.461   .     S
C878   H976    1.085   .     S
C879   C880    1.398   .     D
C879   C884    1.403   .     S
C880   C881    1.393   .     S
C880   H977    1.082   .     S
C881   C882    1.406   .     D
C881   H978    1.082   .     S
C882   C883    1.403   .     S
C882   C885    1.475   .     S
C883   C884    1.389   .     D
C883   H979    1.082   .     S
C884   H980    1.083   .     S
C885   C890    1.404   .     D
C885   C1088   1.407   .     S
C886   C887    1.392   .     S
C886   H981    1.081   .     S
C886   C1087   1.407   .     D
C887   H982    1.083   .     S
C887   C1090   1.397   .     D
C888   C889    1.399   .     D
C888   N932    1.431   .     S
C888   C1089   1.397   .     S
C889   C890    1.390   .     S
C889   H983    1.083   .     S
C890   H984    1.082   .     S
C891   C896    1.397   .     S
C891   C1094   1.400   .     D
C891   C1622   1.465   .     S
C892   C893    1.396   .     D
C892   H985    1.083   .     S
C892   C1093   1.400   .     S
C893   C894    1.408   .     S
C893   H986    1.080   .     S
C894   N897    1.428   .     S
C894   C1097   1.398   .     D
C895   C896    1.390   .     D
C895   H987    1.082   .     S
C895   C1096   1.398   .     S
C896   H988    1.083   .     S
N897   C1100   1.296   .     D
C898   C899    1.468   .     S
C898   H989    1.080   .     S
C898   N1099   1.296   .     D
C899   C900    1.406   .     D
C899   C1106   1.401   .     S
C900   C901    1.390   .     S
C900   H990    1.087   .     S
C901   C902    1.400   .     D
C901   H991    1.082   .     S
C902   C905    1.471   .     S
C902   C1105   1.405   .     S
C903   C904    1.395   .     D
C903   H992    1.083   .     S
C903   C1104   1.405   .     S
C904   H993    1.083   .     S
C904   C1101   1.401   .     S
C905   C906    1.402   .     D
C905   C1112   1.405   .     S
C906   C907    1.390   .     S
C906   H994    1.083   .     S
C907   C908    1.403   .     D
C907   H995    1.084   .     S
C908   C1111   1.402   .     S
C909   C910    1.393   .     D
C909   H996    1.083   .     S
C909   C1110   1.402   .     S
C910   H997    1.083   .     S
C910   C1107   1.405   .     S
C911   C912    1.464   .     S
C912   C917    1.396   .     D
C912   C1115   1.400   .     S
C913   C914    1.395   .     S
C913   H998    1.083   .     S
C913   C1114   1.400   .     D
C914   H999    1.082   .     S
C914   C1117   1.399   .     D
C915   C916    1.408   .     D
C915   N918    1.430   .     S
C915   C1116   1.399   .     S
C916   C917    1.388   .     S
C916   H1000   1.081   .     S
C917   H1001   1.081   .     S
N918   C919    1.297   .     D
C919   C920    1.462   .     S
C919   H1002   1.082   .     S
C920   C921    1.399   .     D
C920   C925    1.405   .     S
C921   C922    1.389   .     S
C921   H1003   1.083   .     S
C922   C923    1.402   .     D
C922   H1004   1.083   .     S
C923   C924    1.404   .     S
C923   C926    1.469   .     S
C924   C925    1.394   .     D
C924   H1005   1.083   .     S
C925   H1006   1.083   .     S
C926   C931    1.403   .     D
C926   C1129   1.403   .     S
C927   C928    1.393   .     S
C927   H1007   1.083   .     S
C927   C1128   1.403   .     D
C928   H1008   1.079   .     S
C928   C1131   1.402   .     D
C929   C930    1.403   .     D
C929   C1130   1.402   .     S
C930   C931    1.388   .     S
C930   H1009   1.083   .     S
C931   H1010   1.082   .     S
H934   C811    1.083   1_556 S
C1011  C1016   1.397   .     S
C1012  C1013   1.392   .     D
C1012  H1135   1.082   .     S
C1013  C812    1.397   1_554 S
C1013  H1136   1.083   1_554 S
C1014  C811    1.397   1_556 D
C1014  C1015   1.404   1_556 S
C1014  N1017   1.423   .     S
C1015  C1014   1.404   1_554 S
C1015  C1016   1.389   .     D
C1015  H1137   1.081   .     S
C1016  H1138   1.082   .     S
N1017  C1018   1.293   .     D
C1018  C1019   1.460   .     S
C1018  H1139   1.084   .     S
C1019  C1020   1.397   .     D
C1019  C1024   1.403   .     S
C1020  C1021   1.393   .     S
C1020  H1140   1.083   .     S
C1021  C1022   1.406   .     D
C1021  H1141   1.082   .     S
C1022  C1023   1.402   .     S
C1022  C1025   1.474   .     S
C1023  C1024   1.389   .     D
C1023  H1142   1.082   .     S
C1024  H1143   1.084   .     S
C1025  C1030   1.403   .     S
C1026  C1027   1.391   .     D
C1026  H1144   1.081   .     S
C1027  H1145   1.083   .     S
C1028  C1029   1.398   .     S
C1028  N1072   1.431   .     S
C1029  C1030   1.390   .     D
C1029  H1146   1.082   .     S
C1030  H1147   1.082   .     S
C1031  C1036   1.397   .     D
C1031  C1623   1.465   .     S
C1032  C1033   1.396   .     S
C1032  H1148   1.083   .     S
C1033  C1034   1.408   .     D
C1033  H1149   1.080   .     S
C1034  N1037   1.429   .     S
C1035  C1036   1.389   .     S
C1035  H1150   1.083   .     S
C1036  H1151   1.083   .     S
C1038  C1039   1.469   .     S
C1038  H1152   1.080   .     S
C1039  C1040   1.406   .     D
C1040  C1041   1.388   .     S
C1040  H1153   1.083   .     S
C1041  C1042   1.400   .     D
C1041  H1154   1.082   .     S
C1042  C1045   1.472   .     S
C1043  C1044   1.396   .     D
C1043  H1155   1.083   .     S
C1044  H1156   1.083   .     S
C1045  C1046   1.402   .     D
C1046  C1047   1.390   .     S
C1046  H1157   1.083   .     S
C1047  C1048   1.403   .     D
C1047  H1158   1.083   .     S
C1049  C1050   1.394   .     D
C1049  H1159   1.082   .     S
C1050  H1160   1.083   .     S
C1051  C1052   1.465   .     S
C1052  C1057   1.396   .     S
C1053  C1054   1.395   1_554 D
C1053  H1161   1.083   .     S
C1054  C1053   1.395   1_556 D
C1054  H1162   1.082   .     S
C1055  C1056   1.408   .     S
C1055  N1058   1.430   .     S
C1056  C1057   1.388   1_556 D
C1056  H1163   1.082   .     S
C1057  C1056   1.388   1_554 D
C1057  H1164   1.082   .     S
N1058  C1059   1.297   .     D
C1059  C1060   1.463   .     S
C1059  H1165   1.081   .     S
C1060  C1061   1.399   .     D
C1060  C1065   1.404   .     S
C1061  C1062   1.389   .     S
C1061  H1166   1.083   .     S
C1062  C1063   1.403   .     D
C1062  H1167   1.083   .     S
C1063  C1064   1.404   .     S
C1063  C1066   1.471   .     S
C1064  C1065   1.395   .     D
C1064  H1168   1.083   .     S
C1065  H1169   1.083   .     S
C1066  C1071   1.402   .     S
C1067  C1068   1.394   .     D
C1067  H1170   1.083   .     S
C1068  H1171   1.082   .     S
C1069  C1070   1.402   .     S
C1070  C1071   1.388   .     D
C1070  H1172   1.083   .     S
C1071  H1173   1.082   .     S
C1073  C1078   1.397   .     S
C1074  C1075   1.392   .     D
C1074  H1174   1.082   .     S
C1075  H1175   1.082   .     S
C1076  C1077   1.404   .     S
C1076  N1079   1.423   .     S
C1077  C1078   1.389   .     D
C1077  H1176   1.081   .     S
C1078  H1177   1.082   .     S
N1079  C1080   1.293   .     D
C1080  C1081   1.461   .     S
C1080  H1178   1.085   .     S
C1081  C1082   1.398   .     D
C1081  C1086   1.403   .     S
C1082  C1083   1.393   .     S
C1082  H1179   1.082   .     S
C1083  C1084   1.406   .     D
C1083  H1180   1.082   .     S
C1084  C1085   1.403   .     S
C1084  C1087   1.475   .     S
C1085  C1086   1.389   .     D
C1085  H1181   1.082   .     S
C1086  H1182   1.083   .     S
C1087  C1092   1.404   .     S
C1088  C1089   1.392   .     D
C1088  H1183   1.081   .     S
C1089  H1184   1.083   .     S
C1090  C1091   1.399   .     S
C1090  N1134   1.431   .     S
C1091  C1092   1.390   .     D
C1091  H1185   1.083   .     S
C1092  H1186   1.082   .     S
C1093  C1098   1.397   .     D
C1093  C1624   1.465   .     S
C1094  C1095   1.396   .     S
C1094  H1187   1.083   .     S
C1095  C1096   1.408   .     D
C1095  H1188   1.080   .     S
C1096  N1099   1.428   .     S
C1097  C1098   1.390   .     S
C1097  H1189   1.082   .     S
C1098  H1190   1.083   .     S
C1100  C1101   1.468   .     S
C1100  H1191   1.080   .     S
C1101  C1102   1.406   .     D
C1102  C1103   1.390   .     S
C1102  H1192   1.087   .     S
C1103  C1104   1.400   .     D
C1103  H1193   1.082   .     S
C1104  C1107   1.471   1_455 S
C1105  C1106   1.395   .     D
C1105  H1194   1.083   .     S
C1106  H1195   1.083   .     S
C1107  C1104   1.471   1_655 S
C1107  C1108   1.402   1_655 D
C1108  C1107   1.402   1_455 D
C1108  C1109   1.390   1_455 S
C1108  H1196   1.083   .     S
C1109  C1108   1.390   1_655 S
C1109  C1110   1.403   .     D
C1109  H1197   1.084   1_655 S
C1111  C1112   1.393   .     D
C1111  H1198   1.083   .     S
C1112  H1199   1.083   .     S
C1113  C1114   1.464   .     S
C1114  C1119   1.396   .     S
C1115  C1116   1.395   .     D
C1115  H1200   1.083   .     S
C1116  H1201   1.082   .     S
C1117  C1118   1.408   .     S
C1117  N1120   1.430   .     S
C1118  C1119   1.388   .     D
C1118  H1202   1.081   .     S
C1119  H1203   1.081   .     S
N1120  C1121   1.297   .     D
C1121  C1122   1.462   .     S
C1121  H1204   1.082   .     S
C1122  C1123   1.399   .     D
C1122  C1127   1.405   .     S
C1123  C1124   1.389   .     S
C1123  H1205   1.083   .     S
C1124  C1125   1.402   .     D
C1124  H1206   1.083   .     S
C1125  C1126   1.404   .     S
C1125  C1128   1.469   .     S
C1126  C1127   1.394   .     D
C1126  H1207   1.083   .     S
C1127  H1208   1.083   .     S
C1128  C1133   1.403   .     S
C1129  C1130   1.393   .     D
C1129  H1209   1.083   .     S
C1130  H1210   1.079   .     S
C1131  C1132   1.403   .     S
C1132  C1133   1.388   .     D
C1132  H1211   1.083   .     S
C1133  H1212   1.082   .     S
H1136  C1013   1.083   1_556 S
H1197  C1109   1.084   1_455 S
C1213  C1218   1.397   .     D
C1213  C1416   1.400   .     S
C1214  C1215   1.392   .     S
C1214  H1337   1.082   .     S
C1214  C1415   1.400   .     D
C1215  H1338   1.083   1_556 S
C1215  C1418   1.397   1_556 D
C1216  C1217   1.404   1_554 D
C1216  N1219   1.423   .     S
C1216  C1417   1.397   1_554 S
C1217  C1216   1.404   1_556 D
C1217  C1218   1.389   .     S
C1217  H1339   1.081   .     S
C1218  H1340   1.082   .     S
N1219  C1220   1.293   .     D
C1220  C1221   1.460   .     S
C1220  H1341   1.084   .     S
C1221  C1222   1.397   .     D
C1221  C1226   1.403   .     S
C1222  C1223   1.393   .     S
C1222  H1342   1.083   .     S
C1223  C1224   1.406   .     D
C1223  H1343   1.082   .     S
C1224  C1225   1.402   .     S
C1224  C1227   1.474   .     S
C1225  C1226   1.389   .     D
C1225  H1344   1.082   .     S
C1226  H1345   1.084   .     S
C1227  C1232   1.403   .     D
C1227  C1430   1.406   .     S
C1228  C1229   1.391   .     S
C1228  H1346   1.081   .     S
C1228  C1429   1.406   .     D
C1229  H1347   1.083   .     S
C1229  C1432   1.396   .     D
C1230  C1231   1.398   .     D
C1230  N1274   1.431   .     S
C1230  C1431   1.396   .     S
C1231  C1232   1.390   .     S
C1231  H1348   1.082   .     S
C1232  H1349   1.082   .     S
C1233  C1238   1.397   .     D
C1233  C1436   1.400   .     S
C1233  C1617   1.465   .     S
C1234  C1235   1.396   .     D
C1234  H1350   1.083   .     S
C1234  C1435   1.400   .     S
C1235  C1236   1.408   .     S
C1235  H1351   1.080   .     S
C1236  N1239   1.429   .     S
C1236  C1439   1.398   .     D
C1237  C1238   1.389   .     S
C1237  H1352   1.083   .     S
C1237  C1438   1.398   .     D
C1238  H1353   1.083   .     S
N1239  C1442   1.296   .     D
C1240  C1241   1.469   .     S
C1240  H1354   1.080   .     S
C1240  N1441   1.296   .     D
C1241  C1242   1.406   .     D
C1241  C1448   1.401   .     S
C1242  C1243   1.388   .     S
C1242  H1355   1.083   .     S
C1243  C1244   1.400   .     D
C1243  H1356   1.082   .     S
C1244  C1247   1.472   .     S
C1244  C1447   1.405   .     S
C1245  C1246   1.396   .     D
C1245  H1357   1.083   .     S
C1245  C1446   1.405   .     S
C1246  H1358   1.083   .     S
C1246  C1443   1.401   .     S
C1247  C1248   1.402   .     D
C1247  C1454   1.405   .     S
C1248  C1249   1.390   .     S
C1248  H1359   1.083   .     S
C1249  C1250   1.403   .     D
C1249  H1360   1.083   .     S
C1250  C1453   1.400   .     S
C1251  C1252   1.394   .     D
C1251  H1361   1.082   .     S
C1251  C1452   1.400   .     S
C1252  H1362   1.083   .     S
C1252  C1449   1.405   .     S
C1253  C1254   1.465   .     S
C1254  C1259   1.396   .     D
C1254  C1457   1.399   .     S
C1255  C1256   1.395   1_556 S
C1255  H1363   1.083   .     S
C1255  C1456   1.399   .     D
C1256  C1255   1.395   1_554 S
C1256  H1364   1.082   .     S
C1256  C1459   1.400   .     D
C1257  C1258   1.408   .     D
C1257  N1260   1.430   .     S
C1257  C1458   1.400   .     S
C1258  C1259   1.388   1_554 S
C1258  H1365   1.082   .     S
C1259  C1258   1.388   1_556 S
C1259  H1366   1.082   .     S
N1260  C1261   1.297   .     D
C1261  C1262   1.463   .     S
C1261  H1367   1.081   .     S
C1262  C1263   1.399   .     D
C1262  C1267   1.404   .     S
C1263  C1264   1.389   .     S
C1263  H1368   1.083   .     S
C1264  C1265   1.403   .     D
C1264  H1369   1.083   .     S
C1265  C1266   1.404   .     S
C1265  C1268   1.471   .     S
C1266  C1267   1.395   .     D
C1266  H1370   1.083   .     S
C1267  H1371   1.083   .     S
C1268  C1273   1.402   .     D
C1268  C1471   1.404   .     S
C1269  C1270   1.394   .     S
C1269  H1372   1.083   .     S
C1269  C1470   1.404   .     D
C1270  H1373   1.082   .     S
C1270  C1473   1.403   .     D
C1271  C1272   1.402   .     D
C1271  C1472   1.403   .     S
C1272  C1273   1.388   .     S
C1272  H1374   1.083   .     S
C1273  H1375   1.082   .     S
C1275  C1280   1.397   .     D
C1275  C1478   1.399   .     S
C1276  C1277   1.392   .     S
C1276  H1376   1.082   .     S
C1276  C1477   1.399   .     D
C1277  H1377   1.082   .     S
C1277  C1480   1.397   .     D
C1278  C1279   1.404   .     D
C1278  N1281   1.423   .     S
C1278  C1479   1.397   .     S
C1279  C1280   1.389   .     S
C1279  H1378   1.081   .     S
C1280  H1379   1.082   .     S
N1281  C1282   1.293   .     D
C1282  C1283   1.461   .     S
C1282  H1380   1.085   .     S
C1283  C1284   1.398   .     D
C1283  C1288   1.403   .     S
C1284  C1285   1.393   .     S
C1284  H1381   1.082   .     S
C1285  C1286   1.406   .     D
C1285  H1382   1.082   .     S
C1286  C1287   1.403   .     S
C1286  C1289   1.475   .     S
C1287  C1288   1.389   .     D
C1287  H1383   1.082   .     S
C1288  H1384   1.083   .     S
C1289  C1294   1.404   .     D
C1289  C1492   1.407   .     S
C1290  C1291   1.392   .     S
C1290  H1385   1.081   .     S
C1290  C1491   1.407   .     D
C1291  H1386   1.083   .     S
C1291  C1494   1.397   .     D
C1292  C1293   1.399   .     D
C1292  N1336   1.431   .     S
C1292  C1493   1.397   .     S
C1293  C1294   1.390   .     S
C1293  H1387   1.083   .     S
C1294  H1388   1.082   .     S
C1295  C1300   1.397   .     S
C1295  C1498   1.400   .     D
C1295  C1618   1.465   .     S
C1296  C1297   1.396   .     D
C1296  H1389   1.083   .     S
C1296  C1497   1.400   .     S
C1297  C1298   1.408   .     S
C1297  H1390   1.080   .     S
C1298  N1301   1.428   .     S
C1298  C1501   1.398   .     D
C1299  C1300   1.390   .     D
C1299  H1391   1.082   .     S
C1299  C1500   1.398   .     S
C1300  H1392   1.083   .     S
N1301  C1504   1.296   .     D
C1302  C1303   1.468   .     S
C1302  H1393   1.080   .     S
C1302  N1503   1.296   .     D
C1303  C1304   1.406   .     D
C1303  C1510   1.401   .     S
C1304  C1305   1.390   .     S
C1304  H1394   1.087   .     S
C1305  C1306   1.400   .     D
C1305  H1395   1.082   .     S
C1306  C1309   1.471   .     S
C1306  C1509   1.405   .     S
C1307  C1308   1.395   .     D
C1307  H1396   1.083   .     S
C1307  C1508   1.405   .     S
C1308  H1397   1.083   .     S
C1308  C1505   1.401   .     S
C1309  C1310   1.402   .     D
C1309  C1516   1.405   .     S
C1310  C1311   1.390   .     S
C1310  H1398   1.083   .     S
C1311  C1312   1.403   .     D
C1311  H1399   1.084   .     S
C1312  C1515   1.402   .     S
C1313  C1314   1.393   .     D
C1313  H1400   1.083   .     S
C1313  C1514   1.402   .     S
C1314  H1401   1.083   .     S
C1314  C1511   1.405   .     S
C1315  C1316   1.464   .     S
C1316  C1321   1.396   .     D
C1316  C1519   1.400   .     S
C1317  C1318   1.395   .     S
C1317  H1402   1.083   .     S
C1317  C1518   1.400   .     D
C1318  H1403   1.082   .     S
C1318  C1521   1.399   .     D
C1319  C1320   1.408   .     D
C1319  N1322   1.430   .     S
C1319  C1520   1.399   .     S
C1320  C1321   1.388   .     S
C1320  H1404   1.081   .     S
C1321  H1405   1.081   .     S
N1322  C1323   1.297   .     D
C1323  C1324   1.462   .     S
C1323  H1406   1.082   .     S
C1324  C1325   1.399   .     D
C1324  C1329   1.405   .     S
C1325  C1326   1.389   .     S
C1325  H1407   1.083   .     S
C1326  C1327   1.402   .     D
C1326  H1408   1.083   .     S
C1327  C1328   1.404   .     S
C1327  C1330   1.469   .     S
C1328  C1329   1.394   .     D
C1328  H1409   1.083   .     S
C1329  H1410   1.083   .     S
C1330  C1335   1.403   .     D
C1330  C1533   1.403   .     S
C1331  C1332   1.393   .     S
C1331  H1411   1.083   .     S
C1331  C1532   1.403   .     D
C1332  H1412   1.079   .     S
C1332  C1535   1.402   .     D
C1333  C1334   1.403   .     D
C1333  C1534   1.402   .     S
C1334  C1335   1.388   .     S
C1334  H1413   1.083   .     S
C1335  H1414   1.082   .     S
H1338  C1215   1.083   1_554 S
C1415  C1420   1.397   .     S
C1416  C1417   1.392   .     D
C1416  H1539   1.082   .     S
C1417  C1216   1.397   1_556 S
C1417  H1540   1.083   1_556 S
C1418  C1215   1.397   1_554 D
C1418  C1419   1.404   1_554 S
C1418  N1421   1.423   .     S
C1419  C1418   1.404   1_556 S
C1419  C1420   1.389   .     D
C1419  H1541   1.081   .     S
C1420  H1542   1.082   .     S
N1421  C1422   1.293   .     D
C1422  C1423   1.460   .     S
C1422  H1543   1.084   .     S
C1423  C1424   1.397   .     D
C1423  C1428   1.403   .     S
C1424  C1425   1.393   .     S
C1424  H1544   1.083   .     S
C1425  C1426   1.406   .     D
C1425  H1545   1.082   .     S
C1426  C1427   1.402   .     S
C1426  C1429   1.474   .     S
C1427  C1428   1.389   .     D
C1427  H1546   1.082   .     S
C1428  H1547   1.084   .     S
C1429  C1434   1.403   .     S
C1430  C1431   1.391   .     D
C1430  H1548   1.081   .     S
C1431  H1549   1.083   .     S
C1432  C1433   1.398   .     S
C1432  N1476   1.431   .     S
C1433  C1434   1.390   .     D
C1433  H1550   1.082   .     S
C1434  H1551   1.082   .     S
C1435  C1440   1.397   .     D
C1435  C1619   1.465   .     S
C1436  C1437   1.396   .     D
C1436  H1552   1.083   .     S
C1437  C1438   1.408   .     S
C1437  H1553   1.080   .     S
C1438  N1441   1.429   .     S
C1439  C1440   1.389   .     S
C1439  H1554   1.083   .     S
C1440  H1555   1.083   .     S
C1442  C1443   1.469   .     S
C1442  H1556   1.080   .     S
C1443  C1444   1.406   .     D
C1444  C1445   1.388   .     S
C1444  H1557   1.083   .     S
C1445  C1446   1.400   .     D
C1445  H1558   1.082   .     S
C1446  C1449   1.472   .     S
C1447  C1448   1.396   .     D
C1447  H1559   1.083   .     S
C1448  H1560   1.083   .     S
C1449  C1450   1.402   .     D
C1450  C1451   1.390   .     S
C1450  H1561   1.083   .     S
C1451  C1452   1.403   .     D
C1451  H1562   1.083   .     S
C1453  C1454   1.394   .     D
C1453  H1563   1.082   .     S
C1454  H1564   1.083   .     S
C1455  C1456   1.465   .     S
C1456  C1461   1.396   .     S
C1457  C1458   1.395   1_556 D
C1457  H1565   1.083   .     S
C1458  C1457   1.395   1_554 D
C1458  H1566   1.082   .     S
C1459  C1460   1.408   .     S
C1459  N1462   1.430   .     S
C1460  C1461   1.388   1_554 D
C1460  H1567   1.082   .     S
C1461  C1460   1.388   1_556 D
C1461  H1568   1.082   .     S
N1462  C1463   1.297   .     D
C1463  C1464   1.463   .     S
C1463  H1569   1.081   .     S
C1464  C1465   1.399   .     D
C1464  C1469   1.404   .     S
C1465  C1466   1.389   .     S
C1465  H1570   1.083   .     S
C1466  C1467   1.403   .     D
C1466  H1571   1.083   .     S
C1467  C1468   1.404   .     S
C1467  C1470   1.471   .     S
C1468  C1469   1.395   .     D
C1468  H1572   1.083   .     S
C1469  H1573   1.083   .     S
C1470  C1475   1.402   .     S
C1471  C1472   1.394   .     D
C1471  H1574   1.083   .     S
C1472  H1575   1.082   .     S
C1473  C1474   1.402   .     S
C1474  C1475   1.388   .     D
C1474  H1576   1.083   .     S
C1475  H1577   1.082   .     S
C1477  C1482   1.397   .     S
C1478  C1479   1.392   .     D
C1478  H1578   1.082   .     S
C1479  H1579   1.082   .     S
C1480  C1481   1.404   .     S
C1480  N1483   1.423   .     S
C1481  C1482   1.389   .     D
C1481  H1580   1.081   .     S
C1482  H1581   1.082   .     S
N1483  C1484   1.293   .     D
C1484  C1485   1.461   .     S
C1484  H1582   1.085   .     S
C1485  C1486   1.398   .     D
C1485  C1490   1.404   .     S
C1486  C1487   1.393   .     S
C1486  H1583   1.082   .     S
C1487  C1488   1.406   .     D
C1487  H1584   1.082   .     S
C1488  C1489   1.403   .     S
C1488  C1491   1.475   .     S
C1489  C1490   1.389   .     D
C1489  H1585   1.082   .     S
C1490  H1586   1.083   .     S
C1491  C1496   1.404   .     S
C1492  C1493   1.392   .     D
C1492  H1587   1.081   .     S
C1493  H1588   1.083   .     S
C1494  C1495   1.399   .     S
C1494  N1538   1.431   .     S
C1495  C1496   1.390   .     D
C1495  H1589   1.083   .     S
C1496  H1590   1.082   .     S
C1497  C1502   1.397   .     D
C1497  C1620   1.465   .     S
C1498  C1499   1.396   .     S
C1498  H1591   1.083   .     S
C1499  C1500   1.408   .     D
C1499  H1592   1.080   .     S
C1500  N1503   1.428   .     S
C1501  C1502   1.390   .     S
C1501  H1593   1.082   .     S
C1502  H1594   1.083   .     S
C1504  C1505   1.468   .     S
C1504  H1595   1.080   .     S
C1505  C1506   1.406   .     D
C1506  C1507   1.390   .     S
C1506  H1596   1.087   .     S
C1507  C1508   1.400   .     D
C1507  H1597   1.082   .     S
C1508  C1511   1.471   1_655 S
C1509  C1510   1.395   .     D
C1509  H1598   1.083   .     S
C1510  H1599   1.083   .     S
C1511  C1508   1.471   1_455 S
C1511  C1512   1.402   1_455 D
C1512  C1511   1.402   1_655 D
C1512  C1513   1.390   1_655 S
C1512  H1600   1.083   .     S
C1513  C1512   1.390   1_455 S
C1513  C1514   1.403   .     D
C1513  H1601   1.084   1_455 S
C1515  C1516   1.393   .     D
C1515  H1602   1.083   .     S
C1516  H1603   1.083   .     S
C1517  C1518   1.464   .     S
C1518  C1523   1.396   .     S
C1519  C1520   1.395   .     D
C1519  H1604   1.083   .     S
C1520  H1605   1.082   .     S
C1521  C1522   1.408   .     S
C1521  N1524   1.430   .     S
C1522  C1523   1.388   .     D
C1522  H1606   1.081   .     S
C1523  H1607   1.081   .     S
N1524  C1525   1.297   .     D
C1525  C1526   1.462   .     S
C1525  H1608   1.082   .     S
C1526  C1527   1.399   .     D
C1526  C1531   1.405   .     S
C1527  C1528   1.389   .     S
C1527  H1609   1.083   .     S
C1528  C1529   1.402   .     D
C1528  H1610   1.083   .     S
C1529  C1530   1.404   .     S
C1529  C1532   1.469   .     S
C1530  C1531   1.394   .     D
C1530  H1611   1.083   .     S
C1531  H1612   1.083   .     S
C1532  C1537   1.403   .     S
C1533  C1534   1.393   .     D
C1533  H1613   1.083   .     S
C1534  H1614   1.079   .     S
C1535  C1536   1.403   .     S
C1536  C1537   1.388   .     D
C1536  H1615   1.083   .     S
C1537  H1616   1.082   .     S
H1540  C1417   1.083   1_554 S
H1601  C1513   1.084   1_655 S
C1617  C1618   1.348   .     D
C1619  C223    1.465   1_545 S
C1619  C1620   1.348   .     D
C1620  C285    1.465   1_545 S
C1621  C1622   1.348   .     D
C1623  C627    1.465   1_545 S
C1623  C1624   1.348   .     D
C1624  C689    1.465   1_545 S
