data_836
_audit_creation_date              2023-09-08
_audit_creation_method            'Materials Studio'
_symmetry_space_group_name_H-M    'P1'
_symmetry_Int_Tables_number       1
_symmetry_cell_setting            triclinic
loop_
_symmetry_equiv_pos_as_xyz
  x,y,z
_cell_length_a                    36.4595
_cell_length_b                    23.5469
_cell_length_c                    7.0923
_cell_angle_alpha                 90.0000
_cell_angle_beta                  90.0000
_cell_angle_gamma                 90.0000
loop_
_atom_site_label
_atom_site_type_symbol
_atom_site_fract_x
_atom_site_fract_y
_atom_site_fract_z
_atom_site_U_iso_or_equiv
_atom_site_adp_type
_atom_site_occupancy
C1     C     0.48126   0.60381   0.27609   0.00000  Uiso   1.00
C2     C     0.46049   0.55273   0.24095   0.00000  Uiso   1.00
C3     C     0.42156   0.55242   0.21648   0.00000  Uiso   1.00
C4     C     0.40000   0.60654   0.20824   0.00000  Uiso   1.00
C5     C     0.41108   0.65271   0.09400   0.00000  Uiso   1.00
C6     C     0.39376   0.70526   0.10654   0.00000  Uiso   1.00
C7     C     0.36304   0.71306   0.22529   0.00000  Uiso   1.00
C8     C     0.35030   0.66585   0.33008   0.00000  Uiso   1.00
C9     C     0.36872   0.61403   0.32297   0.00000  Uiso   1.00
N10    N     0.34869   0.23145   0.24408   0.00000  Uiso   1.00
C11    C     0.26335   0.15633   0.36879   0.00000  Uiso   1.00
C12    C     0.30069   0.16371   0.32434   0.00000  Uiso   1.00
C13    C     0.32230   0.11410   0.30195   0.00000  Uiso   1.00
C14    C     0.30655   0.06000   0.30764   0.00000  Uiso   1.00
C15    C     0.26804   0.05309   0.33465   0.00000  Uiso   1.00
C16    C     0.24741   0.10264   0.37438   0.00000  Uiso   1.00
C17    C     0.31525   0.22134   0.29786   0.00000  Uiso   1.00
H18    H     0.46701   0.64340   0.30710   0.00000  Uiso   1.00
H19    H     0.43397   0.64776  -0.00354   0.00000  Uiso   1.00
H20    H     0.40394   0.74077   0.02342   0.00000  Uiso   1.00
H21    H     0.32701   0.67017   0.42481   0.00000  Uiso   1.00
H22    H     0.35937   0.57946   0.41357   0.00000  Uiso   1.00
H23    H     0.24616   0.19322   0.39751   0.00000  Uiso   1.00
H24    H     0.35163   0.11846   0.27634   0.00000  Uiso   1.00
H25    H     0.21853   0.09968   0.41029   0.00000  Uiso   1.00
H26    H     0.20163   0.96277   0.21207   0.00000  Uiso   1.00
H27    H     0.29490   0.25603   0.32048   0.00000  Uiso   1.00
C28    C     0.48126   0.10381   0.77609   0.00000  Uiso   1.00
C29    C     0.46049   0.05273   0.74095   0.00000  Uiso   1.00
C30    C     0.42156   0.05242   0.71648   0.00000  Uiso   1.00
C31    C     0.40000   0.10654   0.70824   0.00000  Uiso   1.00
C32    C     0.41108   0.15271   0.59400   0.00000  Uiso   1.00
C33    C     0.39376   0.20526   0.60654   0.00000  Uiso   1.00
C34    C     0.36304   0.21306   0.72529   0.00000  Uiso   1.00
C35    C     0.35030   0.16585   0.83008   0.00000  Uiso   1.00
C36    C     0.36872   0.11403   0.82297   0.00000  Uiso   1.00
N37    N     0.34869   0.73145   0.74408   0.00000  Uiso   1.00
C38    C     0.26335   0.65633   0.86879   0.00000  Uiso   1.00
C39    C     0.30069   0.66371   0.82434   0.00000  Uiso   1.00
C40    C     0.32230   0.61410   0.80195   0.00000  Uiso   1.00
C41    C     0.30655   0.56000   0.80764   0.00000  Uiso   1.00
C42    C     0.26804   0.55309   0.83465   0.00000  Uiso   1.00
C43    C     0.24741   0.60264   0.87438   0.00000  Uiso   1.00
C44    C     0.31525   0.72134   0.79786   0.00000  Uiso   1.00
H45    H     0.46701   0.14340   0.80710   0.00000  Uiso   1.00
H46    H     0.43397   0.14776   0.49646   0.00000  Uiso   1.00
H47    H     0.40394   0.24077   0.52342   0.00000  Uiso   1.00
H48    H     0.32701   0.17017   0.92481   0.00000  Uiso   1.00
H49    H     0.35937   0.07946   0.91357   0.00000  Uiso   1.00
H50    H     0.24616   0.69322   0.89751   0.00000  Uiso   1.00
H51    H     0.35163   0.61846   0.77634   0.00000  Uiso   1.00
H52    H     0.21853   0.59968   0.91029   0.00000  Uiso   1.00
H53    H     0.20163   0.46277   0.71207   0.00000  Uiso   1.00
H54    H     0.29490   0.75603   0.82048   0.00000  Uiso   1.00
C55    C    -0.01874   0.60381   0.77609   0.00000  Uiso   1.00
C56    C    -0.03951   0.55273   0.74095   0.00000  Uiso   1.00
C57    C    -0.07844   0.55242   0.71648   0.00000  Uiso   1.00
C58    C    -0.10000   0.60654   0.70824   0.00000  Uiso   1.00
C59    C    -0.08892   0.65271   0.59400   0.00000  Uiso   1.00
C60    C    -0.10624   0.70526   0.60654   0.00000  Uiso   1.00
C61    C    -0.13696   0.71306   0.72529   0.00000  Uiso   1.00
C62    C    -0.14970   0.66585   0.83008   0.00000  Uiso   1.00
C63    C    -0.13128   0.61403   0.82297   0.00000  Uiso   1.00
N64    N    -0.15131   0.23145   0.74408   0.00000  Uiso   1.00
C65    C    -0.23665   0.15633   0.86879   0.00000  Uiso   1.00
C66    C    -0.19931   0.16371   0.82434   0.00000  Uiso   1.00
C67    C    -0.17770   0.11410   0.80195   0.00000  Uiso   1.00
C68    C    -0.19345   0.06000   0.80764   0.00000  Uiso   1.00
C69    C    -0.23196   0.05309   0.83465   0.00000  Uiso   1.00
C70    C    -0.25259   0.10264   0.87438   0.00000  Uiso   1.00
C71    C    -0.18475   0.22134   0.79786   0.00000  Uiso   1.00
H72    H    -0.03299   0.64340   0.80710   0.00000  Uiso   1.00
H73    H    -0.06603   0.64776   0.49646   0.00000  Uiso   1.00
H74    H    -0.09606   0.74077   0.52342   0.00000  Uiso   1.00
H75    H    -0.17299   0.67017   0.92481   0.00000  Uiso   1.00
H76    H    -0.14063   0.57946   0.91357   0.00000  Uiso   1.00
H77    H    -0.25384   0.19322   0.89751   0.00000  Uiso   1.00
H78    H    -0.14837   0.11846   0.77634   0.00000  Uiso   1.00
H79    H    -0.28147   0.09968   0.91029   0.00000  Uiso   1.00
H80    H    -0.29837   0.96277   0.71207   0.00000  Uiso   1.00
H81    H    -0.20510   0.25603   0.82048   0.00000  Uiso   1.00
C82    C    -0.01874   0.10381   0.27609   0.00000  Uiso   1.00
C83    C    -0.03951   0.05273   0.24095   0.00000  Uiso   1.00
C84    C    -0.07844   0.05242   0.21648   0.00000  Uiso   1.00
C85    C    -0.10000   0.10654   0.20824   0.00000  Uiso   1.00
C86    C    -0.08892   0.15271   0.09400   0.00000  Uiso   1.00
C87    C    -0.10624   0.20526   0.10654   0.00000  Uiso   1.00
C88    C    -0.13696   0.21306   0.22529   0.00000  Uiso   1.00
C89    C    -0.14970   0.16585   0.33008   0.00000  Uiso   1.00
C90    C    -0.13128   0.11403   0.32297   0.00000  Uiso   1.00
N91    N    -0.15131   0.73145   0.24408   0.00000  Uiso   1.00
C92    C    -0.23665   0.65633   0.36879   0.00000  Uiso   1.00
C93    C    -0.19931   0.66371   0.32434   0.00000  Uiso   1.00
C94    C    -0.17770   0.61410   0.30195   0.00000  Uiso   1.00
C95    C    -0.19345   0.56000   0.30764   0.00000  Uiso   1.00
C96    C    -0.23196   0.55309   0.33465   0.00000  Uiso   1.00
C97    C    -0.25259   0.60264   0.37438   0.00000  Uiso   1.00
C98    C    -0.18475   0.72134   0.29786   0.00000  Uiso   1.00
H99    H    -0.03299   0.14340   0.30710   0.00000  Uiso   1.00
H100   H    -0.06603   0.14776  -0.00354   0.00000  Uiso   1.00
H101   H    -0.09606   0.24077   0.02342   0.00000  Uiso   1.00
H102   H    -0.17299   0.17017   0.42481   0.00000  Uiso   1.00
H103   H    -0.14063   0.07946   0.41357   0.00000  Uiso   1.00
H104   H    -0.25384   0.69322   0.39751   0.00000  Uiso   1.00
H105   H    -0.14837   0.61846   0.27634   0.00000  Uiso   1.00
H106   H    -0.28147   0.59968   0.41029   0.00000  Uiso   1.00
H107   H    -0.29837   0.46277   0.21207   0.00000  Uiso   1.00
H108   H    -0.20510   0.75603   0.32048   0.00000  Uiso   1.00
C109   C     0.51874   0.39619   0.27609   0.00000  Uiso   1.00
C110   C     0.53951   0.44727   0.24095   0.00000  Uiso   1.00
C111   C     0.57844   0.44758   0.21648   0.00000  Uiso   1.00
C112   C     0.60000   0.39346   0.20824   0.00000  Uiso   1.00
C113   C     0.58892   0.34729   0.09400   0.00000  Uiso   1.00
C114   C     0.60624   0.29474   0.10654   0.00000  Uiso   1.00
C115   C     0.63696   0.28694   0.22529   0.00000  Uiso   1.00
C116   C     0.64970   0.33415   0.33008   0.00000  Uiso   1.00
C117   C     0.63128   0.38597   0.32297   0.00000  Uiso   1.00
N118   N     0.65131   0.76855   0.24408   0.00000  Uiso   1.00
C119   C     0.73665   0.84367   0.36879   0.00000  Uiso   1.00
C120   C     0.69931   0.83629   0.32434   0.00000  Uiso   1.00
C121   C     0.67770   0.88590   0.30195   0.00000  Uiso   1.00
C122   C     0.69345   0.94000   0.30764   0.00000  Uiso   1.00
C123   C     0.73196   0.94691   0.33465   0.00000  Uiso   1.00
C124   C     0.75259   0.89736   0.37438   0.00000  Uiso   1.00
C125   C     0.68475   0.77866   0.29786   0.00000  Uiso   1.00
H126   H     0.53299   0.35660   0.30710   0.00000  Uiso   1.00
H127   H     0.56603   0.35224  -0.00354   0.00000  Uiso   1.00
H128   H     0.59606   0.25923   0.02342   0.00000  Uiso   1.00
H129   H     0.67299   0.32983   0.42481   0.00000  Uiso   1.00
H130   H     0.64063   0.42054   0.41357   0.00000  Uiso   1.00
H131   H     0.75384   0.80678   0.39751   0.00000  Uiso   1.00
H132   H     0.64837   0.88154   0.27634   0.00000  Uiso   1.00
H133   H     0.78147   0.90032   0.41029   0.00000  Uiso   1.00
H134   H     0.79837   0.03723   0.21207   0.00000  Uiso   1.00
H135   H     0.70510   0.74397   0.32048   0.00000  Uiso   1.00
C136   C     0.51874   0.89619   0.77609   0.00000  Uiso   1.00
C137   C     0.53951   0.94727   0.74095   0.00000  Uiso   1.00
C138   C     0.57844   0.94758   0.71648   0.00000  Uiso   1.00
C139   C     0.60000   0.89346   0.70824   0.00000  Uiso   1.00
C140   C     0.58892   0.84729   0.59400   0.00000  Uiso   1.00
C141   C     0.60624   0.79474   0.60654   0.00000  Uiso   1.00
C142   C     0.63696   0.78694   0.72529   0.00000  Uiso   1.00
C143   C     0.64970   0.83415   0.83008   0.00000  Uiso   1.00
C144   C     0.63128   0.88597   0.82297   0.00000  Uiso   1.00
N145   N     0.65131   0.26855   0.74408   0.00000  Uiso   1.00
C146   C     0.73665   0.34367   0.86879   0.00000  Uiso   1.00
C147   C     0.69931   0.33629   0.82434   0.00000  Uiso   1.00
C148   C     0.67770   0.38590   0.80195   0.00000  Uiso   1.00
C149   C     0.69345   0.44000   0.80764   0.00000  Uiso   1.00
C150   C     0.73196   0.44691   0.83465   0.00000  Uiso   1.00
C151   C     0.75259   0.39736   0.87438   0.00000  Uiso   1.00
C152   C     0.68475   0.27866   0.79786   0.00000  Uiso   1.00
H153   H     0.53299   0.85660   0.80710   0.00000  Uiso   1.00
H154   H     0.56603   0.85224   0.49646   0.00000  Uiso   1.00
H155   H     0.59606   0.75923   0.52342   0.00000  Uiso   1.00
H156   H     0.67299   0.82983   0.92481   0.00000  Uiso   1.00
H157   H     0.64063   0.92054   0.91357   0.00000  Uiso   1.00
H158   H     0.75384   0.30678   0.89751   0.00000  Uiso   1.00
H159   H     0.64837   0.38154   0.77634   0.00000  Uiso   1.00
H160   H     0.78147   0.40032   0.91029   0.00000  Uiso   1.00
H161   H     0.79837   0.53723   0.71207   0.00000  Uiso   1.00
H162   H     0.70510   0.24397   0.82048   0.00000  Uiso   1.00
C163   C     0.01874   0.39619   0.77609   0.00000  Uiso   1.00
C164   C     0.03951   0.44727   0.74095   0.00000  Uiso   1.00
C165   C     0.07844   0.44758   0.71648   0.00000  Uiso   1.00
C166   C     0.10000   0.39346   0.70824   0.00000  Uiso   1.00
C167   C     0.08892   0.34729   0.59400   0.00000  Uiso   1.00
C168   C     0.10624   0.29474   0.60654   0.00000  Uiso   1.00
C169   C     0.13696   0.28694   0.72529   0.00000  Uiso   1.00
C170   C     0.14970   0.33415   0.83008   0.00000  Uiso   1.00
C171   C     0.13128   0.38597   0.82297   0.00000  Uiso   1.00
N172   N     0.15131   0.76855   0.74408   0.00000  Uiso   1.00
C173   C     0.23665   0.84367   0.86879   0.00000  Uiso   1.00
C174   C     0.19931   0.83629   0.82434   0.00000  Uiso   1.00
C175   C     0.17770   0.88590   0.80195   0.00000  Uiso   1.00
C176   C     0.19345   0.94000   0.80764   0.00000  Uiso   1.00
C177   C     0.23196   0.94691   0.83465   0.00000  Uiso   1.00
C178   C     0.25259   0.89736   0.87438   0.00000  Uiso   1.00
C179   C     0.18475   0.77866   0.79786   0.00000  Uiso   1.00
H180   H     0.03299   0.35660   0.80710   0.00000  Uiso   1.00
H181   H     0.06603   0.35224   0.49646   0.00000  Uiso   1.00
H182   H     0.09606   0.25923   0.52342   0.00000  Uiso   1.00
H183   H     0.17299   0.32983   0.92481   0.00000  Uiso   1.00
H184   H     0.14063   0.42054   0.91357   0.00000  Uiso   1.00
H185   H     0.25384   0.80678   0.89751   0.00000  Uiso   1.00
H186   H     0.14837   0.88154   0.77634   0.00000  Uiso   1.00
H187   H     0.28147   0.90032   0.91029   0.00000  Uiso   1.00
H188   H     0.29837   0.03723   0.71207   0.00000  Uiso   1.00
H189   H     0.20510   0.74397   0.82048   0.00000  Uiso   1.00
C190   C     0.01874   0.89619   0.27609   0.00000  Uiso   1.00
C191   C     0.03951   0.94727   0.24095   0.00000  Uiso   1.00
C192   C     0.07844   0.94758   0.21648   0.00000  Uiso   1.00
C193   C     0.10000   0.89346   0.20824   0.00000  Uiso   1.00
C194   C     0.08892   0.84729   0.09400   0.00000  Uiso   1.00
C195   C     0.10624   0.79474   0.10654   0.00000  Uiso   1.00
C196   C     0.13696   0.78694   0.22529   0.00000  Uiso   1.00
C197   C     0.14970   0.83415   0.33008   0.00000  Uiso   1.00
C198   C     0.13128   0.88597   0.32297   0.00000  Uiso   1.00
N199   N     0.15131   0.26855   0.24408   0.00000  Uiso   1.00
C200   C     0.23665   0.34367   0.36879   0.00000  Uiso   1.00
C201   C     0.19931   0.33629   0.32434   0.00000  Uiso   1.00
C202   C     0.17770   0.38590   0.30195   0.00000  Uiso   1.00
C203   C     0.19345   0.44000   0.30764   0.00000  Uiso   1.00
C204   C     0.23196   0.44691   0.33465   0.00000  Uiso   1.00
C205   C     0.25259   0.39736   0.37438   0.00000  Uiso   1.00
C206   C     0.18475   0.27866   0.29786   0.00000  Uiso   1.00
H207   H     0.03299   0.85660   0.30710   0.00000  Uiso   1.00
H208   H     0.06603   0.85224  -0.00354   0.00000  Uiso   1.00
H209   H     0.09606   0.75923   0.02342   0.00000  Uiso   1.00
H210   H     0.17299   0.82983   0.42481   0.00000  Uiso   1.00
H211   H     0.14063   0.92054   0.41357   0.00000  Uiso   1.00
H212   H     0.25384   0.30678   0.39751   0.00000  Uiso   1.00
H213   H     0.14837   0.38154   0.27634   0.00000  Uiso   1.00
H214   H     0.28147   0.40032   0.41029   0.00000  Uiso   1.00
H215   H     0.29837   0.53723   0.21207   0.00000  Uiso   1.00
H216   H     0.20510   0.24397   0.32048   0.00000  Uiso   1.00
C217   C     0.48126   0.39619   0.27609   0.00000  Uiso   1.00
C218   C     0.46049   0.44727   0.24095   0.00000  Uiso   1.00
C219   C     0.42156   0.44758   0.21648   0.00000  Uiso   1.00
C220   C     0.40000   0.39346   0.20824   0.00000  Uiso   1.00
C221   C     0.41108   0.34729   0.09400   0.00000  Uiso   1.00
C222   C     0.39376   0.29474   0.10654   0.00000  Uiso   1.00
C223   C     0.36304   0.28694   0.22529   0.00000  Uiso   1.00
C224   C     0.35030   0.33415   0.33008   0.00000  Uiso   1.00
C225   C     0.36872   0.38597   0.32297   0.00000  Uiso   1.00
N226   N     0.34869   0.76855   0.24408   0.00000  Uiso   1.00
C227   C     0.26335   0.84367   0.36879   0.00000  Uiso   1.00
C228   C     0.30069   0.83629   0.32434   0.00000  Uiso   1.00
C229   C     0.32230   0.88590   0.30195   0.00000  Uiso   1.00
C230   C     0.30655   0.94000   0.30764   0.00000  Uiso   1.00
C231   C     0.26804   0.94691   0.33465   0.00000  Uiso   1.00
C232   C     0.24741   0.89736   0.37438   0.00000  Uiso   1.00
C233   C     0.31525   0.77866   0.29786   0.00000  Uiso   1.00
H234   H     0.46701   0.35660   0.30710   0.00000  Uiso   1.00
H235   H     0.43397   0.35224  -0.00354   0.00000  Uiso   1.00
H236   H     0.40394   0.25923   0.02342   0.00000  Uiso   1.00
H237   H     0.32701   0.32983   0.42481   0.00000  Uiso   1.00
H238   H     0.35937   0.42054   0.41357   0.00000  Uiso   1.00
H239   H     0.24616   0.80678   0.39751   0.00000  Uiso   1.00
H240   H     0.35163   0.88154   0.27634   0.00000  Uiso   1.00
H241   H     0.21853   0.90032   0.41029   0.00000  Uiso   1.00
H242   H     0.20163   0.03723   0.21207   0.00000  Uiso   1.00
H243   H     0.29490   0.74397   0.32048   0.00000  Uiso   1.00
C244   C     0.48126   0.89619   0.77609   0.00000  Uiso   1.00
C245   C     0.46049   0.94727   0.74095   0.00000  Uiso   1.00
C246   C     0.42156   0.94758   0.71648   0.00000  Uiso   1.00
C247   C     0.40000   0.89346   0.70824   0.00000  Uiso   1.00
C248   C     0.41108   0.84729   0.59400   0.00000  Uiso   1.00
C249   C     0.39376   0.79474   0.60654   0.00000  Uiso   1.00
C250   C     0.36304   0.78694   0.72529   0.00000  Uiso   1.00
C251   C     0.35030   0.83415   0.83008   0.00000  Uiso   1.00
C252   C     0.36872   0.88597   0.82297   0.00000  Uiso   1.00
N253   N     0.34869   0.26855   0.74408   0.00000  Uiso   1.00
C254   C     0.26335   0.34367   0.86879   0.00000  Uiso   1.00
C255   C     0.30069   0.33629   0.82434   0.00000  Uiso   1.00
C256   C     0.32230   0.38590   0.80195   0.00000  Uiso   1.00
C257   C     0.30655   0.44000   0.80764   0.00000  Uiso   1.00
C258   C     0.26804   0.44691   0.83465   0.00000  Uiso   1.00
C259   C     0.24741   0.39736   0.87438   0.00000  Uiso   1.00
C260   C     0.31525   0.27866   0.79786   0.00000  Uiso   1.00
H261   H     0.46701   0.85660   0.80710   0.00000  Uiso   1.00
H262   H     0.43397   0.85224   0.49646   0.00000  Uiso   1.00
H263   H     0.40394   0.75923   0.52342   0.00000  Uiso   1.00
H264   H     0.32701   0.82983   0.92481   0.00000  Uiso   1.00
H265   H     0.35937   0.92054   0.91357   0.00000  Uiso   1.00
H266   H     0.24616   0.30678   0.89751   0.00000  Uiso   1.00
H267   H     0.35163   0.38154   0.77634   0.00000  Uiso   1.00
H268   H     0.21853   0.40032   0.91029   0.00000  Uiso   1.00
H269   H     0.20163   0.53723   0.71207   0.00000  Uiso   1.00
H270   H     0.29490   0.24397   0.82048   0.00000  Uiso   1.00
C271   C    -0.01874   0.39619   0.77609   0.00000  Uiso   1.00
C272   C    -0.03951   0.44727   0.74095   0.00000  Uiso   1.00
C273   C    -0.07844   0.44758   0.71648   0.00000  Uiso   1.00
C274   C    -0.10000   0.39346   0.70824   0.00000  Uiso   1.00
C275   C    -0.08892   0.34729   0.59400   0.00000  Uiso   1.00
C276   C    -0.10624   0.29474   0.60654   0.00000  Uiso   1.00
C277   C    -0.13696   0.28694   0.72529   0.00000  Uiso   1.00
C278   C    -0.14970   0.33415   0.83008   0.00000  Uiso   1.00
C279   C    -0.13128   0.38597   0.82297   0.00000  Uiso   1.00
N280   N    -0.15131   0.76855   0.74408   0.00000  Uiso   1.00
C281   C    -0.23665   0.84367   0.86879   0.00000  Uiso   1.00
C282   C    -0.19931   0.83629   0.82434   0.00000  Uiso   1.00
C283   C    -0.17770   0.88590   0.80195   0.00000  Uiso   1.00
C284   C    -0.19345   0.94000   0.80764   0.00000  Uiso   1.00
C285   C    -0.23196   0.94691   0.83465   0.00000  Uiso   1.00
C286   C    -0.25259   0.89736   0.87438   0.00000  Uiso   1.00
C287   C    -0.18475   0.77866   0.79786   0.00000  Uiso   1.00
H288   H    -0.03299   0.35660   0.80710   0.00000  Uiso   1.00
H289   H    -0.06603   0.35224   0.49646   0.00000  Uiso   1.00
H290   H    -0.09606   0.25923   0.52342   0.00000  Uiso   1.00
H291   H    -0.17299   0.32983   0.92481   0.00000  Uiso   1.00
H292   H    -0.14063   0.42054   0.91357   0.00000  Uiso   1.00
H293   H    -0.25384   0.80678   0.89751   0.00000  Uiso   1.00
H294   H    -0.14837   0.88154   0.77634   0.00000  Uiso   1.00
H295   H    -0.28147   0.90032   0.91029   0.00000  Uiso   1.00
H296   H    -0.29837   0.03723   0.71207   0.00000  Uiso   1.00
H297   H    -0.20510   0.74397   0.82048   0.00000  Uiso   1.00
C298   C    -0.01874   0.89619   0.27609   0.00000  Uiso   1.00
C299   C    -0.03951   0.94727   0.24095   0.00000  Uiso   1.00
C300   C    -0.07844   0.94758   0.21648   0.00000  Uiso   1.00
C301   C    -0.10000   0.89346   0.20824   0.00000  Uiso   1.00
C302   C    -0.08892   0.84729   0.09400   0.00000  Uiso   1.00
C303   C    -0.10624   0.79474   0.10654   0.00000  Uiso   1.00
C304   C    -0.13696   0.78694   0.22529   0.00000  Uiso   1.00
C305   C    -0.14970   0.83415   0.33008   0.00000  Uiso   1.00
C306   C    -0.13128   0.88597   0.32297   0.00000  Uiso   1.00
N307   N    -0.15131   0.26855   0.24408   0.00000  Uiso   1.00
C308   C    -0.23665   0.34367   0.36879   0.00000  Uiso   1.00
C309   C    -0.19931   0.33629   0.32434   0.00000  Uiso   1.00
C310   C    -0.17770   0.38590   0.30195   0.00000  Uiso   1.00
C311   C    -0.19345   0.44000   0.30764   0.00000  Uiso   1.00
C312   C    -0.23196   0.44691   0.33465   0.00000  Uiso   1.00
C313   C    -0.25259   0.39736   0.37438   0.00000  Uiso   1.00
C314   C    -0.18475   0.27866   0.29786   0.00000  Uiso   1.00
H315   H    -0.03299   0.85660   0.30710   0.00000  Uiso   1.00
H316   H    -0.06603   0.85224  -0.00354   0.00000  Uiso   1.00
H317   H    -0.09606   0.75923   0.02342   0.00000  Uiso   1.00
H318   H    -0.17299   0.82983   0.42481   0.00000  Uiso   1.00
H319   H    -0.14063   0.92054   0.41357   0.00000  Uiso   1.00
H320   H    -0.25384   0.30678   0.39751   0.00000  Uiso   1.00
H321   H    -0.14837   0.38154   0.27634   0.00000  Uiso   1.00
H322   H    -0.28147   0.40032   0.41029   0.00000  Uiso   1.00
H323   H    -0.29837   0.53723   0.21207   0.00000  Uiso   1.00
H324   H    -0.20510   0.24397   0.32048   0.00000  Uiso   1.00
C325   C     0.51874   0.60381   0.27609   0.00000  Uiso   1.00
C326   C     0.53951   0.55273   0.24095   0.00000  Uiso   1.00
C327   C     0.57844   0.55242   0.21648   0.00000  Uiso   1.00
C328   C     0.60000   0.60654   0.20824   0.00000  Uiso   1.00
C329   C     0.58892   0.65271   0.09400   0.00000  Uiso   1.00
C330   C     0.60624   0.70526   0.10654   0.00000  Uiso   1.00
C331   C     0.63696   0.71306   0.22529   0.00000  Uiso   1.00
C332   C     0.64970   0.66585   0.33008   0.00000  Uiso   1.00
C333   C     0.63128   0.61403   0.32297   0.00000  Uiso   1.00
N334   N     0.65131   0.23145   0.24408   0.00000  Uiso   1.00
C335   C     0.73665   0.15633   0.36879   0.00000  Uiso   1.00
C336   C     0.69931   0.16371   0.32434   0.00000  Uiso   1.00
C337   C     0.67770   0.11410   0.30195   0.00000  Uiso   1.00
C338   C     0.69345   0.06000   0.30764   0.00000  Uiso   1.00
C339   C     0.73196   0.05309   0.33465   0.00000  Uiso   1.00
C340   C     0.75259   0.10264   0.37438   0.00000  Uiso   1.00
C341   C     0.68475   0.22134   0.29786   0.00000  Uiso   1.00
H342   H     0.53299   0.64340   0.30710   0.00000  Uiso   1.00
H343   H     0.56603   0.64776  -0.00354   0.00000  Uiso   1.00
H344   H     0.59606   0.74077   0.02342   0.00000  Uiso   1.00
H345   H     0.67299   0.67017   0.42481   0.00000  Uiso   1.00
H346   H     0.64063   0.57946   0.41357   0.00000  Uiso   1.00
H347   H     0.75384   0.19322   0.39751   0.00000  Uiso   1.00
H348   H     0.64837   0.11846   0.27634   0.00000  Uiso   1.00
H349   H     0.78147   0.09968   0.41029   0.00000  Uiso   1.00
H350   H     0.79837   0.96277   0.21207   0.00000  Uiso   1.00
H351   H     0.70510   0.25603   0.32048   0.00000  Uiso   1.00
C352   C     0.51874   0.10381   0.77609   0.00000  Uiso   1.00
C353   C     0.53951   0.05273   0.74095   0.00000  Uiso   1.00
C354   C     0.57844   0.05242   0.71648   0.00000  Uiso   1.00
C355   C     0.60000   0.10654   0.70824   0.00000  Uiso   1.00
C356   C     0.58892   0.15271   0.59400   0.00000  Uiso   1.00
C357   C     0.60624   0.20526   0.60654   0.00000  Uiso   1.00
C358   C     0.63696   0.21306   0.72529   0.00000  Uiso   1.00
C359   C     0.64970   0.16585   0.83008   0.00000  Uiso   1.00
C360   C     0.63128   0.11403   0.82297   0.00000  Uiso   1.00
N361   N     0.65131   0.73145   0.74408   0.00000  Uiso   1.00
C362   C     0.73665   0.65633   0.86879   0.00000  Uiso   1.00
C363   C     0.69931   0.66371   0.82434   0.00000  Uiso   1.00
C364   C     0.67770   0.61410   0.80195   0.00000  Uiso   1.00
C365   C     0.69345   0.56000   0.80764   0.00000  Uiso   1.00
C366   C     0.73196   0.55309   0.83465   0.00000  Uiso   1.00
C367   C     0.75259   0.60264   0.87438   0.00000  Uiso   1.00
C368   C     0.68475   0.72134   0.79786   0.00000  Uiso   1.00
H369   H     0.53299   0.14340   0.80710   0.00000  Uiso   1.00
H370   H     0.56603   0.14776   0.49646   0.00000  Uiso   1.00
H371   H     0.59606   0.24077   0.52342   0.00000  Uiso   1.00
H372   H     0.67299   0.17017   0.92481   0.00000  Uiso   1.00
H373   H     0.64063   0.07946   0.91357   0.00000  Uiso   1.00
H374   H     0.75384   0.69322   0.89751   0.00000  Uiso   1.00
H375   H     0.64837   0.61846   0.77634   0.00000  Uiso   1.00
H376   H     0.78147   0.59968   0.91029   0.00000  Uiso   1.00
H377   H     0.79837   0.46277   0.71207   0.00000  Uiso   1.00
H378   H     0.70510   0.75603   0.82048   0.00000  Uiso   1.00
C379   C     0.01874   0.60381   0.77609   0.00000  Uiso   1.00
C380   C     0.03951   0.55273   0.74095   0.00000  Uiso   1.00
C381   C     0.07844   0.55242   0.71648   0.00000  Uiso   1.00
C382   C     0.10000   0.60654   0.70824   0.00000  Uiso   1.00
C383   C     0.08892   0.65271   0.59400   0.00000  Uiso   1.00
C384   C     0.10624   0.70526   0.60654   0.00000  Uiso   1.00
C385   C     0.13696   0.71306   0.72529   0.00000  Uiso   1.00
C386   C     0.14970   0.66585   0.83008   0.00000  Uiso   1.00
C387   C     0.13128   0.61403   0.82297   0.00000  Uiso   1.00
N388   N     0.15131   0.23145   0.74408   0.00000  Uiso   1.00
C389   C     0.23665   0.15633   0.86879   0.00000  Uiso   1.00
C390   C     0.19931   0.16371   0.82434   0.00000  Uiso   1.00
C391   C     0.17770   0.11410   0.80195   0.00000  Uiso   1.00
C392   C     0.19345   0.06000   0.80764   0.00000  Uiso   1.00
C393   C     0.23196   0.05309   0.83465   0.00000  Uiso   1.00
C394   C     0.25259   0.10264   0.87438   0.00000  Uiso   1.00
C395   C     0.18475   0.22134   0.79786   0.00000  Uiso   1.00
H396   H     0.03299   0.64340   0.80710   0.00000  Uiso   1.00
H397   H     0.06603   0.64776   0.49646   0.00000  Uiso   1.00
H398   H     0.09606   0.74077   0.52342   0.00000  Uiso   1.00
H399   H     0.17299   0.67017   0.92481   0.00000  Uiso   1.00
H400   H     0.14063   0.57946   0.91357   0.00000  Uiso   1.00
H401   H     0.25384   0.19322   0.89751   0.00000  Uiso   1.00
H402   H     0.14837   0.11846   0.77634   0.00000  Uiso   1.00
H403   H     0.28147   0.09968   0.91029   0.00000  Uiso   1.00
H404   H     0.29837   0.96277   0.71207   0.00000  Uiso   1.00
H405   H     0.20510   0.25603   0.82048   0.00000  Uiso   1.00
C406   C     0.01874   0.10381   0.27609   0.00000  Uiso   1.00
C407   C     0.03951   0.05273   0.24095   0.00000  Uiso   1.00
C408   C     0.07844   0.05242   0.21648   0.00000  Uiso   1.00
C409   C     0.10000   0.10654   0.20824   0.00000  Uiso   1.00
C410   C     0.08892   0.15271   0.09400   0.00000  Uiso   1.00
C411   C     0.10624   0.20526   0.10654   0.00000  Uiso   1.00
C412   C     0.13696   0.21306   0.22529   0.00000  Uiso   1.00
C413   C     0.14970   0.16585   0.33008   0.00000  Uiso   1.00
C414   C     0.13128   0.11403   0.32297   0.00000  Uiso   1.00
N415   N     0.15131   0.73145   0.24408   0.00000  Uiso   1.00
C416   C     0.23665   0.65633   0.36879   0.00000  Uiso   1.00
C417   C     0.19931   0.66371   0.32434   0.00000  Uiso   1.00
C418   C     0.17770   0.61410   0.30195   0.00000  Uiso   1.00
C419   C     0.19345   0.56000   0.30764   0.00000  Uiso   1.00
C420   C     0.23196   0.55309   0.33465   0.00000  Uiso   1.00
C421   C     0.25259   0.60264   0.37438   0.00000  Uiso   1.00
C422   C     0.18475   0.72134   0.29786   0.00000  Uiso   1.00
H423   H     0.03299   0.14340   0.30710   0.00000  Uiso   1.00
H424   H     0.06603   0.14776  -0.00354   0.00000  Uiso   1.00
H425   H     0.09606   0.24077   0.02342   0.00000  Uiso   1.00
H426   H     0.17299   0.17017   0.42481   0.00000  Uiso   1.00
H427   H     0.14063   0.07946   0.41357   0.00000  Uiso   1.00
H428   H     0.25384   0.69322   0.39751   0.00000  Uiso   1.00
H429   H     0.14837   0.61846   0.27634   0.00000  Uiso   1.00
H430   H     0.28147   0.59968   0.41029   0.00000  Uiso   1.00
H431   H     0.29837   0.46277   0.21207   0.00000  Uiso   1.00
H432   H     0.20510   0.75603   0.32048   0.00000  Uiso   1.00
C433   C     0.48021   0.50000   0.24153   0.00000  Uiso   1.00
C434   C     0.40329   0.50000   0.20220   0.00000  Uiso   1.00
H435   H     0.37376   0.50000   0.17674   0.00000  Uiso   1.00
C436   C     0.48021   0.00000   0.74153   0.00000  Uiso   1.00
C437   C     0.40329   0.00000   0.70220   0.00000  Uiso   1.00
H438   H     0.37376   0.00000   0.67674   0.00000  Uiso   1.00
C439   C    -0.01979   0.50000   0.74153   0.00000  Uiso   1.00
C440   C    -0.09671   0.50000   0.70220   0.00000  Uiso   1.00
H441   H    -0.12624   0.50000   0.67674   0.00000  Uiso   1.00
C442   C    -0.01979   0.00000   0.24153   0.00000  Uiso   1.00
C443   C    -0.09671   0.00000   0.20220   0.00000  Uiso   1.00
H444   H    -0.12624   0.00000   0.17674   0.00000  Uiso   1.00
C445   C     0.51979   0.50000   0.24153   0.00000  Uiso   1.00
C446   C     0.59671   0.50000   0.20220   0.00000  Uiso   1.00
H447   H     0.62624   0.50000   0.17674   0.00000  Uiso   1.00
C448   C     0.51979   0.00000   0.74153   0.00000  Uiso   1.00
C449   C     0.59671   0.00000   0.70220   0.00000  Uiso   1.00
H450   H     0.62624   0.00000   0.67674   0.00000  Uiso   1.00
C451   C     0.01979   0.50000   0.74153   0.00000  Uiso   1.00
C452   C     0.09671   0.50000   0.70220   0.00000  Uiso   1.00
H453   H     0.12624   0.50000   0.67674   0.00000  Uiso   1.00
C454   C     0.01979   0.00000   0.24153   0.00000  Uiso   1.00
C455   C     0.09671   0.00000   0.20220   0.00000  Uiso   1.00
H456   H     0.12624   0.00000   0.17674   0.00000  Uiso   1.00
N457   N     0.25004   0.00000   0.32204   0.00000  Uiso   1.00
C458   C     0.21008   0.00000   0.29304   0.00000  Uiso   1.00
S459   S     0.33650   0.00000   0.27396   0.00000  Uiso   1.00
H460   H     0.19438   0.00000   0.42571   0.00000  Uiso   1.00
N461   N     0.25004   0.50000   0.82204   0.00000  Uiso   1.00
C462   C     0.21008   0.50000   0.79304   0.00000  Uiso   1.00
S463   S     0.33650   0.50000   0.77396   0.00000  Uiso   1.00
H464   H     0.19438   0.50000   0.92571   0.00000  Uiso   1.00
N465   N    -0.24996   0.00000   0.82204   0.00000  Uiso   1.00
C466   C    -0.28992   0.00000   0.79304   0.00000  Uiso   1.00
S467   S    -0.16350   0.00000   0.77396   0.00000  Uiso   1.00
H468   H    -0.30562   0.00000   0.92571   0.00000  Uiso   1.00
N469   N    -0.24996   0.50000   0.32204   0.00000  Uiso   1.00
C470   C    -0.28992   0.50000   0.29304   0.00000  Uiso   1.00
S471   S    -0.16350   0.50000   0.27396   0.00000  Uiso   1.00
H472   H    -0.30562   0.50000   0.42571   0.00000  Uiso   1.00
N473   N     0.74996   0.00000   0.32204   0.00000  Uiso   1.00
C474   C     0.78992   0.00000   0.29304   0.00000  Uiso   1.00
S475   S     0.66350   0.00000   0.27396   0.00000  Uiso   1.00
H476   H     0.80562   0.00000   0.42571   0.00000  Uiso   1.00
N477   N     0.74996   0.50000   0.82204   0.00000  Uiso   1.00
C478   C     0.78992   0.50000   0.79304   0.00000  Uiso   1.00
S479   S     0.66350   0.50000   0.77396   0.00000  Uiso   1.00
H480   H     0.80562   0.50000   0.92571   0.00000  Uiso   1.00
N481   N     0.24996   0.00000   0.82204   0.00000  Uiso   1.00
C482   C     0.28992   0.00000   0.79304   0.00000  Uiso   1.00
S483   S     0.16350   0.00000   0.77396   0.00000  Uiso   1.00
H484   H     0.30562   0.00000   0.92571   0.00000  Uiso   1.00
N485   N     0.24996   0.50000   0.32204   0.00000  Uiso   1.00
C486   C     0.28992   0.50000   0.29304   0.00000  Uiso   1.00
S487   S     0.16350   0.50000   0.27396   0.00000  Uiso   1.00
H488   H     0.30562   0.50000   0.42571   0.00000  Uiso   1.00
loop_
_geom_bond_atom_site_label_1
_geom_bond_atom_site_label_2
_geom_bond_distance
_geom_bond_site_symmetry_2
_ccdc_geom_bond_type
C1     C2      1.443   .     S
C1     H18     1.090   .     S
C1     C325    1.367   .     D
C2     C3      1.430   .     D
C2     C433    1.435   .     S
C3     C4      1.498   .     S
C3     C434    1.406   .     S
C4     C5      1.415   .     D
C4     C9      1.412   .     S
C5     C6      1.392   .     S
C5     H19     1.090   .     S
C6     C7      1.413   .     D
C6     H20     1.088   .     S
C7     C8      1.416   .     S
C7     N226    1.414   .     S
C8     C9      1.394   .     D
C8     H21     1.088   .     S
C9     H22     1.092   .     S
N10    C17     1.299   .     D
N10    C223    1.414   .     S
C11    C12     1.408   .     D
C11    C16     1.392   .     S
C11    H23     1.090   .     S
C12    C13     1.418   .     S
C12    C17     1.469   .     S
C13    C14     1.398   .     D
C13    H24     1.090   .     S
C14    C15     1.426   .     S
C14    S459    1.802   .     S
C15    C16     1.416   .     D
C15    N457    1.415   .     S
C16    H25     1.086   .     S
C17    H27     1.115   .     S
H26    C458    1.092   1_565 S
C28    C29     1.443   .     S
C28    H45     1.090   .     S
C28    C352    1.367   .     D
C29    C30     1.430   .     D
C29    C436    1.435   .     S
C30    C31     1.498   .     S
C30    C437    1.406   .     S
C31    C32     1.415   .     S
C31    C36     1.412   .     D
C32    C33     1.392   .     D
C32    H46     1.090   .     S
C33    C34     1.413   .     S
C33    H47     1.088   .     S
C34    C35     1.416   .     D
C34    N253    1.414   .     S
C35    C36     1.394   .     S
C35    H48     1.088   .     S
C36    H49     1.092   .     S
N37    C44     1.299   .     D
N37    C250    1.414   .     S
C38    C39     1.408   .     D
C38    C43     1.392   .     S
C38    H50     1.090   .     S
C39    C40     1.418   .     S
C39    C44     1.469   .     S
C40    C41     1.398   .     D
C40    H51     1.090   .     S
C41    C42     1.426   .     S
C41    S463    1.802   .     S
C42    C43     1.416   .     D
C42    N461    1.415   .     S
C43    H52     1.086   .     S
C44    H54     1.115   .     S
H53    C462    1.092   .     S
C55    C56     1.443   .     S
C55    H72     1.090   .     S
C55    C379    1.367   .     D
C56    C57     1.430   .     D
C56    C439    1.435   .     S
C57    C58     1.498   .     S
C57    C440    1.406   .     S
C58    C59     1.415   .     D
C58    C63     1.412   .     S
C59    C60     1.392   .     S
C59    H73     1.090   .     S
C60    C61     1.413   .     D
C60    H74     1.088   .     S
C61    C62     1.416   .     S
C61    N280    1.414   .     S
C62    C63     1.394   .     D
C62    H75     1.088   .     S
C63    H76     1.092   .     S
N64    C71     1.299   .     D
N64    C277    1.414   .     S
C65    C66     1.408   .     D
C65    C70     1.392   .     S
C65    H77     1.090   .     S
C66    C67     1.418   .     S
C66    C71     1.469   .     S
C67    C68     1.398   .     D
C67    H78     1.090   .     S
C68    C69     1.426   .     S
C68    S467    1.802   .     S
C69    C70     1.416   .     D
C69    N465    1.415   .     S
C70    H79     1.086   .     S
C71    H81     1.115   .     S
H80    C466    1.092   1_565 S
C82    C83     1.443   .     S
C82    H99     1.090   .     S
C82    C406    1.367   .     D
C83    C84     1.430   .     D
C83    C442    1.435   .     S
C84    C85     1.498   .     S
C84    C443    1.406   .     S
C85    C86     1.415   .     S
C85    C90     1.412   .     D
C86    C87     1.392   .     D
C86    H100    1.090   .     S
C87    C88     1.413   .     S
C87    H101    1.088   .     S
C88    C89     1.416   .     D
C88    N307    1.414   .     S
C89    C90     1.394   .     S
C89    H102    1.088   .     S
C90    H103    1.092   .     S
N91    C98     1.299   .     D
N91    C304    1.414   .     S
C92    C93     1.408   .     D
C92    C97     1.392   .     S
C92    H104    1.090   .     S
C93    C94     1.418   .     S
C93    C98     1.469   .     S
C94    C95     1.398   .     D
C94    H105    1.090   .     S
C95    C96     1.426   .     S
C95    S471    1.802   .     S
C96    C97     1.416   .     D
C96    N469    1.415   .     S
C97    H106    1.086   .     S
C98    H108    1.115   .     S
H107   C470    1.092   .     S
C109   C110    1.443   .     S
C109   H126    1.090   .     S
C109   C217    1.367   .     D
C110   C111    1.430   .     D
C110   C445    1.435   .     S
C111   C112    1.498   .     S
C111   C446    1.406   .     S
C112   C113    1.415   .     D
C112   C117    1.412   .     S
C113   C114    1.392   .     S
C113   H127    1.090   .     S
C114   C115    1.413   .     D
C114   H128    1.088   .     S
C115   C116    1.416   .     S
C115   N334    1.414   .     S
C116   C117    1.394   .     D
C116   H129    1.088   .     S
C117   H130    1.092   .     S
N118   C125    1.299   .     D
N118   C331    1.414   .     S
C119   C120    1.408   .     S
C119   C124    1.392   .     D
C119   H131    1.090   .     S
C120   C121    1.418   .     D
C120   C125    1.469   .     S
C121   C122    1.398   .     S
C121   H132    1.090   .     S
C122   C123    1.426   .     D
C122   S475    1.802   1_565 S
C123   C124    1.416   .     S
C123   N473    1.415   1_565 S
C124   H133    1.086   .     S
C125   H135    1.115   .     S
H134   C474    1.092   .     S
C136   C137    1.443   .     S
C136   H153    1.090   .     S
C136   C244    1.367   .     D
C137   C138    1.430   .     D
C137   C448    1.435   1_565 S
C138   C139    1.498   .     S
C138   C449    1.406   1_565 S
C139   C140    1.415   .     D
C139   C144    1.412   .     S
C140   C141    1.392   .     S
C140   H154    1.090   .     S
C141   C142    1.413   .     D
C141   H155    1.088   .     S
C142   C143    1.416   .     S
C142   N361    1.414   .     S
C143   C144    1.394   .     D
C143   H156    1.088   .     S
C144   H157    1.092   .     S
N145   C152    1.299   .     D
N145   C358    1.414   .     S
C146   C147    1.408   .     S
C146   C151    1.392   .     D
C146   H158    1.090   .     S
C147   C148    1.418   .     D
C147   C152    1.469   .     S
C148   C149    1.398   .     S
C148   H159    1.090   .     S
C149   C150    1.426   .     D
C149   S479    1.802   .     S
C150   C151    1.416   .     S
C150   N477    1.415   .     S
C151   H160    1.086   .     S
C152   H162    1.115   .     S
H161   C478    1.092   .     S
C163   C164    1.443   .     S
C163   H180    1.090   .     S
C163   C271    1.367   .     D
C164   C165    1.430   .     D
C164   C451    1.435   .     S
C165   C166    1.498   .     S
C165   C452    1.406   .     S
C166   C167    1.415   .     D
C166   C171    1.412   .     S
C167   C168    1.392   .     S
C167   H181    1.090   .     S
C168   C169    1.413   .     D
C168   H182    1.088   .     S
C169   C170    1.416   .     S
C169   N388    1.414   .     S
C170   C171    1.394   .     D
C170   H183    1.088   .     S
C171   H184    1.092   .     S
N172   C179    1.299   .     D
N172   C385    1.414   .     S
C173   C174    1.408   .     S
C173   C178    1.392   .     D
C173   H185    1.090   .     S
C174   C175    1.418   .     D
C174   C179    1.469   .     S
C175   C176    1.398   .     S
C175   H186    1.090   .     S
C176   C177    1.426   .     D
C176   S483    1.802   1_565 S
C177   C178    1.416   .     S
C177   N481    1.415   1_565 S
C178   H187    1.086   .     S
C179   H189    1.115   .     S
H188   C482    1.092   .     S
C190   C191    1.443   .     S
C190   H207    1.090   .     S
C190   C298    1.367   .     D
C191   C192    1.430   .     D
C191   C454    1.435   1_565 S
C192   C193    1.498   .     S
C192   C455    1.406   1_565 S
C193   C194    1.415   .     D
C193   C198    1.412   .     S
C194   C195    1.392   .     S
C194   H208    1.090   .     S
C195   C196    1.413   .     D
C195   H209    1.088   .     S
C196   C197    1.416   .     S
C196   N415    1.414   .     S
C197   C198    1.394   .     D
C197   H210    1.088   .     S
C198   H211    1.092   .     S
N199   C206    1.299   .     D
N199   C412    1.414   .     S
C200   C201    1.408   .     S
C200   C205    1.392   .     D
C200   H212    1.090   .     S
C201   C202    1.418   .     D
C201   C206    1.469   .     S
C202   C203    1.398   .     S
C202   H213    1.090   .     S
C203   C204    1.426   .     D
C203   S487    1.802   .     S
C204   C205    1.416   .     S
C204   N485    1.415   .     S
C205   H214    1.086   .     S
C206   H216    1.115   .     S
H215   C486    1.092   .     S
C217   C218    1.443   .     S
C217   H234    1.090   .     S
C218   C219    1.430   .     S
C218   C433    1.435   .     D
C219   C220    1.498   .     S
C219   C434    1.406   .     D
C220   C221    1.415   .     D
C220   C225    1.412   .     S
C221   C222    1.392   .     S
C221   H235    1.090   .     S
C222   C223    1.413   .     D
C222   H236    1.088   .     S
C223   C224    1.416   .     S
C224   C225    1.394   .     D
C224   H237    1.088   .     S
C225   H238    1.092   .     S
N226   C233    1.299   .     D
C227   C228    1.408   .     D
C227   C232    1.392   .     S
C227   H239    1.090   .     S
C228   C229    1.418   .     S
C228   C233    1.469   .     S
C229   C230    1.398   .     D
C229   H240    1.090   .     S
C230   C231    1.426   .     S
C230   S459    1.802   1_565 S
C231   C232    1.416   .     D
C231   N457    1.415   1_565 S
C232   H241    1.086   .     S
C233   H243    1.115   .     S
H242   C458    1.092   .     S
C244   C245    1.443   .     S
C244   H261    1.090   .     S
C245   C246    1.430   .     S
C245   C436    1.435   1_565 D
C246   C247    1.498   .     S
C246   C437    1.406   1_565 D
C247   C248    1.415   .     D
C247   C252    1.412   .     S
C248   C249    1.392   .     S
C248   H262    1.090   .     S
C249   C250    1.413   .     D
C249   H263    1.088   .     S
C250   C251    1.416   .     S
C251   C252    1.394   .     D
C251   H264    1.088   .     S
C252   H265    1.092   .     S
N253   C260    1.299   .     D
C254   C255    1.408   .     S
C254   C259    1.392   .     D
C254   H266    1.090   .     S
C255   C256    1.418   .     D
C255   C260    1.469   .     S
C256   C257    1.398   .     S
C256   H267    1.090   .     S
C257   C258    1.426   .     D
C257   S463    1.802   .     S
C258   C259    1.416   .     S
C258   N461    1.415   .     S
C259   H268    1.086   .     S
C260   H270    1.115   .     S
H269   C462    1.092   .     S
C271   C272    1.443   .     S
C271   H288    1.090   .     S
C272   C273    1.430   .     S
C272   C439    1.435   .     D
C273   C274    1.498   .     S
C273   C440    1.406   .     D
C274   C275    1.415   .     D
C274   C279    1.412   .     S
C275   C276    1.392   .     S
C275   H289    1.090   .     S
C276   C277    1.413   .     D
C276   H290    1.088   .     S
C277   C278    1.416   .     S
C278   C279    1.394   .     D
C278   H291    1.088   .     S
C279   H292    1.092   .     S
N280   C287    1.299   .     D
C281   C282    1.408   .     D
C281   C286    1.392   .     S
C281   H293    1.090   .     S
C282   C283    1.418   .     S
C282   C287    1.469   .     S
C283   C284    1.398   .     D
C283   H294    1.090   .     S
C284   C285    1.426   .     S
C284   S467    1.802   1_565 S
C285   C286    1.416   .     D
C285   N465    1.415   1_565 S
C286   H295    1.086   .     S
C287   H297    1.115   .     S
H296   C466    1.092   .     S
C298   C299    1.443   .     S
C298   H315    1.090   .     S
C299   C300    1.430   .     S
C299   C442    1.435   1_565 D
C300   C301    1.498   .     S
C300   C443    1.406   1_565 D
C301   C302    1.415   .     D
C301   C306    1.412   .     S
C302   C303    1.392   .     S
C302   H316    1.090   .     S
C303   C304    1.413   .     D
C303   H317    1.088   .     S
C304   C305    1.416   .     S
C305   C306    1.394   .     D
C305   H318    1.088   .     S
C306   H319    1.092   .     S
N307   C314    1.299   .     D
C308   C309    1.408   .     S
C308   C313    1.392   .     D
C308   H320    1.090   .     S
C309   C310    1.418   .     D
C309   C314    1.469   .     S
C310   C311    1.398   .     S
C310   H321    1.090   .     S
C311   C312    1.426   .     D
C311   S471    1.802   .     S
C312   C313    1.416   .     S
C312   N469    1.415   .     S
C313   H322    1.086   .     S
C314   H324    1.115   .     S
H323   C470    1.092   .     S
C325   C326    1.443   .     S
C325   H342    1.090   .     S
C326   C327    1.430   .     S
C326   C445    1.435   .     D
C327   C328    1.498   .     S
C327   C446    1.406   .     D
C328   C329    1.415   .     D
C328   C333    1.412   .     S
C329   C330    1.392   .     S
C329   H343    1.090   .     S
C330   C331    1.413   .     D
C330   H344    1.088   .     S
C331   C332    1.416   .     S
C332   C333    1.394   .     D
C332   H345    1.088   .     S
C333   H346    1.092   .     S
N334   C341    1.299   .     D
C335   C336    1.408   .     S
C335   C340    1.392   .     D
C335   H347    1.090   .     S
C336   C337    1.418   .     D
C336   C341    1.469   .     S
C337   C338    1.398   .     S
C337   H348    1.090   .     S
C338   C339    1.426   .     D
C338   S475    1.802   .     S
C339   C340    1.416   .     S
C339   N473    1.415   .     S
C340   H349    1.086   .     S
C341   H351    1.115   .     S
H350   C474    1.092   1_565 S
C352   C353    1.443   .     S
C352   H369    1.090   .     S
C353   C354    1.430   .     S
C353   C448    1.435   .     D
C354   C355    1.498   .     S
C354   C449    1.406   .     D
C355   C356    1.415   .     D
C355   C360    1.412   .     S
C356   C357    1.392   .     S
C356   H370    1.090   .     S
C357   C358    1.413   .     D
C357   H371    1.088   .     S
C358   C359    1.416   .     S
C359   C360    1.394   .     D
C359   H372    1.088   .     S
C360   H373    1.092   .     S
N361   C368    1.299   .     D
C362   C363    1.408   .     S
C362   C367    1.392   .     D
C362   H374    1.090   .     S
C363   C364    1.418   .     D
C363   C368    1.469   .     S
C364   C365    1.398   .     S
C364   H375    1.090   .     S
C365   C366    1.426   .     D
C365   S479    1.802   .     S
C366   C367    1.416   .     S
C366   N477    1.415   .     S
C367   H376    1.086   .     S
C368   H378    1.115   .     S
H377   C478    1.092   .     S
C379   C380    1.443   .     S
C379   H396    1.090   .     S
C380   C381    1.430   .     S
C380   C451    1.435   .     D
C381   C382    1.498   .     S
C381   C452    1.406   .     D
C382   C383    1.415   .     D
C382   C387    1.412   .     S
C383   C384    1.392   .     S
C383   H397    1.090   .     S
C384   C385    1.413   .     D
C384   H398    1.088   .     S
C385   C386    1.416   .     S
C386   C387    1.394   .     D
C386   H399    1.088   .     S
C387   H400    1.092   .     S
N388   C395    1.299   .     D
C389   C390    1.408   .     S
C389   C394    1.392   .     D
C389   H401    1.090   .     S
C390   C391    1.418   .     D
C390   C395    1.469   .     S
C391   C392    1.398   .     S
C391   H402    1.090   .     S
C392   C393    1.426   .     D
C392   S483    1.802   .     S
C393   C394    1.416   .     S
C393   N481    1.415   .     S
C394   H403    1.086   .     S
C395   H405    1.115   .     S
H404   C482    1.092   1_565 S
C406   C407    1.443   .     S
C406   H423    1.090   .     S
C407   C408    1.430   .     S
C407   C454    1.435   .     D
C408   C409    1.498   .     S
C408   C455    1.406   .     D
C409   C410    1.415   .     D
C409   C414    1.412   .     S
C410   C411    1.392   .     S
C410   H424    1.090   .     S
C411   C412    1.413   .     D
C411   H425    1.088   .     S
C412   C413    1.416   .     S
C413   C414    1.394   .     D
C413   H426    1.088   .     S
C414   H427    1.092   .     S
N415   C422    1.299   .     D
C416   C417    1.408   .     S
C416   C421    1.392   .     D
C416   H428    1.090   .     S
C417   C418    1.418   .     D
C417   C422    1.469   .     S
C418   C419    1.398   .     S
C418   H429    1.090   .     S
C419   C420    1.426   .     D
C419   S487    1.802   .     S
C420   C421    1.416   .     S
C420   N485    1.415   .     S
C421   H430    1.086   .     S
C422   H432    1.115   .     S
H431   C486    1.092   .     S
C433   C445    1.443   .     S
C434   H435    1.092   .     S
C436   C448    1.443   .     S
C436   C245    1.435   1_545 D
C437   H438    1.092   .     S
C437   C246    1.406   1_545 D
C439   C451    1.443   .     S
C440   H441    1.092   .     S
C442   C454    1.443   .     S
C442   C299    1.435   1_545 D
C443   H444    1.092   .     S
C443   C300    1.406   1_545 D
C446   H447    1.092   .     S
C448   C137    1.435   1_545 S
C449   H450    1.092   .     S
C449   C138    1.406   1_545 S
C452   H453    1.092   .     S
C454   C191    1.435   1_545 S
C455   H456    1.092   .     S
C455   C192    1.406   1_545 S
N457   C458    1.471   .     S
N457   C231    1.415   1_545 S
C458   H460    1.101   .     S
C458   H26     1.092   1_545 S
S459   C230    1.802   1_545 S
N461   C462    1.471   .     S
C462   H464    1.101   .     S
N465   C466    1.471   .     S
N465   C285    1.415   1_545 S
C466   H468    1.101   .     S
C466   H80     1.092   1_545 S
S467   C284    1.802   1_545 S
N469   C470    1.471   .     S
C470   H472    1.101   .     S
N473   C474    1.471   .     S
N473   C123    1.415   1_545 S
C474   H476    1.101   .     S
C474   H350    1.092   1_545 S
S475   C122    1.802   1_545 S
N477   C478    1.471   .     S
C478   H480    1.101   .     S
N481   C482    1.471   .     S
N481   C177    1.415   1_545 S
C482   H484    1.101   .     S
C482   H404    1.092   1_545 S
S483   C176    1.802   1_545 S
N485   C486    1.471   .     S
C486   H488    1.101   .     S
