data_839
_audit_creation_date              2023-09-08
_audit_creation_method            'Materials Studio'
_symmetry_space_group_name_H-M    'P1'
_symmetry_Int_Tables_number       1
_symmetry_cell_setting            triclinic
loop_
_symmetry_equiv_pos_as_xyz
  x,y,z
_cell_length_a                    35.7099
_cell_length_b                    9.7315
_cell_length_c                    50.7873
_cell_angle_alpha                 90.0000
_cell_angle_beta                  90.0000
_cell_angle_gamma                 90.0000
loop_
_atom_site_label
_atom_site_type_symbol
_atom_site_fract_x
_atom_site_fract_y
_atom_site_fract_z
_atom_site_U_iso_or_equiv
_atom_site_adp_type
_atom_site_occupancy
C1     C     0.58543   0.70490   0.60478   0.00000  Uiso   1.00
C2     C     0.53130   0.66408   0.56562   0.00000  Uiso   1.00
C3     C     0.67226   0.73120   0.66427   0.00000  Uiso   1.00
C4     C     0.61539   0.71816   0.62535   0.00000  Uiso   1.00
N1     N     0.69589   0.75789   0.70875   0.00000  Uiso   1.00
C5     C     0.70244   0.73030   0.68415   0.00000  Uiso   1.00
C6     C     0.72365   0.75472   0.72928   0.00000  Uiso   1.00
C7     C     0.47951   0.68112   0.59152   0.00000  Uiso   1.00
C8     C     0.45320   0.69915   0.61162   0.00000  Uiso   1.00
C9     C     0.40450   0.69509   0.57770   0.00000  Uiso   1.00
C10    C     0.43142   0.67232   0.55816   0.00000  Uiso   1.00
C11    C     0.34816   0.66905   0.62034   0.00000  Uiso   1.00
C12    C     0.32021   0.67641   0.63940   0.00000  Uiso   1.00
C13    C     0.36369   0.78319   0.66952   0.00000  Uiso   1.00
C14    C     0.39177   0.77760   0.65020   0.00000  Uiso   1.00
C15    C     0.23781   0.77111   0.72417   0.00000  Uiso   1.00
C16    C     0.28819   0.73498   0.75527   0.00000  Uiso   1.00
H1     H     0.73238   0.70495   0.67805   0.00000  Uiso   1.00
H2     H     0.46287   0.70888   0.63293   0.00000  Uiso   1.00
H3     H     0.37374   0.70622   0.57210   0.00000  Uiso   1.00
H4     H     0.42247   0.66104   0.53672   0.00000  Uiso   1.00
H5     H     0.34177   0.62263   0.60023   0.00000  Uiso   1.00
H6     H     0.29082   0.63750   0.63479   0.00000  Uiso   1.00
H7     H     0.36999   0.83010   0.68961   0.00000  Uiso   1.00
H8     H     0.42075   0.82136   0.65450   0.00000  Uiso   1.00
H9     H     0.22767   0.78946   0.70318   0.00000  Uiso   1.00
H10    H     0.31929   0.72369   0.75985   0.00000  Uiso   1.00
C17    C     0.08543   0.20490   0.10478   0.00000  Uiso   1.00
C18    C     0.03130   0.16408   0.06562   0.00000  Uiso   1.00
C19    C     0.17226   0.23120   0.16427   0.00000  Uiso   1.00
C20    C     0.11539   0.21816   0.12535   0.00000  Uiso   1.00
N2     N     0.19589   0.25789   0.20875   0.00000  Uiso   1.00
C21    C     0.20244   0.23030   0.18415   0.00000  Uiso   1.00
C22    C     0.22365   0.25472   0.22928   0.00000  Uiso   1.00
C23    C     0.97951   0.18112   0.09152   0.00000  Uiso   1.00
C24    C     0.95320   0.19915   0.11162   0.00000  Uiso   1.00
C25    C     0.90450   0.19509   0.07770   0.00000  Uiso   1.00
C26    C     0.93142   0.17232   0.05816   0.00000  Uiso   1.00
C27    C     0.84816   0.16905   0.12034   0.00000  Uiso   1.00
C28    C     0.82021   0.17641   0.13940   0.00000  Uiso   1.00
C29    C     0.86369   0.28319   0.16952   0.00000  Uiso   1.00
C30    C     0.89177   0.27760   0.15020   0.00000  Uiso   1.00
C31    C     0.73781   0.27111   0.22417   0.00000  Uiso   1.00
C32    C     0.78819   0.23498   0.25527   0.00000  Uiso   1.00
H11    H     0.23238   0.20495   0.17805   0.00000  Uiso   1.00
H12    H     0.96287   0.20888   0.13293   0.00000  Uiso   1.00
H13    H     0.87374   0.20622   0.07210   0.00000  Uiso   1.00
H14    H     0.92247   0.16104   0.03672   0.00000  Uiso   1.00
H15    H     0.84177   0.12263   0.10023   0.00000  Uiso   1.00
H16    H     0.79082   0.13750   0.13479   0.00000  Uiso   1.00
H17    H     0.86999   0.33010   0.18961   0.00000  Uiso   1.00
H18    H     0.92075   0.32136   0.15450   0.00000  Uiso   1.00
H19    H     0.72767   0.28946   0.20318   0.00000  Uiso   1.00
H20    H     0.81929   0.22369   0.25985   0.00000  Uiso   1.00
C33    C     0.41457   0.29510   0.60478   0.00000  Uiso   1.00
C34    C     0.46870   0.33592   0.56562   0.00000  Uiso   1.00
C35    C     0.32774   0.26880   0.66427   0.00000  Uiso   1.00
C36    C     0.38461   0.28184   0.62535   0.00000  Uiso   1.00
N3     N     0.30411   0.24211   0.70875   0.00000  Uiso   1.00
C37    C     0.29756   0.26970   0.68415   0.00000  Uiso   1.00
C38    C     0.27635   0.24528   0.72928   0.00000  Uiso   1.00
C39    C     0.52049   0.31888   0.59152   0.00000  Uiso   1.00
C40    C     0.54680   0.30085   0.61162   0.00000  Uiso   1.00
C41    C     0.59550   0.30491   0.57770   0.00000  Uiso   1.00
C42    C     0.56858   0.32768   0.55816   0.00000  Uiso   1.00
C43    C     0.65184   0.33095   0.62034   0.00000  Uiso   1.00
C44    C     0.67979   0.32359   0.63940   0.00000  Uiso   1.00
C45    C     0.63631   0.21681   0.66952   0.00000  Uiso   1.00
C46    C     0.60823   0.22240   0.65020   0.00000  Uiso   1.00
C47    C     0.76219   0.22889   0.72417   0.00000  Uiso   1.00
C48    C     0.71181   0.26502   0.75527   0.00000  Uiso   1.00
H21    H     0.26762   0.29505   0.67805   0.00000  Uiso   1.00
H22    H     0.53713   0.29112   0.63293   0.00000  Uiso   1.00
H23    H     0.62626   0.29378   0.57210   0.00000  Uiso   1.00
H24    H     0.57753   0.33896   0.53672   0.00000  Uiso   1.00
H25    H     0.65823   0.37737   0.60023   0.00000  Uiso   1.00
H26    H     0.70918   0.36250   0.63479   0.00000  Uiso   1.00
H27    H     0.63001   0.16990   0.68961   0.00000  Uiso   1.00
H28    H     0.57925   0.17864   0.65450   0.00000  Uiso   1.00
H29    H     0.77233   0.21054   0.70318   0.00000  Uiso   1.00
H30    H     0.68071   0.27631   0.75985   0.00000  Uiso   1.00
C49    C     0.91457   0.79510   0.10478   0.00000  Uiso   1.00
C50    C     0.96870   0.83592   0.06562   0.00000  Uiso   1.00
C51    C     0.82774   0.76880   0.16427   0.00000  Uiso   1.00
C52    C     0.88461   0.78184   0.12535   0.00000  Uiso   1.00
N4     N     0.80411   0.74211   0.20875   0.00000  Uiso   1.00
C53    C     0.79756   0.76970   0.18415   0.00000  Uiso   1.00
C54    C     0.77635   0.74528   0.22928   0.00000  Uiso   1.00
C55    C     0.02049   0.81888   0.09152   0.00000  Uiso   1.00
C56    C     0.04680   0.80085   0.11162   0.00000  Uiso   1.00
C57    C     0.09550   0.80491   0.07770   0.00000  Uiso   1.00
C58    C     0.06858   0.82768   0.05816   0.00000  Uiso   1.00
C59    C     0.15184   0.83095   0.12034   0.00000  Uiso   1.00
C60    C     0.17979   0.82359   0.13940   0.00000  Uiso   1.00
C61    C     0.13631   0.71681   0.16952   0.00000  Uiso   1.00
C62    C     0.10823   0.72240   0.15020   0.00000  Uiso   1.00
C63    C     0.26219   0.72889   0.22417   0.00000  Uiso   1.00
C64    C     0.21181   0.76502   0.25527   0.00000  Uiso   1.00
H31    H     0.76762   0.79505   0.17805   0.00000  Uiso   1.00
H32    H     0.03713   0.79112   0.13293   0.00000  Uiso   1.00
H33    H     0.12626   0.79378   0.07210   0.00000  Uiso   1.00
H34    H     0.07753   0.83896   0.03672   0.00000  Uiso   1.00
H35    H     0.15823   0.87737   0.10023   0.00000  Uiso   1.00
H36    H     0.20918   0.86250   0.13479   0.00000  Uiso   1.00
H37    H     0.13001   0.66990   0.18961   0.00000  Uiso   1.00
H38    H     0.07925   0.67864   0.15450   0.00000  Uiso   1.00
H39    H     0.27233   0.71054   0.20318   0.00000  Uiso   1.00
H40    H     0.18071   0.77631   0.25985   0.00000  Uiso   1.00
C65    C     0.41457   0.70490   0.39522   0.00000  Uiso   1.00
C66    C     0.46870   0.66408   0.43438   0.00000  Uiso   1.00
C67    C     0.32774   0.73120   0.33573   0.00000  Uiso   1.00
C68    C     0.38461   0.71816   0.37465   0.00000  Uiso   1.00
N5     N     0.30411   0.75789   0.29125   0.00000  Uiso   1.00
C69    C     0.29756   0.73030   0.31585   0.00000  Uiso   1.00
C70    C     0.27635   0.75472   0.27072   0.00000  Uiso   1.00
C71    C     0.52049   0.68112   0.40848   0.00000  Uiso   1.00
C72    C     0.54680   0.69915   0.38838   0.00000  Uiso   1.00
C73    C     0.59550   0.69509   0.42230   0.00000  Uiso   1.00
C74    C     0.56858   0.67232   0.44184   0.00000  Uiso   1.00
C75    C     0.65184   0.66905   0.37966   0.00000  Uiso   1.00
C76    C     0.67979   0.67641   0.36060   0.00000  Uiso   1.00
C77    C     0.63631   0.78319   0.33048   0.00000  Uiso   1.00
C78    C     0.60823   0.77760   0.34980   0.00000  Uiso   1.00
C79    C     0.76219   0.77111   0.27583   0.00000  Uiso   1.00
C80    C     0.71181   0.73498   0.24473   0.00000  Uiso   1.00
H41    H     0.26762   0.70495   0.32195   0.00000  Uiso   1.00
H42    H     0.53713   0.70888   0.36707   0.00000  Uiso   1.00
H43    H     0.62626   0.70622   0.42790   0.00000  Uiso   1.00
H44    H     0.57753   0.66104   0.46328   0.00000  Uiso   1.00
H45    H     0.65823   0.62263   0.39977   0.00000  Uiso   1.00
H46    H     0.70918   0.63750   0.36521   0.00000  Uiso   1.00
H47    H     0.63001   0.83010   0.31039   0.00000  Uiso   1.00
H48    H     0.57925   0.82136   0.34550   0.00000  Uiso   1.00
H49    H     0.77233   0.78946   0.29682   0.00000  Uiso   1.00
H50    H     0.68071   0.72369   0.24015   0.00000  Uiso   1.00
C81    C     0.91457   0.20490   0.89522   0.00000  Uiso   1.00
C82    C     0.96870   0.16408   0.93438   0.00000  Uiso   1.00
C83    C     0.82774   0.23120   0.83573   0.00000  Uiso   1.00
C84    C     0.88461   0.21816   0.87465   0.00000  Uiso   1.00
N6     N     0.80411   0.25789   0.79125   0.00000  Uiso   1.00
C85    C     0.79756   0.23030   0.81585   0.00000  Uiso   1.00
C86    C     0.77635   0.25472   0.77072   0.00000  Uiso   1.00
C87    C     0.02049   0.18112   0.90848   0.00000  Uiso   1.00
C88    C     0.04680   0.19915   0.88838   0.00000  Uiso   1.00
C89    C     0.09550   0.19509   0.92230   0.00000  Uiso   1.00
C90    C     0.06858   0.17232   0.94184   0.00000  Uiso   1.00
C91    C     0.15184   0.16905   0.87966   0.00000  Uiso   1.00
C92    C     0.17979   0.17641   0.86060   0.00000  Uiso   1.00
C93    C     0.13631   0.28319   0.83048   0.00000  Uiso   1.00
C94    C     0.10823   0.27760   0.84980   0.00000  Uiso   1.00
C95    C     0.26219   0.27111   0.77583   0.00000  Uiso   1.00
C96    C     0.21181   0.23498   0.74473   0.00000  Uiso   1.00
H51    H     0.76762   0.20495   0.82195   0.00000  Uiso   1.00
H52    H     0.03713   0.20888   0.86707   0.00000  Uiso   1.00
H53    H     0.12626   0.20622   0.92790   0.00000  Uiso   1.00
H54    H     0.07753   0.16104   0.96328   0.00000  Uiso   1.00
H55    H     0.15823   0.12263   0.89977   0.00000  Uiso   1.00
H56    H     0.20918   0.13750   0.86521   0.00000  Uiso   1.00
H57    H     0.13001   0.33010   0.81039   0.00000  Uiso   1.00
H58    H     0.07925   0.32136   0.84550   0.00000  Uiso   1.00
H59    H     0.27233   0.28946   0.79682   0.00000  Uiso   1.00
H60    H     0.18071   0.22369   0.74015   0.00000  Uiso   1.00
C97    C     0.58543   0.29510   0.39522   0.00000  Uiso   1.00
C98    C     0.53130   0.33592   0.43438   0.00000  Uiso   1.00
C99    C     0.67226   0.26880   0.33573   0.00000  Uiso   1.00
C100   C     0.61539   0.28184   0.37465   0.00000  Uiso   1.00
N7     N     0.69589   0.24211   0.29125   0.00000  Uiso   1.00
C101   C     0.70244   0.26970   0.31585   0.00000  Uiso   1.00
C102   C     0.72365   0.24528   0.27072   0.00000  Uiso   1.00
C103   C     0.47951   0.31888   0.40848   0.00000  Uiso   1.00
C104   C     0.45320   0.30085   0.38838   0.00000  Uiso   1.00
C105   C     0.40450   0.30491   0.42230   0.00000  Uiso   1.00
C106   C     0.43142   0.32768   0.44184   0.00000  Uiso   1.00
C107   C     0.34816   0.33095   0.37966   0.00000  Uiso   1.00
C108   C     0.32021   0.32359   0.36060   0.00000  Uiso   1.00
C109   C     0.36369   0.21681   0.33048   0.00000  Uiso   1.00
C110   C     0.39177   0.22240   0.34980   0.00000  Uiso   1.00
C111   C     0.23781   0.22889   0.27583   0.00000  Uiso   1.00
C112   C     0.28819   0.26502   0.24473   0.00000  Uiso   1.00
H61    H     0.73238   0.29505   0.32195   0.00000  Uiso   1.00
H62    H     0.46287   0.29112   0.36707   0.00000  Uiso   1.00
H63    H     0.37374   0.29378   0.42790   0.00000  Uiso   1.00
H64    H     0.42247   0.33896   0.46328   0.00000  Uiso   1.00
H65    H     0.34177   0.37737   0.39977   0.00000  Uiso   1.00
H66    H     0.29082   0.36250   0.36521   0.00000  Uiso   1.00
H67    H     0.36999   0.16990   0.31039   0.00000  Uiso   1.00
H68    H     0.42075   0.17864   0.34550   0.00000  Uiso   1.00
H69    H     0.22767   0.21054   0.29682   0.00000  Uiso   1.00
H70    H     0.31929   0.27631   0.24015   0.00000  Uiso   1.00
C113   C     0.08543   0.79510   0.89522   0.00000  Uiso   1.00
C114   C     0.03130   0.83592   0.93438   0.00000  Uiso   1.00
C115   C     0.17226   0.76880   0.83573   0.00000  Uiso   1.00
C116   C     0.11539   0.78184   0.87465   0.00000  Uiso   1.00
N8     N     0.19589   0.74211   0.79125   0.00000  Uiso   1.00
C117   C     0.20244   0.76970   0.81585   0.00000  Uiso   1.00
C118   C     0.22365   0.74528   0.77072   0.00000  Uiso   1.00
C119   C     0.97951   0.81888   0.90848   0.00000  Uiso   1.00
C120   C     0.95320   0.80085   0.88838   0.00000  Uiso   1.00
C121   C     0.90450   0.80491   0.92230   0.00000  Uiso   1.00
C122   C     0.93142   0.82768   0.94184   0.00000  Uiso   1.00
C123   C     0.84816   0.83095   0.87966   0.00000  Uiso   1.00
C124   C     0.82021   0.82359   0.86060   0.00000  Uiso   1.00
C125   C     0.86369   0.71681   0.83048   0.00000  Uiso   1.00
C126   C     0.89177   0.72240   0.84980   0.00000  Uiso   1.00
C127   C     0.73781   0.72889   0.77583   0.00000  Uiso   1.00
C128   C     0.78819   0.76502   0.74473   0.00000  Uiso   1.00
H71    H     0.23238   0.79505   0.82195   0.00000  Uiso   1.00
H72    H     0.96287   0.79112   0.86707   0.00000  Uiso   1.00
H73    H     0.87374   0.79378   0.92790   0.00000  Uiso   1.00
H74    H     0.92247   0.83896   0.96328   0.00000  Uiso   1.00
H75    H     0.84177   0.87737   0.89977   0.00000  Uiso   1.00
H76    H     0.79082   0.86250   0.86521   0.00000  Uiso   1.00
H77    H     0.86999   0.66990   0.81039   0.00000  Uiso   1.00
H78    H     0.92075   0.67864   0.84550   0.00000  Uiso   1.00
H79    H     0.72767   0.71054   0.79682   0.00000  Uiso   1.00
H80    H     0.81929   0.77631   0.74015   0.00000  Uiso   1.00
C129   C     0.41457   0.29510   0.39522   0.00000  Uiso   1.00
C130   C     0.46870   0.33592   0.43438   0.00000  Uiso   1.00
C131   C     0.32774   0.26880   0.33573   0.00000  Uiso   1.00
C132   C     0.38461   0.28184   0.37465   0.00000  Uiso   1.00
N9     N     0.30411   0.24211   0.29125   0.00000  Uiso   1.00
C133   C     0.29756   0.26970   0.31585   0.00000  Uiso   1.00
C134   C     0.27635   0.24528   0.27072   0.00000  Uiso   1.00
C135   C     0.52049   0.31888   0.40848   0.00000  Uiso   1.00
C136   C     0.54680   0.30085   0.38838   0.00000  Uiso   1.00
C137   C     0.59550   0.30491   0.42230   0.00000  Uiso   1.00
C138   C     0.56858   0.32768   0.44184   0.00000  Uiso   1.00
C139   C     0.65184   0.33095   0.37966   0.00000  Uiso   1.00
C140   C     0.67979   0.32359   0.36060   0.00000  Uiso   1.00
C141   C     0.63631   0.21681   0.33048   0.00000  Uiso   1.00
C142   C     0.60823   0.22240   0.34980   0.00000  Uiso   1.00
C143   C     0.76219   0.22889   0.27583   0.00000  Uiso   1.00
C144   C     0.71181   0.26502   0.24473   0.00000  Uiso   1.00
H81    H     0.26762   0.29505   0.32195   0.00000  Uiso   1.00
H82    H     0.53713   0.29112   0.36707   0.00000  Uiso   1.00
H83    H     0.62626   0.29378   0.42790   0.00000  Uiso   1.00
H84    H     0.57753   0.33896   0.46328   0.00000  Uiso   1.00
H85    H     0.65823   0.37737   0.39977   0.00000  Uiso   1.00
H86    H     0.70918   0.36250   0.36521   0.00000  Uiso   1.00
H87    H     0.63001   0.16990   0.31039   0.00000  Uiso   1.00
H88    H     0.57925   0.17864   0.34550   0.00000  Uiso   1.00
H89    H     0.77233   0.21054   0.29682   0.00000  Uiso   1.00
H90    H     0.68071   0.27631   0.24015   0.00000  Uiso   1.00
C145   C     0.91457   0.79510   0.89522   0.00000  Uiso   1.00
C146   C     0.96870   0.83592   0.93438   0.00000  Uiso   1.00
C147   C     0.82774   0.76880   0.83573   0.00000  Uiso   1.00
C148   C     0.88461   0.78184   0.87465   0.00000  Uiso   1.00
N10    N     0.80411   0.74211   0.79125   0.00000  Uiso   1.00
C149   C     0.79756   0.76970   0.81585   0.00000  Uiso   1.00
C150   C     0.77635   0.74528   0.77072   0.00000  Uiso   1.00
C151   C     0.02049   0.81888   0.90848   0.00000  Uiso   1.00
C152   C     0.04680   0.80085   0.88838   0.00000  Uiso   1.00
C153   C     0.09550   0.80491   0.92230   0.00000  Uiso   1.00
C154   C     0.06858   0.82768   0.94184   0.00000  Uiso   1.00
C155   C     0.15184   0.83095   0.87966   0.00000  Uiso   1.00
C156   C     0.17979   0.82359   0.86060   0.00000  Uiso   1.00
C157   C     0.13631   0.71681   0.83048   0.00000  Uiso   1.00
C158   C     0.10823   0.72240   0.84980   0.00000  Uiso   1.00
C159   C     0.26219   0.72889   0.77583   0.00000  Uiso   1.00
C160   C     0.21181   0.76502   0.74473   0.00000  Uiso   1.00
H91    H     0.76762   0.79505   0.82195   0.00000  Uiso   1.00
H92    H     0.03713   0.79112   0.86707   0.00000  Uiso   1.00
H93    H     0.12626   0.79378   0.92790   0.00000  Uiso   1.00
H94    H     0.07753   0.83896   0.96328   0.00000  Uiso   1.00
H95    H     0.15823   0.87737   0.89977   0.00000  Uiso   1.00
H96    H     0.20918   0.86250   0.86521   0.00000  Uiso   1.00
H97    H     0.13001   0.66990   0.81039   0.00000  Uiso   1.00
H98    H     0.07925   0.67864   0.84550   0.00000  Uiso   1.00
H99    H     0.27233   0.71054   0.79682   0.00000  Uiso   1.00
H100   H     0.18071   0.77631   0.74015   0.00000  Uiso   1.00
C161   C     0.58543   0.70490   0.39522   0.00000  Uiso   1.00
C162   C     0.53130   0.66408   0.43438   0.00000  Uiso   1.00
C163   C     0.67226   0.73120   0.33573   0.00000  Uiso   1.00
C164   C     0.61539   0.71816   0.37465   0.00000  Uiso   1.00
N11    N     0.69589   0.75789   0.29125   0.00000  Uiso   1.00
C165   C     0.70244   0.73030   0.31585   0.00000  Uiso   1.00
C166   C     0.72365   0.75472   0.27072   0.00000  Uiso   1.00
C167   C     0.47951   0.68112   0.40848   0.00000  Uiso   1.00
C168   C     0.45320   0.69915   0.38838   0.00000  Uiso   1.00
C169   C     0.40450   0.69509   0.42230   0.00000  Uiso   1.00
C170   C     0.43142   0.67232   0.44184   0.00000  Uiso   1.00
C171   C     0.34816   0.66905   0.37966   0.00000  Uiso   1.00
C172   C     0.32021   0.67641   0.36060   0.00000  Uiso   1.00
C173   C     0.36369   0.78319   0.33048   0.00000  Uiso   1.00
C174   C     0.39177   0.77760   0.34980   0.00000  Uiso   1.00
C175   C     0.23781   0.77111   0.27583   0.00000  Uiso   1.00
C176   C     0.28819   0.73498   0.24473   0.00000  Uiso   1.00
H101   H     0.73238   0.70495   0.32195   0.00000  Uiso   1.00
H102   H     0.46287   0.70888   0.36707   0.00000  Uiso   1.00
H103   H     0.37374   0.70622   0.42790   0.00000  Uiso   1.00
H104   H     0.42247   0.66104   0.46328   0.00000  Uiso   1.00
H105   H     0.34177   0.62263   0.39977   0.00000  Uiso   1.00
H106   H     0.29082   0.63750   0.36521   0.00000  Uiso   1.00
H107   H     0.36999   0.83010   0.31039   0.00000  Uiso   1.00
H108   H     0.42075   0.82136   0.34550   0.00000  Uiso   1.00
H109   H     0.22767   0.78946   0.29682   0.00000  Uiso   1.00
H110   H     0.31929   0.72369   0.24015   0.00000  Uiso   1.00
C177   C     0.08543   0.20490   0.89522   0.00000  Uiso   1.00
C178   C     0.03130   0.16408   0.93438   0.00000  Uiso   1.00
C179   C     0.17226   0.23120   0.83573   0.00000  Uiso   1.00
C180   C     0.11539   0.21816   0.87465   0.00000  Uiso   1.00
N12    N     0.19589   0.25789   0.79125   0.00000  Uiso   1.00
C181   C     0.20244   0.23030   0.81585   0.00000  Uiso   1.00
C182   C     0.22365   0.25472   0.77072   0.00000  Uiso   1.00
C183   C     0.97951   0.18112   0.90848   0.00000  Uiso   1.00
C184   C     0.95320   0.19915   0.88838   0.00000  Uiso   1.00
C185   C     0.90450   0.19509   0.92230   0.00000  Uiso   1.00
C186   C     0.93142   0.17232   0.94184   0.00000  Uiso   1.00
C187   C     0.84816   0.16905   0.87966   0.00000  Uiso   1.00
C188   C     0.82021   0.17641   0.86060   0.00000  Uiso   1.00
C189   C     0.86369   0.28319   0.83048   0.00000  Uiso   1.00
C190   C     0.89177   0.27760   0.84980   0.00000  Uiso   1.00
C191   C     0.73781   0.27111   0.77583   0.00000  Uiso   1.00
C192   C     0.78819   0.23498   0.74473   0.00000  Uiso   1.00
H111   H     0.23238   0.20495   0.82195   0.00000  Uiso   1.00
H112   H     0.96287   0.20888   0.86707   0.00000  Uiso   1.00
H113   H     0.87374   0.20622   0.92790   0.00000  Uiso   1.00
H114   H     0.92247   0.16104   0.96328   0.00000  Uiso   1.00
H115   H     0.84177   0.12263   0.89977   0.00000  Uiso   1.00
H116   H     0.79082   0.13750   0.86521   0.00000  Uiso   1.00
H117   H     0.86999   0.33010   0.81039   0.00000  Uiso   1.00
H118   H     0.92075   0.32136   0.84550   0.00000  Uiso   1.00
H119   H     0.72767   0.28946   0.79682   0.00000  Uiso   1.00
H120   H     0.81929   0.22369   0.74015   0.00000  Uiso   1.00
C193   C     0.58543   0.29510   0.60478   0.00000  Uiso   1.00
C194   C     0.53130   0.33592   0.56562   0.00000  Uiso   1.00
C195   C     0.67226   0.26880   0.66427   0.00000  Uiso   1.00
C196   C     0.61539   0.28184   0.62535   0.00000  Uiso   1.00
N13    N     0.69589   0.24211   0.70875   0.00000  Uiso   1.00
C197   C     0.70244   0.26970   0.68415   0.00000  Uiso   1.00
C198   C     0.72365   0.24528   0.72928   0.00000  Uiso   1.00
C199   C     0.47951   0.31888   0.59152   0.00000  Uiso   1.00
C200   C     0.45320   0.30085   0.61162   0.00000  Uiso   1.00
C201   C     0.40450   0.30491   0.57770   0.00000  Uiso   1.00
C202   C     0.43142   0.32768   0.55816   0.00000  Uiso   1.00
C203   C     0.34816   0.33095   0.62034   0.00000  Uiso   1.00
C204   C     0.32021   0.32359   0.63940   0.00000  Uiso   1.00
C205   C     0.36369   0.21681   0.66952   0.00000  Uiso   1.00
C206   C     0.39177   0.22240   0.65020   0.00000  Uiso   1.00
C207   C     0.23781   0.22889   0.72417   0.00000  Uiso   1.00
C208   C     0.28819   0.26502   0.75527   0.00000  Uiso   1.00
H121   H     0.73238   0.29505   0.67805   0.00000  Uiso   1.00
H122   H     0.46287   0.29112   0.63293   0.00000  Uiso   1.00
H123   H     0.37374   0.29378   0.57210   0.00000  Uiso   1.00
H124   H     0.42247   0.33896   0.53672   0.00000  Uiso   1.00
H125   H     0.34177   0.37737   0.60023   0.00000  Uiso   1.00
H126   H     0.29082   0.36250   0.63479   0.00000  Uiso   1.00
H127   H     0.36999   0.16990   0.68961   0.00000  Uiso   1.00
H128   H     0.42075   0.17864   0.65450   0.00000  Uiso   1.00
H129   H     0.22767   0.21054   0.70318   0.00000  Uiso   1.00
H130   H     0.31929   0.27631   0.75985   0.00000  Uiso   1.00
C209   C     0.08543   0.79510   0.10478   0.00000  Uiso   1.00
C210   C     0.03130   0.83592   0.06562   0.00000  Uiso   1.00
C211   C     0.17226   0.76880   0.16427   0.00000  Uiso   1.00
C212   C     0.11539   0.78184   0.12535   0.00000  Uiso   1.00
N14    N     0.19589   0.74211   0.20875   0.00000  Uiso   1.00
C213   C     0.20244   0.76970   0.18415   0.00000  Uiso   1.00
C214   C     0.22365   0.74528   0.22928   0.00000  Uiso   1.00
C215   C     0.97951   0.81888   0.09152   0.00000  Uiso   1.00
C216   C     0.95320   0.80085   0.11162   0.00000  Uiso   1.00
C217   C     0.90450   0.80491   0.07770   0.00000  Uiso   1.00
C218   C     0.93142   0.82768   0.05816   0.00000  Uiso   1.00
C219   C     0.84816   0.83095   0.12034   0.00000  Uiso   1.00
C220   C     0.82021   0.82359   0.13940   0.00000  Uiso   1.00
C221   C     0.86369   0.71681   0.16952   0.00000  Uiso   1.00
C222   C     0.89177   0.72240   0.15020   0.00000  Uiso   1.00
C223   C     0.73781   0.72889   0.22417   0.00000  Uiso   1.00
C224   C     0.78819   0.76502   0.25527   0.00000  Uiso   1.00
H131   H     0.23238   0.79505   0.17805   0.00000  Uiso   1.00
H132   H     0.96287   0.79112   0.13293   0.00000  Uiso   1.00
H133   H     0.87374   0.79378   0.07210   0.00000  Uiso   1.00
H134   H     0.92247   0.83896   0.03672   0.00000  Uiso   1.00
H135   H     0.84177   0.87737   0.10023   0.00000  Uiso   1.00
H136   H     0.79082   0.86250   0.13479   0.00000  Uiso   1.00
H137   H     0.86999   0.66990   0.18961   0.00000  Uiso   1.00
H138   H     0.92075   0.67864   0.15450   0.00000  Uiso   1.00
H139   H     0.72767   0.71054   0.20318   0.00000  Uiso   1.00
H140   H     0.81929   0.77631   0.25985   0.00000  Uiso   1.00
C225   C     0.41457   0.70490   0.60478   0.00000  Uiso   1.00
C226   C     0.46870   0.66408   0.56562   0.00000  Uiso   1.00
C227   C     0.32774   0.73120   0.66427   0.00000  Uiso   1.00
C228   C     0.38461   0.71816   0.62535   0.00000  Uiso   1.00
N15    N     0.30411   0.75789   0.70875   0.00000  Uiso   1.00
C229   C     0.29756   0.73030   0.68415   0.00000  Uiso   1.00
C230   C     0.27635   0.75472   0.72928   0.00000  Uiso   1.00
C231   C     0.52049   0.68112   0.59152   0.00000  Uiso   1.00
C232   C     0.54680   0.69915   0.61162   0.00000  Uiso   1.00
C233   C     0.59550   0.69509   0.57770   0.00000  Uiso   1.00
C234   C     0.56858   0.67232   0.55816   0.00000  Uiso   1.00
C235   C     0.65184   0.66905   0.62034   0.00000  Uiso   1.00
C236   C     0.67979   0.67641   0.63940   0.00000  Uiso   1.00
C237   C     0.63631   0.78319   0.66952   0.00000  Uiso   1.00
C238   C     0.60823   0.77760   0.65020   0.00000  Uiso   1.00
C239   C     0.76219   0.77111   0.72417   0.00000  Uiso   1.00
C240   C     0.71181   0.73498   0.75527   0.00000  Uiso   1.00
H141   H     0.26762   0.70495   0.67805   0.00000  Uiso   1.00
H142   H     0.53713   0.70888   0.63293   0.00000  Uiso   1.00
H143   H     0.62626   0.70622   0.57210   0.00000  Uiso   1.00
H144   H     0.57753   0.66104   0.53672   0.00000  Uiso   1.00
H145   H     0.65823   0.62263   0.60023   0.00000  Uiso   1.00
H146   H     0.70918   0.63750   0.63479   0.00000  Uiso   1.00
H147   H     0.63001   0.83010   0.68961   0.00000  Uiso   1.00
H148   H     0.57925   0.82136   0.65450   0.00000  Uiso   1.00
H149   H     0.77233   0.78946   0.70318   0.00000  Uiso   1.00
H150   H     0.68071   0.72369   0.75985   0.00000  Uiso   1.00
C241   C     0.91457   0.20490   0.10478   0.00000  Uiso   1.00
C242   C     0.96870   0.16408   0.06562   0.00000  Uiso   1.00
C243   C     0.82774   0.23120   0.16427   0.00000  Uiso   1.00
C244   C     0.88461   0.21816   0.12535   0.00000  Uiso   1.00
N16    N     0.80411   0.25789   0.20875   0.00000  Uiso   1.00
C245   C     0.79756   0.23030   0.18415   0.00000  Uiso   1.00
C246   C     0.77635   0.25472   0.22928   0.00000  Uiso   1.00
C247   C     0.02049   0.18112   0.09152   0.00000  Uiso   1.00
C248   C     0.04680   0.19915   0.11162   0.00000  Uiso   1.00
C249   C     0.09550   0.19509   0.07770   0.00000  Uiso   1.00
C250   C     0.06858   0.17232   0.05816   0.00000  Uiso   1.00
C251   C     0.15184   0.16905   0.12034   0.00000  Uiso   1.00
C252   C     0.17979   0.17641   0.13940   0.00000  Uiso   1.00
C253   C     0.13631   0.28319   0.16952   0.00000  Uiso   1.00
C254   C     0.10823   0.27760   0.15020   0.00000  Uiso   1.00
C255   C     0.26219   0.27111   0.22417   0.00000  Uiso   1.00
C256   C     0.21181   0.23498   0.25527   0.00000  Uiso   1.00
H151   H     0.76762   0.20495   0.17805   0.00000  Uiso   1.00
H152   H     0.03713   0.20888   0.13293   0.00000  Uiso   1.00
H153   H     0.12626   0.20622   0.07210   0.00000  Uiso   1.00
H154   H     0.07753   0.16104   0.03672   0.00000  Uiso   1.00
H155   H     0.15823   0.12263   0.10023   0.00000  Uiso   1.00
H156   H     0.20918   0.13750   0.13479   0.00000  Uiso   1.00
H157   H     0.13001   0.33010   0.18961   0.00000  Uiso   1.00
H158   H     0.07925   0.32136   0.15450   0.00000  Uiso   1.00
H159   H     0.27233   0.28946   0.20318   0.00000  Uiso   1.00
H160   H     0.18071   0.22369   0.25985   0.00000  Uiso   1.00
N17    N     0.50000   0.64854   0.54844   0.00000  Uiso   1.00
C257   C     0.50000   0.57036   0.52436   0.00000  Uiso   1.00
N18    N     0.00000   0.14854   0.04844   0.00000  Uiso   1.00
C258   C     0.00000   0.07036   0.02436   0.00000  Uiso   1.00
N19    N     0.50000   0.35146   0.54844   0.00000  Uiso   1.00
C259   C     0.50000   0.42964   0.52436   0.00000  Uiso   1.00
N20    N     0.00000   0.85146   0.04844   0.00000  Uiso   1.00
C260   C     0.00000   0.92964   0.02436   0.00000  Uiso   1.00
N21    N     0.50000   0.64854   0.45156   0.00000  Uiso   1.00
C261   C     0.50000   0.57036   0.47564   0.00000  Uiso   1.00
N22    N     0.00000   0.14854   0.95156   0.00000  Uiso   1.00
C262   C     0.00000   0.07036   0.97564   0.00000  Uiso   1.00
N23    N     0.50000   0.35146   0.45156   0.00000  Uiso   1.00
C263   C     0.50000   0.42964   0.47564   0.00000  Uiso   1.00
N24    N     0.00000   0.85146   0.95156   0.00000  Uiso   1.00
C264   C     0.00000   0.92964   0.97564   0.00000  Uiso   1.00
C265   C     0.50000   0.63519   0.50000   0.00000  Uiso   1.00
N25    N     0.50000   0.88382   0.50000   0.00000  Uiso   1.00
C266   C     0.50000   0.77037   0.50000   0.00000  Uiso   1.00
C267   C     0.00000   0.13519   0.00000   0.00000  Uiso   1.00
N26    N     0.00000   0.38382   0.00000   0.00000  Uiso   1.00
C268   C     0.00000   0.27037   0.00000   0.00000  Uiso   1.00
C269   C     0.50000   0.36481   0.50000   0.00000  Uiso   1.00
N27    N     0.50000   0.11618   0.50000   0.00000  Uiso   1.00
C270   C     0.50000   0.22963   0.50000   0.00000  Uiso   1.00
C271   C     0.00000   0.86481   0.00000   0.00000  Uiso   1.00
N28    N     0.00000   0.61618   0.00000   0.00000  Uiso   1.00
C272   C     0.00000   0.72963   0.00000   0.00000  Uiso   1.00
loop_
_geom_bond_atom_site_label_1
_geom_bond_atom_site_label_2
_geom_bond_distance
_geom_bond_site_symmetry_2
_ccdc_geom_bond_type
C1     C232    1.424   .     D
C1     C4      1.501   .     S
C1     C233    1.425   .     S
C2     C231    1.381   .     D
C2     C234    1.386   .     S
C2     N17     1.426   .     S
C3     C237    1.405   .     D
C3     C5      1.477   .     S
C3     C236    1.397   .     S
C4     C235    1.410   .     S
C4     C238    1.412   .     D
N1     C6      1.439   .     S
N1     C5      1.299   .     D
C5     H1      1.140   .     S
C6     C239    1.410   .     S
C6     C240    1.399   .     D
C7     C226    1.381   .     D
C7     C231    1.463   .     S
C7     C8      1.398   .     S
C8     C225    1.424   .     D
C8     H2      1.140   .     S
C9     C10     1.399   .     D
C9     H3      1.140   .     S
C9     C225    1.425   .     S
C10    C226    1.386   .     S
C10    H4      1.140   .     S
C11    C228    1.410   .     D
C11    H5      1.140   .     S
C11    C12     1.392   .     S
C12    H6      1.140   .     S
C12    C227    1.397   .     D
C13    H7      1.140   .     S
C13    C227    1.405   .     S
C13    C14     1.404   .     D
C14    H8      1.140   .     S
C14    C228    1.412   .     S
C15    H9      1.140   .     S
C15    C230    1.410   .     S
C15    C160    1.399   .     D
C16    H10     1.140   .     S
C16    C230    1.399   .     D
C16    C159    1.399   .     S
C17    C248    1.424   .     S
C17    C20     1.501   .     S
C17    C249    1.425   .     D
C18    N18     1.426   .     S
C18    C250    1.386   .     D
C18    C247    1.381   .     S
C19    C253    1.405   .     S
C19    C252    1.397   .     D
C19    C21     1.477   .     S
C20    C251    1.410   .     D
C20    C254    1.412   .     S
N2     C21     1.299   .     D
N2     C22     1.439   .     S
C21    H11     1.140   .     S
C22    C255    1.410   .     D
C22    C256    1.399   .     S
C23    C242    1.381   .     D
C23    C24     1.398   .     S
C23    C247    1.463   1_655 S
C24    H12     1.140   .     S
C24    C241    1.424   .     D
C25    H13     1.140   .     S
C25    C26     1.399   .     D
C25    C241    1.425   .     S
C26    H14     1.140   .     S
C26    C242    1.386   .     S
C27    C28     1.392   .     S
C27    C244    1.410   .     D
C27    H15     1.140   .     S
C28    H16     1.140   .     S
C28    C243    1.397   .     D
C29    C30     1.404   .     D
C29    C243    1.405   .     S
C29    H17     1.140   .     S
C30    H18     1.140   .     S
C30    C244    1.412   .     S
C31    C246    1.410   .     D
C31    H19     1.140   .     S
C31    C144    1.399   .     S
C32    C143    1.399   .     D
C32    H20     1.140   .     S
C32    C246    1.399   .     S
C33    C36     1.501   .     S
C33    C200    1.424   .     D
C33    C201    1.425   .     S
C34    C199    1.381   .     D
C34    C202    1.386   .     S
C34    N19     1.426   .     S
C35    C37     1.477   .     S
C35    C205    1.405   .     D
C35    C204    1.397   .     S
C36    C203    1.410   .     S
C36    C206    1.412   .     D
N3     C38     1.439   .     S
N3     C37     1.299   .     D
C37    H21     1.140   .     S
C38    C207    1.410   .     S
C38    C208    1.399   .     D
C39    C194    1.381   .     D
C39    C199    1.463   .     S
C39    C40     1.398   .     S
C40    C193    1.424   .     D
C40    H22     1.140   .     S
C41    H23     1.140   .     S
C41    C42     1.399   .     D
C41    C193    1.425   .     S
C42    C194    1.386   .     S
C42    H24     1.140   .     S
C43    C196    1.410   .     D
C43    H25     1.140   .     S
C43    C44     1.392   .     S
C44    H26     1.140   .     S
C44    C195    1.397   .     D
C45    C195    1.405   .     S
C45    H27     1.140   .     S
C45    C46     1.404   .     D
C46    H28     1.140   .     S
C46    C196    1.412   .     S
C47    H29     1.140   .     S
C47    C198    1.410   .     S
C47    C192    1.399   .     D
C48    H30     1.140   .     S
C48    C198    1.399   .     D
C48    C191    1.399   .     S
C49    C52     1.501   .     S
C49    C216    1.424   .     S
C49    C217    1.425   .     D
C50    C218    1.386   .     D
C50    C215    1.381   .     S
C50    N20     1.426   1_655 S
C51    C221    1.405   .     S
C51    C220    1.397   .     D
C51    C53     1.477   .     S
C52    C219    1.410   .     D
C52    C222    1.412   .     S
N4     C53     1.299   .     D
N4     C54     1.439   .     S
C53    H31     1.140   .     S
C54    C223    1.410   .     D
C54    C224    1.399   .     S
C55    C210    1.381   .     D
C55    C56     1.398   .     S
C55    C215    1.463   1_455 S
C56    H32     1.140   .     S
C56    C209    1.424   .     D
C57    H33     1.140   .     S
C57    C58     1.399   .     D
C57    C209    1.425   .     S
C58    H34     1.140   .     S
C58    C210    1.386   .     S
C59    C60     1.392   .     S
C59    C212    1.410   .     D
C59    H35     1.140   .     S
C60    H36     1.140   .     S
C60    C211    1.397   .     D
C61    C62     1.404   .     D
C61    C211    1.405   .     S
C61    H37     1.140   .     S
C62    H38     1.140   .     S
C62    C212    1.412   .     S
C63    C214    1.410   .     D
C63    H39     1.140   .     S
C63    C176    1.399   .     S
C64    C175    1.399   .     D
C64    H40     1.140   .     S
C64    C214    1.399   .     S
C65    C168    1.424   .     D
C65    C68     1.501   .     S
C65    C169    1.425   .     S
C66    C170    1.386   .     S
C66    N21     1.426   .     S
C66    C167    1.381   .     D
C67    C69     1.477   .     S
C67    C173    1.405   .     D
C67    C172    1.397   .     S
C68    C171    1.410   .     S
C68    C174    1.412   .     D
N5     C70     1.439   .     S
N5     C69     1.299   .     D
C69    H41     1.140   .     S
C70    C176    1.399   .     D
C70    C175    1.410   .     S
C71    C167    1.463   .     S
C71    C72     1.398   .     S
C71    C162    1.381   .     D
C72    C161    1.424   .     D
C72    H42     1.140   .     S
C73    H43     1.140   .     S
C73    C74     1.399   .     D
C73    C161    1.425   .     S
C74    C162    1.386   .     S
C74    H44     1.140   .     S
C75    C76     1.392   .     S
C75    C164    1.410   .     D
C75    H45     1.140   .     S
C76    H46     1.140   .     S
C76    C163    1.397   .     D
C77    C163    1.405   .     S
C77    H47     1.140   .     S
C77    C78     1.404   .     D
C78    C164    1.412   .     S
C78    H48     1.140   .     S
C79    C224    1.399   .     D
C79    C166    1.410   .     S
C79    H49     1.140   .     S
C80    C166    1.399   .     D
C80    C223    1.399   .     S
C80    H50     1.140   .     S
C81    C84     1.501   .     S
C81    C184    1.424   .     D
C81    C185    1.425   .     S
C82    C183    1.381   .     D
C82    C186    1.386   .     S
C82    N22     1.426   1_655 S
C83    C85     1.477   .     S
C83    C189    1.405   .     S
C83    C188    1.397   .     D
C84    C187    1.410   .     D
C84    C190    1.412   .     S
N6     C86     1.439   .     S
N6     C85     1.299   .     D
C85    H51     1.140   .     S
C86    C191    1.410   .     D
C86    C192    1.399   .     S
C87    C178    1.381   .     D
C87    C88     1.398   .     S
C87    C183    1.463   1_455 S
C88    C177    1.424   .     D
C88    H52     1.140   .     S
C89    H53     1.140   .     S
C89    C177    1.425   .     S
C89    C90     1.399   .     D
C90    H54     1.140   .     S
C90    C178    1.386   .     S
C91    H55     1.140   .     S
C91    C180    1.410   .     D
C91    C92     1.392   .     S
C92    H56     1.140   .     S
C92    C179    1.397   .     D
C93    H57     1.140   .     S
C93    C179    1.405   .     S
C93    C94     1.404   .     D
C94    H58     1.140   .     S
C94    C180    1.412   .     S
C95    H59     1.140   .     S
C95    C182    1.410   .     D
C95    C208    1.399   .     S
C96    H60     1.140   .     S
C96    C207    1.399   .     D
C96    C182    1.399   .     S
C97    C136    1.424   .     D
C97    C100    1.501   .     S
C97    C137    1.425   .     S
C98    N23     1.426   .     S
C98    C138    1.386   .     S
C98    C135    1.381   .     D
C99    C141    1.405   .     D
C99    C101    1.477   .     S
C99    C140    1.397   .     S
C100   C142    1.412   .     D
C100   C139    1.410   .     S
N7     C102    1.439   .     S
N7     C101    1.299   .     D
C101   H61     1.140   .     S
C102   C144    1.399   .     D
C102   C143    1.410   .     S
C103   C104    1.398   .     D
C103   C135    1.463   .     S
C103   C130    1.381   .     S
C104   C129    1.424   .     S
C104   H62     1.140   .     S
C105   C106    1.399   .     S
C105   H63     1.140   .     S
C105   C129    1.425   .     D
C106   C130    1.386   .     D
C106   H64     1.140   .     S
C107   C132    1.410   .     D
C107   C108    1.392   .     S
C107   H65     1.140   .     S
C108   H66     1.140   .     S
C108   C131    1.397   .     D
C109   C131    1.405   .     S
C109   H67     1.140   .     S
C109   C110    1.404   .     D
C110   C132    1.412   .     S
C110   H68     1.140   .     S
C111   C256    1.399   .     D
C111   C134    1.410   .     S
C111   H69     1.140   .     S
C112   C134    1.399   .     D
C112   C255    1.399   .     S
C112   H70     1.140   .     S
C113   C152    1.424   .     D
C113   C116    1.501   .     S
C113   C153    1.425   .     S
C114   C151    1.381   .     D
C114   N24     1.426   .     S
C114   C154    1.386   .     S
C115   C117    1.477   .     S
C115   C157    1.405   .     S
C115   C156    1.397   .     D
C116   C155    1.410   .     D
C116   C158    1.412   .     S
N8     C118    1.439   .     S
N8     C117    1.299   .     D
C117   H71     1.140   .     S
C118   C159    1.410   .     D
C118   C160    1.399   .     S
C119   C146    1.381   .     D
C119   C120    1.398   .     S
C119   C151    1.463   1_655 S
C120   C145    1.424   .     D
C120   H72     1.140   .     S
C121   H73     1.140   .     S
C121   C145    1.425   .     S
C121   C122    1.399   .     D
C122   H74     1.140   .     S
C122   C146    1.386   .     S
C123   C148    1.410   .     D
C123   H75     1.140   .     S
C123   C124    1.392   .     S
C124   H76     1.140   .     S
C124   C147    1.397   .     D
C125   H77     1.140   .     S
C125   C147    1.405   .     S
C125   C126    1.404   .     D
C126   H78     1.140   .     S
C126   C148    1.412   .     S
C127   C150    1.410   .     D
C127   H79     1.140   .     S
C127   C240    1.399   .     S
C128   H80     1.140   .     S
C128   C239    1.399   .     D
C128   C150    1.399   .     S
C129   C132    1.501   .     S
C130   N23     1.426   .     S
C131   C133    1.477   .     S
N9     C134    1.439   .     S
N9     C133    1.299   .     D
C133   H81     1.140   .     S
C135   C136    1.398   .     S
C136   H82     1.140   .     S
C137   H83     1.140   .     S
C137   C138    1.399   .     D
C138   H84     1.140   .     S
C139   C140    1.392   .     D
C139   H85     1.140   .     S
C140   H86     1.140   .     S
C141   H87     1.140   .     S
C141   C142    1.404   .     S
C142   H88     1.140   .     S
C143   H89     1.140   .     S
C144   H90     1.140   .     S
C145   C148    1.501   .     S
C146   N24     1.426   1_655 S
C147   C149    1.477   .     S
N10    C150    1.439   .     S
N10    C149    1.299   .     D
C149   H91     1.140   .     S
C151   C152    1.398   .     S
C151   C119    1.463   1_455 S
C152   H92     1.140   .     S
C153   H93     1.140   .     S
C153   C154    1.399   .     D
C154   H94     1.140   .     S
C155   H95     1.140   .     S
C155   C156    1.392   .     S
C156   H96     1.140   .     S
C157   H97     1.140   .     S
C157   C158    1.404   .     D
C158   H98     1.140   .     S
C159   H99     1.140   .     S
C160   H100    1.140   .     S
C161   C164    1.501   .     S
C162   N21     1.426   .     S
C163   C165    1.477   .     S
N11    C166    1.439   .     S
N11    C165    1.299   .     D
C165   H101    1.140   .     S
C167   C168    1.398   .     S
C168   H102    1.140   .     S
C169   C170    1.399   .     D
C169   H103    1.140   .     S
C170   H104    1.140   .     S
C171   C172    1.392   .     D
C171   H105    1.140   .     S
C172   H106    1.140   .     S
C173   H107    1.140   .     S
C173   C174    1.404   .     S
C174   H108    1.140   .     S
C175   H109    1.140   .     S
C176   H110    1.140   .     S
C177   C180    1.501   .     S
C178   N22     1.426   .     S
C179   C181    1.477   .     S
N12    C182    1.439   .     S
N12    C181    1.299   .     D
C181   H111    1.140   .     S
C183   C184    1.398   .     S
C183   C87     1.463   1_655 S
C184   H112    1.140   .     S
C185   H113    1.140   .     S
C185   C186    1.399   .     D
C186   H114    1.140   .     S
C187   H115    1.140   .     S
C187   C188    1.392   .     S
C188   H116    1.140   .     S
C189   H117    1.140   .     S
C189   C190    1.404   .     D
C190   H118    1.140   .     S
C191   H119    1.140   .     S
C192   H120    1.140   .     S
C193   C196    1.501   .     S
C194   N19     1.426   .     S
C195   C197    1.477   .     S
N13    C198    1.439   .     S
N13    C197    1.299   .     D
C197   H121    1.140   .     S
C199   C200    1.398   .     S
C200   H122    1.140   .     S
C201   C202    1.399   .     D
C201   H123    1.140   .     S
C202   H124    1.140   .     S
C203   H125    1.140   .     S
C203   C204    1.392   .     D
C204   H126    1.140   .     S
C205   H127    1.140   .     S
C205   C206    1.404   .     S
C206   H128    1.140   .     S
C207   H129    1.140   .     S
C208   H130    1.140   .     S
C209   C212    1.501   .     S
C210   N20     1.426   .     S
C211   C213    1.477   .     S
N14    C213    1.299   .     D
N14    C214    1.439   .     S
C213   H131    1.140   .     S
C215   C216    1.398   .     D
C215   C55     1.463   1_655 S
C216   H132    1.140   .     S
C217   H133    1.140   .     S
C217   C218    1.399   .     S
C218   H134    1.140   .     S
C219   C220    1.392   .     S
C219   H135    1.140   .     S
C220   H136    1.140   .     S
C221   C222    1.404   .     D
C221   H137    1.140   .     S
C222   H138    1.140   .     S
C223   H139    1.140   .     S
C224   H140    1.140   .     S
C225   C228    1.501   .     S
C226   N17     1.426   .     S
C227   C229    1.477   .     S
N15    C230    1.439   .     S
N15    C229    1.299   .     D
C229   H141    1.140   .     S
C231   C232    1.398   .     S
C232   H142    1.140   .     S
C233   H143    1.140   .     S
C233   C234    1.399   .     D
C234   H144    1.140   .     S
C235   H145    1.140   .     S
C235   C236    1.392   .     D
C236   H146    1.140   .     S
C237   H147    1.140   .     S
C237   C238    1.404   .     S
C238   H148    1.140   .     S
C239   H149    1.140   .     S
C240   H150    1.140   .     S
C241   C244    1.501   .     S
C242   N18     1.426   1_655 S
C243   C245    1.477   .     S
N16    C245    1.299   .     D
N16    C246    1.439   .     S
C245   H151    1.140   .     S
C247   C248    1.398   .     D
C247   C23     1.463   1_455 S
C248   H152    1.140   .     S
C249   H153    1.140   .     S
C249   C250    1.399   .     S
C250   H154    1.140   .     S
C251   C252    1.392   .     S
C251   H155    1.140   .     S
C252   H156    1.140   .     S
C253   C254    1.404   .     D
C253   H157    1.140   .     S
C254   H158    1.140   .     S
C255   H159    1.140   .     S
C256   H160    1.140   .     S
N17    C257    1.440   .     S
C257   C259    1.369   .     D
C257   C265    1.389   .     S
N18    C258    1.440   .     S
N18    C242    1.426   1_455 S
C258   C267    1.389   .     D
C258   C260    1.369   1_545 S
N19    C259    1.440   .     S
C259   C269    1.389   .     S
N20    C260    1.440   .     S
N20    C50     1.426   1_455 S
C260   C271    1.389   .     D
C260   C258    1.369   1_565 S
N21    C261    1.440   .     S
C261   C263    1.369   .     S
C261   C265    1.389   .     D
N22    C262    1.440   .     S
N22    C82     1.426   1_455 S
C262   C264    1.369   1_545 D
C262   C267    1.389   1_556 S
N23    C263    1.440   .     S
C263   C269    1.389   .     D
N24    C264    1.440   .     S
N24    C146    1.426   1_455 S
C264   C262    1.369   1_565 D
C264   C271    1.389   1_556 S
C265   C266    1.316   .     S
N25    C266    1.104   .     T
C267   C268    1.316   .     S
C267   C262    1.389   1_554 S
N26    C268    1.104   .     T
C269   C270    1.316   .     S
N27    C270    1.104   .     T
C271   C272    1.316   .     S
C271   C264    1.389   1_554 S
N28    C272    1.104   .     T
