data_843
_audit_creation_date              2023-09-08
_audit_creation_method            'Materials Studio'
_symmetry_space_group_name_H-M    'P1'
_symmetry_Int_Tables_number       1
_symmetry_cell_setting            triclinic
loop_
_symmetry_equiv_pos_as_xyz
  x,y,z
_cell_length_a                    66.3800
_cell_length_b                    37.6500
_cell_length_c                    14.6100
_cell_angle_alpha                 90.0000
_cell_angle_beta                  104.5000
_cell_angle_gamma                 90.0000
loop_
_atom_site_label
_atom_site_type_symbol
_atom_site_fract_x
_atom_site_fract_y
_atom_site_fract_z
_atom_site_U_iso_or_equiv
_atom_site_adp_type
_atom_site_occupancy
C1     C     0.27378   0.29307   0.74342   0.00000  Uiso   1.00
C2     C     0.29347   0.28244   0.79806   0.00000  Uiso   1.00
C3     C     0.31156   0.29941   0.78815   0.00000  Uiso   1.00
C4     C     0.31044   0.32773   0.72438   0.00000  Uiso   1.00
C5     C     0.29085   0.33837   0.66947   0.00000  Uiso   1.00
C6     C     0.27266   0.32122   0.67861   0.00000  Uiso   1.00
C7     C     0.95806   0.91462   0.59161   0.00000  Uiso   1.00
C8     C     0.94984   0.92457   0.66751   0.00000  Uiso   1.00
C9     C     0.96211   0.94494   0.74111   0.00000  Uiso   1.00
C10    C     0.98211   0.95594   0.73792   0.00000  Uiso   1.00
C11    C     0.99019   0.94668   0.66076   0.00000  Uiso   1.00
C12    C     0.97798   0.92572   0.58807   0.00000  Uiso   1.00
C13    C     0.26710   0.92287   0.77715   0.00000  Uiso   1.00
C14    C     0.27874   0.93244   0.71277   0.00000  Uiso   1.00
C15    C     0.29804   0.91612   0.71690   0.00000  Uiso   1.00
C16    C     0.30607   0.88978   0.78488   0.00000  Uiso   1.00
C17    C     0.29414   0.87980   0.84746   0.00000  Uiso   1.00
C18    C     0.27495   0.89614   0.84396   0.00000  Uiso   1.00
C19    C     0.14243   0.23256   0.72345   0.00000  Uiso   1.00
C20    C     0.12196   0.23216   0.72561   0.00000  Uiso   1.00
C21    C     0.11612   0.19679   0.72374   0.00000  Uiso   1.00
N22    N     0.13241   0.17512   0.72102   0.00000  Uiso   1.00
C23    C     0.14851   0.19742   0.72044   0.00000  Uiso   1.00
C24    C     0.16847   0.18711   0.71480   0.00000  Uiso   1.00
C25    C     0.09572   0.18580   0.72092   0.00000  Uiso   1.00
C26    C     0.12313   0.01161   0.72440   0.00000  Uiso   1.00
C27    C     0.14364   0.01190   0.72345   0.00000  Uiso   1.00
C28    C     0.14936   0.04713   0.72040   0.00000  Uiso   1.00
N29    N     0.13300   0.06889   0.72027   0.00000  Uiso   1.00
C30    C     0.11691   0.04673   0.72210   0.00000  Uiso   1.00
C31    C     0.16930   0.05806   0.71585   0.00000  Uiso   1.00
C32    C     0.09642   0.05707   0.71963   0.00000  Uiso   1.00
C33    C     0.06880   0.13821   0.71813   0.00000  Uiso   1.00
C34    C     0.06897   0.10347   0.71706   0.00000  Uiso   1.00
C35    C     0.09016   0.09262   0.71759   0.00000  Uiso   1.00
N36    N     0.10241   0.12154   0.71832   0.00000  Uiso   1.00
C37    C     0.08991   0.14996   0.71883   0.00000  Uiso   1.00
C38    C     0.19570   0.10566   0.71349   0.00000  Uiso   1.00
C39    C     0.19552   0.14039   0.71375   0.00000  Uiso   1.00
C40    C     0.17436   0.15133   0.71416   0.00000  Uiso   1.00
N41    N     0.16207   0.12247   0.71462   0.00000  Uiso   1.00
C42    C     0.17472   0.09396   0.71386   0.00000  Uiso   1.00
Cu43   Cu    0.13207   0.12198   0.71656   0.00000  Uiso   1.00
C44    C     0.25486   0.27434   0.75536   0.00000  Uiso   1.00
N45    N     0.23712   0.27665   0.69203   0.00000  Uiso   1.00
C46    C     0.21865   0.25765   0.69764   0.00000  Uiso   1.00
C47    C     0.20659   0.24113   0.61631   0.00000  Uiso   1.00
C48    C     0.18961   0.21973   0.62109   0.00000  Uiso   1.00
C49    C     0.18428   0.21465   0.70736   0.00000  Uiso   1.00
C50    C     0.19556   0.23310   0.78780   0.00000  Uiso   1.00
C51    C     0.21240   0.25503   0.78236   0.00000  Uiso   1.00
C52    C     0.18572   0.03069   0.71453   0.00000  Uiso   1.00
C53    C     0.08005   0.02973   0.71899   0.00000  Uiso   1.00
C54    C     0.07896   0.21245   0.71966   0.00000  Uiso   1.00
C55    C     0.19592   0.01285   0.79772   0.00000  Uiso   1.00
C56    C     0.21287   0.99026   0.79927   0.00000  Uiso   1.00
C57    C     0.22010   0.98519   0.71726   0.00000  Uiso   1.00
C58    C     0.20969   0.00270   0.63399   0.00000  Uiso   1.00
C59    C     0.19257   0.02483   0.63226   0.00000  Uiso   1.00
C60    C     0.06589   0.02077   0.63363   0.00000  Uiso   1.00
C61    C     0.04774   0.00182   0.63315   0.00000  Uiso   1.00
C62    C     0.04320   0.99178   0.71866   0.00000  Uiso   1.00
C63    C     0.05756   0.00015   0.80389   0.00000  Uiso   1.00
C64    C     0.07590   0.01867   0.80419   0.00000  Uiso   1.00
C65    C     0.06302   0.21706   0.63688   0.00000  Uiso   1.00
C66    C     0.04433   0.23375   0.63998   0.00000  Uiso   1.00
C67    C     0.04134   0.24703   0.72528   0.00000  Uiso   1.00
C68    C     0.05783   0.24441   0.80737   0.00000  Uiso   1.00
C69    C     0.07644   0.22711   0.80458   0.00000  Uiso   1.00
C70    C     0.01615   0.28013   0.79001   0.00000  Uiso   1.00
N71    N     0.02084   0.25921   0.72741   0.00000  Uiso   1.00
C72    C     0.01090   0.95930   0.65299   0.00000  Uiso   1.00
N73    N     0.02348   0.97634   0.72168   0.00000  Uiso   1.00
C74    C     0.24721   0.94086   0.77946   0.00000  Uiso   1.00
N75    N     0.23855   0.96472   0.71723   0.00000  Uiso   1.00
C76    C     0.96880   0.32636   0.83681   0.00000  Uiso   1.00
C77    C     0.95238   0.30503   0.78583   0.00000  Uiso   1.00
C78    C     0.95698   0.27560   0.73571   0.00000  Uiso   1.00
C79    C     0.97767   0.26748   0.73645   0.00000  Uiso   1.00
C80    C     0.99414   0.28886   0.78681   0.00000  Uiso   1.00
C81    C     0.98949   0.31822   0.83733   0.00000  Uiso   1.00
H82    H     0.29478   0.25978   0.85099   0.00000  Uiso   1.00
H83    H     0.32742   0.29031   0.83206   0.00000  Uiso   1.00
H84    H     0.28960   0.36113   0.61689   0.00000  Uiso   1.00
H85    H     0.25691   0.33018   0.63322   0.00000  Uiso   1.00
H86    H     0.94851   0.89739   0.53232   0.00000  Uiso   1.00
H87    H     0.95585   0.95268   0.80420   0.00000  Uiso   1.00
H88    H     0.99193   0.97249   0.79805   0.00000  Uiso   1.00
H89    H     0.98447   0.91779   0.52577   0.00000  Uiso   1.00
H90    H     0.27258   0.95353   0.65680   0.00000  Uiso   1.00
H91    H     0.30745   0.92413   0.66475   0.00000  Uiso   1.00
H92    H     0.30000   0.85814   0.90216   0.00000  Uiso   1.00
H93    H     0.26569   0.88750   0.89617   0.00000  Uiso   1.00
H94    H     0.15090   0.25893   0.72431   0.00000  Uiso   1.00
H95    H     0.11337   0.25820   0.72837   0.00000  Uiso   1.00
H96    H     0.11480   0.98528   0.72671   0.00000  Uiso   1.00
H97    H     0.15244   0.98581   0.72512   0.00000  Uiso   1.00
H98    H     0.05384   0.15304   0.71834   0.00000  Uiso   1.00
H99    H     0.05414   0.08803   0.71598   0.00000  Uiso   1.00
H100   H     0.21063   0.09078   0.71306   0.00000  Uiso   1.00
H101   H     0.21030   0.15579   0.71363   0.00000  Uiso   1.00
H102   H     0.25610   0.25768   0.82168   0.00000  Uiso   1.00
H103   H     0.21055   0.24506   0.54545   0.00000  Uiso   1.00
H104   H     0.17998   0.20625   0.55461   0.00000  Uiso   1.00
H105   H     0.19107   0.23031   0.85782   0.00000  Uiso   1.00
H106   H     0.22098   0.27071   0.84716   0.00000  Uiso   1.00
H107   H     0.19048   0.01660   0.86515   0.00000  Uiso   1.00
H108   H     0.22090   0.97585   0.86721   0.00000  Uiso   1.00
H109   H     0.21511   0.99905   0.56646   0.00000  Uiso   1.00
H110   H     0.18420   0.03810   0.56308   0.00000  Uiso   1.00
H111   H     0.06910   0.02894   0.56351   0.00000  Uiso   1.00
H112   H     0.03650   0.99439   0.56319   0.00000  Uiso   1.00
H113   H     0.05439   0.99189   0.87403   0.00000  Uiso   1.00
H114   H     0.08749   0.02472   0.87431   0.00000  Uiso   1.00
H115   H     0.06522   0.20720   0.56626   0.00000  Uiso   1.00
H116   H     0.03134   0.23666   0.57265   0.00000  Uiso   1.00
H117   H     0.05613   0.25638   0.87670   0.00000  Uiso   1.00
H118   H     0.08954   0.22502   0.87177   0.00000  Uiso   1.00
H119   H     0.02903   0.29210   0.84853   0.00000  Uiso   1.00
H120   H     0.01570   0.95373   0.58470   0.00000  Uiso   1.00
H121   H     0.23955   0.93310   0.83825   0.00000  Uiso   1.00
H122   H     0.96535   0.35037   0.87794   0.00000  Uiso   1.00
H123   H     0.94387   0.25807   0.69397   0.00000  Uiso   1.00
H124   H     0.98127   0.24338   0.69601   0.00000  Uiso   1.00
H125   H     0.00272   0.33550   0.87904   0.00000  Uiso   1.00
O126   O     0.63133   0.47144   0.35045   0.00000  Uiso   1.00
O127   O     0.61281   0.43706   0.21459   0.00000  Uiso   1.00
O128   O     0.64847   0.43956   0.22367   0.00000  Uiso   1.00
O129   O     0.64935   0.41808   0.39561   0.00000  Uiso   1.00
P130   P     0.63387   0.43782   0.30323   0.00000  Uiso   1.00
C131   C     0.57058   0.41086   0.32217   0.00000  Uiso   1.00
C132   C     0.57819   0.37786   0.36391   0.00000  Uiso   1.00
C133   C     0.59830   0.36553   0.35952   0.00000  Uiso   1.00
C134   C     0.61069   0.38636   0.31395   0.00000  Uiso   1.00
C135   C     0.60242   0.41830   0.26983   0.00000  Uiso   1.00
C136   C     0.58303   0.43090   0.27722   0.00000  Uiso   1.00
C137   C     0.63033   0.37085   0.29773   0.00000  Uiso   1.00
C138   C     0.64906   0.38837   0.34052   0.00000  Uiso   1.00
C139   C     0.66818   0.37557   0.33061   0.00000  Uiso   1.00
C140   C     0.66945   0.34404   0.28179   0.00000  Uiso   1.00
C141   C     0.65094   0.32449   0.24345   0.00000  Uiso   1.00
C142   C     0.63132   0.33795   0.25200   0.00000  Uiso   1.00
C143   C     0.56623   0.35681   0.41055   0.00000  Uiso   1.00
C144   C     0.57349   0.32398   0.44921   0.00000  Uiso   1.00
C145   C     0.59283   0.31155   0.44219   0.00000  Uiso   1.00
C146   C     0.60518   0.33207   0.39830   0.00000  Uiso   1.00
C147   C     0.61322   0.31765   0.21650   0.00000  Uiso   1.00
C148   C     0.61433   0.28492   0.17327   0.00000  Uiso   1.00
C149   C     0.63341   0.27180   0.16441   0.00000  Uiso   1.00
C150   C     0.65157   0.29135   0.19931   0.00000  Uiso   1.00
Cl151  Cl    0.55823   0.29849   0.50738   0.00000  Uiso   1.00
Cl152  Cl    0.63465   0.23036   0.11045   0.00000  Uiso   1.00
H153   H     0.57745   0.45796   0.24588   0.00000  Uiso   1.00
H154   H     0.68309   0.39090   0.36263   0.00000  Uiso   1.00
H155   H     0.55039   0.36659   0.41702   0.00000  Uiso   1.00
H156   H     0.59863   0.28446   0.47245   0.00000  Uiso   1.00
H157   H     0.62101   0.32151   0.39397   0.00000  Uiso   1.00
H158   H     0.59748   0.32793   0.22297   0.00000  Uiso   1.00
H159   H     0.59958   0.26871   0.14492   0.00000  Uiso   1.00
H160   H     0.66704   0.28021   0.19176   0.00000  Uiso   1.00
O161   O     0.84262   0.27820   0.72980   0.00000  Uiso   1.00
O162   O     0.86215   0.29990   0.87338   0.00000  Uiso   1.00
O163   O     0.88091   0.25212   0.80981   0.00000  Uiso   1.00
O164   O     0.87657   0.28975   0.68236   0.00000  Uiso   1.00
P165   P     0.86808   0.28359   0.77844   0.00000  Uiso   1.00
C166   C     0.82741   0.37517   0.78621   0.00000  Uiso   1.00
C167   C     0.84019   0.39617   0.74280   0.00000  Uiso   1.00
C168   C     0.86029   0.38361   0.73897   0.00000  Uiso   1.00
C169   C     0.86741   0.35007   0.77804   0.00000  Uiso   1.00
C170   C     0.85476   0.33042   0.82405   0.00000  Uiso   1.00
C171   C     0.83478   0.34223   0.82466   0.00000  Uiso   1.00
C172   C     0.88958   0.33954   0.78596   0.00000  Uiso   1.00
C173   C     0.89290   0.30889   0.73644   0.00000  Uiso   1.00
C174   C     0.91303   0.29732   0.73838   0.00000  Uiso   1.00
C175   C     0.93049   0.31671   0.78574   0.00000  Uiso   1.00
C176   C     0.92756   0.34907   0.83085   0.00000  Uiso   1.00
C177   C     0.90698   0.36056   0.83042   0.00000  Uiso   1.00
C178   C     0.83337   0.42950   0.70251   0.00000  Uiso   1.00
C179   C     0.84617   0.45051   0.66224   0.00000  Uiso   1.00
C180   C     0.86601   0.43864   0.66129   0.00000  Uiso   1.00
C181   C     0.87301   0.40553   0.69875   0.00000  Uiso   1.00
C182   C     0.90431   0.39330   0.87262   0.00000  Uiso   1.00
C183   C     0.92146   0.41427   0.91460   0.00000  Uiso   1.00
C184   C     0.94155   0.40307   0.91556   0.00000  Uiso   1.00
C185   C     0.94459   0.37081   0.87393   0.00000  Uiso   1.00
Cl186  Cl    0.83712   0.49185   0.61212   0.00000  Uiso   1.00
Cl187  Cl    0.96305   0.42985   0.96802   0.00000  Uiso   1.00
H188   H     0.82448   0.32453   0.85718   0.00000  Uiso   1.00
H189   H     0.91541   0.27168   0.70094   0.00000  Uiso   1.00
H190   H     0.81718   0.43959   0.70259   0.00000  Uiso   1.00
H191   H     0.87661   0.45605   0.62974   0.00000  Uiso   1.00
H192   H     0.88923   0.39624   0.69660   0.00000  Uiso   1.00
H193   H     0.88802   0.40289   0.87266   0.00000  Uiso   1.00
H194   H     0.91910   0.44073   0.94842   0.00000  Uiso   1.00
H195   H     0.96110   0.36210   0.87506   0.00000  Uiso   1.00
H196   H     0.36043   0.45311   0.84138   0.00000  Uiso   1.00
H197   H     0.33361   0.79623   0.76474   0.00000  Uiso   1.00
C198   C     0.77378   0.79307   0.74342   0.00000  Uiso   1.00
C199   C     0.79347   0.78244   0.79806   0.00000  Uiso   1.00
C200   C     0.81156   0.79941   0.78815   0.00000  Uiso   1.00
C201   C     0.81044   0.82773   0.72438   0.00000  Uiso   1.00
C202   C     0.79085   0.83837   0.66947   0.00000  Uiso   1.00
C203   C     0.77266   0.82122   0.67861   0.00000  Uiso   1.00
C204   C     0.45806   0.41462   0.59161   0.00000  Uiso   1.00
C205   C     0.44984   0.42457   0.66751   0.00000  Uiso   1.00
C206   C     0.46211   0.44494   0.74111   0.00000  Uiso   1.00
C207   C     0.48211   0.45594   0.73792   0.00000  Uiso   1.00
C208   C     0.49019   0.44668   0.66076   0.00000  Uiso   1.00
C209   C     0.47798   0.42572   0.58807   0.00000  Uiso   1.00
C210   C     0.76710   0.42287   0.77715   0.00000  Uiso   1.00
C211   C     0.77874   0.43244   0.71277   0.00000  Uiso   1.00
C212   C     0.79804   0.41612   0.71690   0.00000  Uiso   1.00
C213   C     0.80607   0.38978   0.78488   0.00000  Uiso   1.00
C214   C     0.79414   0.37980   0.84746   0.00000  Uiso   1.00
C215   C     0.77495   0.39614   0.84396   0.00000  Uiso   1.00
C216   C     0.64243   0.73256   0.72345   0.00000  Uiso   1.00
C217   C     0.62196   0.73216   0.72561   0.00000  Uiso   1.00
C218   C     0.61612   0.69679   0.72374   0.00000  Uiso   1.00
N219   N     0.63241   0.67512   0.72102   0.00000  Uiso   1.00
C220   C     0.64851   0.69742   0.72044   0.00000  Uiso   1.00
C221   C     0.66847   0.68711   0.71480   0.00000  Uiso   1.00
C222   C     0.59572   0.68580   0.72092   0.00000  Uiso   1.00
C223   C     0.62313   0.51161   0.72440   0.00000  Uiso   1.00
C224   C     0.64364   0.51190   0.72345   0.00000  Uiso   1.00
C225   C     0.64936   0.54713   0.72040   0.00000  Uiso   1.00
N226   N     0.63300   0.56889   0.72027   0.00000  Uiso   1.00
C227   C     0.61691   0.54673   0.72210   0.00000  Uiso   1.00
C228   C     0.66930   0.55806   0.71585   0.00000  Uiso   1.00
C229   C     0.59642   0.55707   0.71963   0.00000  Uiso   1.00
C230   C     0.56880   0.63821   0.71813   0.00000  Uiso   1.00
C231   C     0.56897   0.60347   0.71706   0.00000  Uiso   1.00
C232   C     0.59016   0.59262   0.71759   0.00000  Uiso   1.00
N233   N     0.60241   0.62154   0.71832   0.00000  Uiso   1.00
C234   C     0.58991   0.64996   0.71883   0.00000  Uiso   1.00
C235   C     0.69570   0.60566   0.71349   0.00000  Uiso   1.00
C236   C     0.69552   0.64039   0.71375   0.00000  Uiso   1.00
C237   C     0.67436   0.65133   0.71416   0.00000  Uiso   1.00
N238   N     0.66207   0.62247   0.71462   0.00000  Uiso   1.00
C239   C     0.67472   0.59396   0.71386   0.00000  Uiso   1.00
Cu240  Cu    0.63207   0.62198   0.71656   0.00000  Uiso   1.00
C241   C     0.75486   0.77434   0.75536   0.00000  Uiso   1.00
N242   N     0.73712   0.77665   0.69203   0.00000  Uiso   1.00
C243   C     0.71865   0.75765   0.69764   0.00000  Uiso   1.00
C244   C     0.70659   0.74113   0.61631   0.00000  Uiso   1.00
C245   C     0.68961   0.71973   0.62109   0.00000  Uiso   1.00
C246   C     0.68428   0.71465   0.70736   0.00000  Uiso   1.00
C247   C     0.69556   0.73310   0.78780   0.00000  Uiso   1.00
C248   C     0.71240   0.75503   0.78236   0.00000  Uiso   1.00
C249   C     0.68572   0.53069   0.71453   0.00000  Uiso   1.00
C250   C     0.58005   0.52973   0.71899   0.00000  Uiso   1.00
C251   C     0.57896   0.71245   0.71966   0.00000  Uiso   1.00
C252   C     0.69592   0.51285   0.79772   0.00000  Uiso   1.00
C253   C     0.71287   0.49026   0.79927   0.00000  Uiso   1.00
C254   C     0.72010   0.48519   0.71726   0.00000  Uiso   1.00
C255   C     0.70969   0.50270   0.63399   0.00000  Uiso   1.00
C256   C     0.69257   0.52483   0.63226   0.00000  Uiso   1.00
C257   C     0.56589   0.52077   0.63363   0.00000  Uiso   1.00
C258   C     0.54774   0.50182   0.63315   0.00000  Uiso   1.00
C259   C     0.54320   0.49178   0.71866   0.00000  Uiso   1.00
C260   C     0.55756   0.50015   0.80389   0.00000  Uiso   1.00
C261   C     0.57590   0.51867   0.80419   0.00000  Uiso   1.00
C262   C     0.56302   0.71706   0.63688   0.00000  Uiso   1.00
C263   C     0.54433   0.73375   0.63998   0.00000  Uiso   1.00
C264   C     0.54134   0.74703   0.72528   0.00000  Uiso   1.00
C265   C     0.55783   0.74441   0.80737   0.00000  Uiso   1.00
C266   C     0.57644   0.72711   0.80458   0.00000  Uiso   1.00
C267   C     0.51615   0.78013   0.79001   0.00000  Uiso   1.00
N268   N     0.52084   0.75921   0.72741   0.00000  Uiso   1.00
C269   C     0.51090   0.45930   0.65299   0.00000  Uiso   1.00
N270   N     0.52348   0.47634   0.72168   0.00000  Uiso   1.00
C271   C     0.74721   0.44086   0.77946   0.00000  Uiso   1.00
N272   N     0.73855   0.46472   0.71723   0.00000  Uiso   1.00
C273   C     0.46880   0.82636   0.83681   0.00000  Uiso   1.00
C274   C     0.45238   0.80503   0.78583   0.00000  Uiso   1.00
C275   C     0.45698   0.77560   0.73571   0.00000  Uiso   1.00
C276   C     0.47767   0.76748   0.73645   0.00000  Uiso   1.00
C277   C     0.49414   0.78886   0.78681   0.00000  Uiso   1.00
C278   C     0.48949   0.81822   0.83733   0.00000  Uiso   1.00
H279   H     0.79478   0.75978   0.85099   0.00000  Uiso   1.00
H280   H     0.82742   0.79031   0.83206   0.00000  Uiso   1.00
H281   H     0.78960   0.86113   0.61689   0.00000  Uiso   1.00
H282   H     0.75691   0.83018   0.63322   0.00000  Uiso   1.00
H283   H     0.44851   0.39739   0.53232   0.00000  Uiso   1.00
H284   H     0.45585   0.45268   0.80420   0.00000  Uiso   1.00
H285   H     0.49193   0.47249   0.79805   0.00000  Uiso   1.00
H286   H     0.48447   0.41779   0.52577   0.00000  Uiso   1.00
H287   H     0.77258   0.45353   0.65680   0.00000  Uiso   1.00
H288   H     0.80745   0.42413   0.66475   0.00000  Uiso   1.00
H289   H     0.80000   0.35814   0.90216   0.00000  Uiso   1.00
H290   H     0.76569   0.38750   0.89617   0.00000  Uiso   1.00
H291   H     0.65090   0.75893   0.72431   0.00000  Uiso   1.00
H292   H     0.61337   0.75820   0.72837   0.00000  Uiso   1.00
H293   H     0.61480   0.48528   0.72671   0.00000  Uiso   1.00
H294   H     0.65244   0.48581   0.72512   0.00000  Uiso   1.00
H295   H     0.55384   0.65304   0.71834   0.00000  Uiso   1.00
H296   H     0.55414   0.58803   0.71598   0.00000  Uiso   1.00
H297   H     0.71063   0.59078   0.71306   0.00000  Uiso   1.00
H298   H     0.71030   0.65579   0.71363   0.00000  Uiso   1.00
H299   H     0.75610   0.75768   0.82168   0.00000  Uiso   1.00
H300   H     0.71055   0.74506   0.54545   0.00000  Uiso   1.00
H301   H     0.67998   0.70625   0.55461   0.00000  Uiso   1.00
H302   H     0.69107   0.73031   0.85782   0.00000  Uiso   1.00
H303   H     0.72098   0.77071   0.84716   0.00000  Uiso   1.00
H304   H     0.69048   0.51660   0.86515   0.00000  Uiso   1.00
H305   H     0.72090   0.47585   0.86721   0.00000  Uiso   1.00
H306   H     0.71511   0.49905   0.56646   0.00000  Uiso   1.00
H307   H     0.68420   0.53810   0.56308   0.00000  Uiso   1.00
H308   H     0.56910   0.52894   0.56351   0.00000  Uiso   1.00
H309   H     0.53650   0.49439   0.56319   0.00000  Uiso   1.00
H310   H     0.55439   0.49189   0.87403   0.00000  Uiso   1.00
H311   H     0.58749   0.52472   0.87431   0.00000  Uiso   1.00
H312   H     0.56522   0.70720   0.56626   0.00000  Uiso   1.00
H313   H     0.53134   0.73666   0.57265   0.00000  Uiso   1.00
H314   H     0.55613   0.75638   0.87670   0.00000  Uiso   1.00
H315   H     0.58954   0.72502   0.87177   0.00000  Uiso   1.00
H316   H     0.52903   0.79210   0.84853   0.00000  Uiso   1.00
H317   H     0.51570   0.45373   0.58470   0.00000  Uiso   1.00
H318   H     0.73955   0.43310   0.83825   0.00000  Uiso   1.00
H319   H     0.46535   0.85037   0.87794   0.00000  Uiso   1.00
H320   H     0.44387   0.75807   0.69397   0.00000  Uiso   1.00
H321   H     0.48127   0.74338   0.69601   0.00000  Uiso   1.00
H322   H     0.50272   0.83550   0.87904   0.00000  Uiso   1.00
O323   O     0.13133   0.97144   0.35045   0.00000  Uiso   1.00
O324   O     0.11281   0.93706   0.21459   0.00000  Uiso   1.00
O325   O     0.14847   0.93956   0.22367   0.00000  Uiso   1.00
O326   O     0.14935   0.91808   0.39561   0.00000  Uiso   1.00
P327   P     0.13387   0.93782   0.30323   0.00000  Uiso   1.00
C328   C     0.07058   0.91086   0.32217   0.00000  Uiso   1.00
C329   C     0.07819   0.87786   0.36391   0.00000  Uiso   1.00
C330   C     0.09830   0.86553   0.35952   0.00000  Uiso   1.00
C331   C     0.11069   0.88636   0.31395   0.00000  Uiso   1.00
C332   C     0.10242   0.91830   0.26983   0.00000  Uiso   1.00
C333   C     0.08303   0.93090   0.27722   0.00000  Uiso   1.00
C334   C     0.13033   0.87085   0.29773   0.00000  Uiso   1.00
C335   C     0.14906   0.88837   0.34052   0.00000  Uiso   1.00
C336   C     0.16818   0.87557   0.33061   0.00000  Uiso   1.00
C337   C     0.16945   0.84404   0.28179   0.00000  Uiso   1.00
C338   C     0.15094   0.82449   0.24345   0.00000  Uiso   1.00
C339   C     0.13132   0.83795   0.25200   0.00000  Uiso   1.00
C340   C     0.06623   0.85681   0.41055   0.00000  Uiso   1.00
C341   C     0.07349   0.82398   0.44921   0.00000  Uiso   1.00
C342   C     0.09283   0.81155   0.44219   0.00000  Uiso   1.00
C343   C     0.10518   0.83207   0.39830   0.00000  Uiso   1.00
C344   C     0.11322   0.81765   0.21650   0.00000  Uiso   1.00
C345   C     0.11433   0.78492   0.17327   0.00000  Uiso   1.00
C346   C     0.13341   0.77180   0.16441   0.00000  Uiso   1.00
C347   C     0.15157   0.79135   0.19931   0.00000  Uiso   1.00
Cl348  Cl    0.05823   0.79849   0.50738   0.00000  Uiso   1.00
Cl349  Cl    0.13465   0.73036   0.11045   0.00000  Uiso   1.00
H350   H     0.07745   0.95796   0.24588   0.00000  Uiso   1.00
H351   H     0.18309   0.89090   0.36263   0.00000  Uiso   1.00
H352   H     0.05039   0.86659   0.41702   0.00000  Uiso   1.00
H353   H     0.09863   0.78446   0.47245   0.00000  Uiso   1.00
H354   H     0.12101   0.82151   0.39397   0.00000  Uiso   1.00
H355   H     0.09748   0.82793   0.22297   0.00000  Uiso   1.00
H356   H     0.09958   0.76871   0.14492   0.00000  Uiso   1.00
H357   H     0.16704   0.78021   0.19176   0.00000  Uiso   1.00
O358   O     0.34262   0.77820   0.72980   0.00000  Uiso   1.00
O359   O     0.36215   0.79990   0.87338   0.00000  Uiso   1.00
O360   O     0.38091   0.75212   0.80981   0.00000  Uiso   1.00
O361   O     0.37657   0.78975   0.68236   0.00000  Uiso   1.00
P362   P     0.36808   0.78359   0.77844   0.00000  Uiso   1.00
C363   C     0.32741   0.87517   0.78621   0.00000  Uiso   1.00
C364   C     0.34019   0.89617   0.74280   0.00000  Uiso   1.00
C365   C     0.36029   0.88361   0.73897   0.00000  Uiso   1.00
C366   C     0.36741   0.85007   0.77804   0.00000  Uiso   1.00
C367   C     0.35476   0.83042   0.82405   0.00000  Uiso   1.00
C368   C     0.33478   0.84223   0.82466   0.00000  Uiso   1.00
C369   C     0.38958   0.83954   0.78596   0.00000  Uiso   1.00
C370   C     0.39290   0.80889   0.73644   0.00000  Uiso   1.00
C371   C     0.41303   0.79732   0.73838   0.00000  Uiso   1.00
C372   C     0.43049   0.81671   0.78574   0.00000  Uiso   1.00
C373   C     0.42756   0.84907   0.83085   0.00000  Uiso   1.00
C374   C     0.40698   0.86056   0.83042   0.00000  Uiso   1.00
C375   C     0.33337   0.92950   0.70251   0.00000  Uiso   1.00
C376   C     0.34617   0.95051   0.66224   0.00000  Uiso   1.00
C377   C     0.36601   0.93864   0.66129   0.00000  Uiso   1.00
C378   C     0.37301   0.90553   0.69875   0.00000  Uiso   1.00
C379   C     0.40431   0.89330   0.87262   0.00000  Uiso   1.00
C380   C     0.42146   0.91427   0.91460   0.00000  Uiso   1.00
C381   C     0.44155   0.90307   0.91556   0.00000  Uiso   1.00
C382   C     0.44459   0.87081   0.87393   0.00000  Uiso   1.00
Cl383  Cl    0.33712   0.99185   0.61212   0.00000  Uiso   1.00
Cl384  Cl    0.46305   0.92985   0.96802   0.00000  Uiso   1.00
H385   H     0.32448   0.82453   0.85718   0.00000  Uiso   1.00
H386   H     0.41541   0.77168   0.70094   0.00000  Uiso   1.00
H387   H     0.31718   0.93959   0.70259   0.00000  Uiso   1.00
H388   H     0.37661   0.95605   0.62974   0.00000  Uiso   1.00
H389   H     0.38923   0.89624   0.69660   0.00000  Uiso   1.00
H390   H     0.38802   0.90289   0.87266   0.00000  Uiso   1.00
H391   H     0.41910   0.94073   0.94842   0.00000  Uiso   1.00
H392   H     0.46110   0.86210   0.87506   0.00000  Uiso   1.00
H393   H     0.86043   0.95311   0.84138   0.00000  Uiso   1.00
H394   H     0.83361   0.29623   0.76474   0.00000  Uiso   1.00
C395   C     0.72622   0.29307   0.25658   0.00000  Uiso   1.00
C396   C     0.70653   0.28244   0.20194   0.00000  Uiso   1.00
C397   C     0.68844   0.29941   0.21185   0.00000  Uiso   1.00
C398   C     0.68956   0.32773   0.27562   0.00000  Uiso   1.00
C399   C     0.70915   0.33837   0.33053   0.00000  Uiso   1.00
C400   C     0.72734   0.32122   0.32139   0.00000  Uiso   1.00
C401   C     0.04194   0.91462   0.40839   0.00000  Uiso   1.00
C402   C     0.05016   0.92457   0.33249   0.00000  Uiso   1.00
C403   C     0.03789   0.94494   0.25889   0.00000  Uiso   1.00
C404   C     0.01789   0.95594   0.26208   0.00000  Uiso   1.00
C405   C     0.00981   0.94668   0.33924   0.00000  Uiso   1.00
C406   C     0.02202   0.92572   0.41193   0.00000  Uiso   1.00
C407   C     0.73290   0.92287   0.22285   0.00000  Uiso   1.00
C408   C     0.72126   0.93244   0.28723   0.00000  Uiso   1.00
C409   C     0.70196   0.91612   0.28310   0.00000  Uiso   1.00
C410   C     0.69393   0.88978   0.21512   0.00000  Uiso   1.00
C411   C     0.70586   0.87980   0.15254   0.00000  Uiso   1.00
C412   C     0.72505   0.89614   0.15604   0.00000  Uiso   1.00
C413   C     0.85757   0.23256   0.27655   0.00000  Uiso   1.00
C414   C     0.87804   0.23216   0.27439   0.00000  Uiso   1.00
C415   C     0.88388   0.19679   0.27626   0.00000  Uiso   1.00
N416   N     0.86759   0.17512   0.27898   0.00000  Uiso   1.00
C417   C     0.85149   0.19742   0.27956   0.00000  Uiso   1.00
C418   C     0.83153   0.18711   0.28520   0.00000  Uiso   1.00
C419   C     0.90428   0.18580   0.27908   0.00000  Uiso   1.00
C420   C     0.87687   0.01161   0.27560   0.00000  Uiso   1.00
C421   C     0.85636   0.01190   0.27655   0.00000  Uiso   1.00
C422   C     0.85064   0.04713   0.27960   0.00000  Uiso   1.00
N423   N     0.86700   0.06889   0.27973   0.00000  Uiso   1.00
C424   C     0.88309   0.04673   0.27790   0.00000  Uiso   1.00
C425   C     0.83070   0.05806   0.28415   0.00000  Uiso   1.00
C426   C     0.90358   0.05707   0.28037   0.00000  Uiso   1.00
C427   C     0.93120   0.13821   0.28187   0.00000  Uiso   1.00
C428   C     0.93103   0.10347   0.28294   0.00000  Uiso   1.00
C429   C     0.90984   0.09262   0.28241   0.00000  Uiso   1.00
N430   N     0.89759   0.12154   0.28168   0.00000  Uiso   1.00
C431   C     0.91009   0.14996   0.28117   0.00000  Uiso   1.00
C432   C     0.80430   0.10566   0.28651   0.00000  Uiso   1.00
C433   C     0.80448   0.14039   0.28625   0.00000  Uiso   1.00
C434   C     0.82564   0.15133   0.28584   0.00000  Uiso   1.00
N435   N     0.83793   0.12247   0.28538   0.00000  Uiso   1.00
C436   C     0.82528   0.09396   0.28614   0.00000  Uiso   1.00
Cu437  Cu    0.86793   0.12198   0.28344   0.00000  Uiso   1.00
C438   C     0.74514   0.27434   0.24464   0.00000  Uiso   1.00
N439   N     0.76288   0.27665   0.30797   0.00000  Uiso   1.00
C440   C     0.78135   0.25765   0.30236   0.00000  Uiso   1.00
C441   C     0.79341   0.24113   0.38369   0.00000  Uiso   1.00
C442   C     0.81039   0.21973   0.37891   0.00000  Uiso   1.00
C443   C     0.81572   0.21465   0.29264   0.00000  Uiso   1.00
C444   C     0.80444   0.23310   0.21220   0.00000  Uiso   1.00
C445   C     0.78760   0.25503   0.21764   0.00000  Uiso   1.00
C446   C     0.81428   0.03069   0.28547   0.00000  Uiso   1.00
C447   C     0.91995   0.02973   0.28101   0.00000  Uiso   1.00
C448   C     0.92104   0.21245   0.28034   0.00000  Uiso   1.00
C449   C     0.80408   0.01285   0.20228   0.00000  Uiso   1.00
C450   C     0.78713   0.99026   0.20073   0.00000  Uiso   1.00
C451   C     0.77990   0.98519   0.28274   0.00000  Uiso   1.00
C452   C     0.79031   0.00270   0.36601   0.00000  Uiso   1.00
C453   C     0.80743   0.02483   0.36774   0.00000  Uiso   1.00
C454   C     0.93411   0.02077   0.36637   0.00000  Uiso   1.00
C455   C     0.95226   0.00182   0.36685   0.00000  Uiso   1.00
C456   C     0.95680   0.99178   0.28134   0.00000  Uiso   1.00
C457   C     0.94244   0.00015   0.19611   0.00000  Uiso   1.00
C458   C     0.92410   0.01867   0.19581   0.00000  Uiso   1.00
C459   C     0.93698   0.21706   0.36312   0.00000  Uiso   1.00
C460   C     0.95567   0.23375   0.36002   0.00000  Uiso   1.00
C461   C     0.95866   0.24703   0.27472   0.00000  Uiso   1.00
C462   C     0.94217   0.24441   0.19263   0.00000  Uiso   1.00
C463   C     0.92356   0.22711   0.19542   0.00000  Uiso   1.00
C464   C     0.98385   0.28013   0.20999   0.00000  Uiso   1.00
N465   N     0.97916   0.25921   0.27259   0.00000  Uiso   1.00
C466   C     0.98910   0.95930   0.34701   0.00000  Uiso   1.00
N467   N     0.97652   0.97634   0.27832   0.00000  Uiso   1.00
C468   C     0.75279   0.94086   0.22054   0.00000  Uiso   1.00
N469   N     0.76145   0.96472   0.28277   0.00000  Uiso   1.00
C470   C     0.03120   0.32636   0.16319   0.00000  Uiso   1.00
C471   C     0.04762   0.30503   0.21417   0.00000  Uiso   1.00
C472   C     0.04302   0.27560   0.26429   0.00000  Uiso   1.00
C473   C     0.02233   0.26748   0.26355   0.00000  Uiso   1.00
C474   C     0.00586   0.28886   0.21319   0.00000  Uiso   1.00
C475   C     0.01051   0.31822   0.16267   0.00000  Uiso   1.00
H476   H     0.70522   0.25978   0.14901   0.00000  Uiso   1.00
H477   H     0.67258   0.29031   0.16794   0.00000  Uiso   1.00
H478   H     0.71040   0.36113   0.38311   0.00000  Uiso   1.00
H479   H     0.74309   0.33018   0.36678   0.00000  Uiso   1.00
H480   H     0.05149   0.89739   0.46768   0.00000  Uiso   1.00
H481   H     0.04415   0.95268   0.19580   0.00000  Uiso   1.00
H482   H     0.00807   0.97249   0.20195   0.00000  Uiso   1.00
H483   H     0.01553   0.91779   0.47423   0.00000  Uiso   1.00
H484   H     0.72742   0.95353   0.34320   0.00000  Uiso   1.00
H485   H     0.69255   0.92413   0.33525   0.00000  Uiso   1.00
H486   H     0.70000   0.85814   0.09784   0.00000  Uiso   1.00
H487   H     0.73431   0.88750   0.10383   0.00000  Uiso   1.00
H488   H     0.84910   0.25893   0.27569   0.00000  Uiso   1.00
H489   H     0.88663   0.25820   0.27163   0.00000  Uiso   1.00
H490   H     0.88520   0.98528   0.27329   0.00000  Uiso   1.00
H491   H     0.84756   0.98581   0.27488   0.00000  Uiso   1.00
H492   H     0.94616   0.15304   0.28166   0.00000  Uiso   1.00
H493   H     0.94586   0.08803   0.28402   0.00000  Uiso   1.00
H494   H     0.78937   0.09078   0.28694   0.00000  Uiso   1.00
H495   H     0.78970   0.15579   0.28637   0.00000  Uiso   1.00
H496   H     0.74390   0.25768   0.17832   0.00000  Uiso   1.00
H497   H     0.78945   0.24506   0.45455   0.00000  Uiso   1.00
H498   H     0.82002   0.20625   0.44539   0.00000  Uiso   1.00
H499   H     0.80893   0.23031   0.14218   0.00000  Uiso   1.00
H500   H     0.77902   0.27071   0.15284   0.00000  Uiso   1.00
H501   H     0.80952   0.01660   0.13485   0.00000  Uiso   1.00
H502   H     0.77910   0.97585   0.13279   0.00000  Uiso   1.00
H503   H     0.78489   0.99905   0.43354   0.00000  Uiso   1.00
H504   H     0.81580   0.03810   0.43692   0.00000  Uiso   1.00
H505   H     0.93090   0.02894   0.43649   0.00000  Uiso   1.00
H506   H     0.96350   0.99439   0.43681   0.00000  Uiso   1.00
H507   H     0.94561   0.99189   0.12597   0.00000  Uiso   1.00
H508   H     0.91251   0.02472   0.12569   0.00000  Uiso   1.00
H509   H     0.93478   0.20720   0.43374   0.00000  Uiso   1.00
H510   H     0.96866   0.23666   0.42735   0.00000  Uiso   1.00
H511   H     0.94387   0.25638   0.12330   0.00000  Uiso   1.00
H512   H     0.91046   0.22502   0.12823   0.00000  Uiso   1.00
H513   H     0.97097   0.29210   0.15147   0.00000  Uiso   1.00
H514   H     0.98430   0.95373   0.41530   0.00000  Uiso   1.00
H515   H     0.76045   0.93310   0.16175   0.00000  Uiso   1.00
H516   H     0.03465   0.35037   0.12206   0.00000  Uiso   1.00
H517   H     0.05613   0.25807   0.30603   0.00000  Uiso   1.00
H518   H     0.01873   0.24338   0.30399   0.00000  Uiso   1.00
H519   H     0.99728   0.33550   0.12096   0.00000  Uiso   1.00
O520   O     0.36867   0.47144   0.64955   0.00000  Uiso   1.00
O521   O     0.38719   0.43706   0.78541   0.00000  Uiso   1.00
O522   O     0.35153   0.43956   0.77633   0.00000  Uiso   1.00
O523   O     0.35065   0.41808   0.60439   0.00000  Uiso   1.00
P524   P     0.36613   0.43782   0.69677   0.00000  Uiso   1.00
C525   C     0.42942   0.41086   0.67783   0.00000  Uiso   1.00
C526   C     0.42181   0.37786   0.63609   0.00000  Uiso   1.00
C527   C     0.40170   0.36553   0.64048   0.00000  Uiso   1.00
C528   C     0.38931   0.38636   0.68605   0.00000  Uiso   1.00
C529   C     0.39758   0.41830   0.73017   0.00000  Uiso   1.00
C530   C     0.41697   0.43090   0.72278   0.00000  Uiso   1.00
C531   C     0.36967   0.37085   0.70227   0.00000  Uiso   1.00
C532   C     0.35094   0.38837   0.65948   0.00000  Uiso   1.00
C533   C     0.33182   0.37557   0.66939   0.00000  Uiso   1.00
C534   C     0.33055   0.34404   0.71821   0.00000  Uiso   1.00
C535   C     0.34906   0.32449   0.75655   0.00000  Uiso   1.00
C536   C     0.36868   0.33795   0.74800   0.00000  Uiso   1.00
C537   C     0.43377   0.35681   0.58945   0.00000  Uiso   1.00
C538   C     0.42651   0.32398   0.55079   0.00000  Uiso   1.00
C539   C     0.40717   0.31155   0.55781   0.00000  Uiso   1.00
C540   C     0.39482   0.33207   0.60170   0.00000  Uiso   1.00
C541   C     0.38678   0.31765   0.78350   0.00000  Uiso   1.00
C542   C     0.38567   0.28492   0.82673   0.00000  Uiso   1.00
C543   C     0.36659   0.27180   0.83559   0.00000  Uiso   1.00
C544   C     0.34843   0.29135   0.80069   0.00000  Uiso   1.00
Cl545  Cl    0.44177   0.29849   0.49262   0.00000  Uiso   1.00
Cl546  Cl    0.36535   0.23036   0.88955   0.00000  Uiso   1.00
H547   H     0.42255   0.45796   0.75412   0.00000  Uiso   1.00
H548   H     0.31691   0.39090   0.63737   0.00000  Uiso   1.00
H549   H     0.44961   0.36659   0.58298   0.00000  Uiso   1.00
H550   H     0.40137   0.28446   0.52755   0.00000  Uiso   1.00
H551   H     0.37899   0.32151   0.60603   0.00000  Uiso   1.00
H552   H     0.40252   0.32793   0.77703   0.00000  Uiso   1.00
H553   H     0.40042   0.26871   0.85508   0.00000  Uiso   1.00
H554   H     0.33296   0.28021   0.80824   0.00000  Uiso   1.00
O555   O     0.15738   0.27820   0.27020   0.00000  Uiso   1.00
O556   O     0.13785   0.29990   0.12662   0.00000  Uiso   1.00
O557   O     0.11909   0.25212   0.19019   0.00000  Uiso   1.00
O558   O     0.12343   0.28975   0.31764   0.00000  Uiso   1.00
P559   P     0.13192   0.28359   0.22156   0.00000  Uiso   1.00
C560   C     0.17259   0.37517   0.21379   0.00000  Uiso   1.00
C561   C     0.15981   0.39617   0.25720   0.00000  Uiso   1.00
C562   C     0.13971   0.38361   0.26103   0.00000  Uiso   1.00
C563   C     0.13259   0.35007   0.22196   0.00000  Uiso   1.00
C564   C     0.14524   0.33042   0.17595   0.00000  Uiso   1.00
C565   C     0.16522   0.34223   0.17534   0.00000  Uiso   1.00
C566   C     0.11042   0.33954   0.21404   0.00000  Uiso   1.00
C567   C     0.10710   0.30889   0.26356   0.00000  Uiso   1.00
C568   C     0.08697   0.29732   0.26162   0.00000  Uiso   1.00
C569   C     0.06951   0.31671   0.21426   0.00000  Uiso   1.00
C570   C     0.07244   0.34907   0.16915   0.00000  Uiso   1.00
C571   C     0.09302   0.36056   0.16958   0.00000  Uiso   1.00
C572   C     0.16663   0.42950   0.29749   0.00000  Uiso   1.00
C573   C     0.15383   0.45051   0.33776   0.00000  Uiso   1.00
C574   C     0.13399   0.43864   0.33871   0.00000  Uiso   1.00
C575   C     0.12699   0.40553   0.30125   0.00000  Uiso   1.00
C576   C     0.09569   0.39330   0.12738   0.00000  Uiso   1.00
C577   C     0.07854   0.41427   0.08540   0.00000  Uiso   1.00
C578   C     0.05845   0.40307   0.08444   0.00000  Uiso   1.00
C579   C     0.05541   0.37081   0.12607   0.00000  Uiso   1.00
Cl580  Cl    0.16288   0.49185   0.38788   0.00000  Uiso   1.00
Cl581  Cl    0.03695   0.42985   0.03198   0.00000  Uiso   1.00
H582   H     0.17552   0.32453   0.14282   0.00000  Uiso   1.00
H583   H     0.08459   0.27168   0.29906   0.00000  Uiso   1.00
H584   H     0.18282   0.43959   0.29741   0.00000  Uiso   1.00
H585   H     0.12339   0.45605   0.37026   0.00000  Uiso   1.00
H586   H     0.11077   0.39624   0.30340   0.00000  Uiso   1.00
H587   H     0.11198   0.40289   0.12734   0.00000  Uiso   1.00
H588   H     0.08090   0.44073   0.05158   0.00000  Uiso   1.00
H589   H     0.03890   0.36210   0.12494   0.00000  Uiso   1.00
H590   H     0.63957   0.45311   0.15862   0.00000  Uiso   1.00
H591   H     0.66639   0.79623   0.23526   0.00000  Uiso   1.00
C592   C     0.22622   0.79307   0.25658   0.00000  Uiso   1.00
C593   C     0.20653   0.78244   0.20194   0.00000  Uiso   1.00
C594   C     0.18844   0.79941   0.21185   0.00000  Uiso   1.00
C595   C     0.18956   0.82773   0.27562   0.00000  Uiso   1.00
C596   C     0.20915   0.83837   0.33053   0.00000  Uiso   1.00
C597   C     0.22734   0.82122   0.32139   0.00000  Uiso   1.00
C598   C     0.54194   0.41462   0.40839   0.00000  Uiso   1.00
C599   C     0.55016   0.42457   0.33249   0.00000  Uiso   1.00
C600   C     0.53789   0.44494   0.25889   0.00000  Uiso   1.00
C601   C     0.51789   0.45594   0.26208   0.00000  Uiso   1.00
C602   C     0.50981   0.44668   0.33924   0.00000  Uiso   1.00
C603   C     0.52202   0.42572   0.41193   0.00000  Uiso   1.00
C604   C     0.23290   0.42287   0.22285   0.00000  Uiso   1.00
C605   C     0.22126   0.43244   0.28723   0.00000  Uiso   1.00
C606   C     0.20196   0.41612   0.28310   0.00000  Uiso   1.00
C607   C     0.19393   0.38978   0.21512   0.00000  Uiso   1.00
C608   C     0.20586   0.37980   0.15254   0.00000  Uiso   1.00
C609   C     0.22505   0.39614   0.15604   0.00000  Uiso   1.00
C610   C     0.35757   0.73256   0.27655   0.00000  Uiso   1.00
C611   C     0.37804   0.73216   0.27439   0.00000  Uiso   1.00
C612   C     0.38388   0.69679   0.27626   0.00000  Uiso   1.00
N613   N     0.36759   0.67512   0.27898   0.00000  Uiso   1.00
C614   C     0.35149   0.69742   0.27956   0.00000  Uiso   1.00
C615   C     0.33153   0.68711   0.28520   0.00000  Uiso   1.00
C616   C     0.40428   0.68580   0.27908   0.00000  Uiso   1.00
C617   C     0.37687   0.51161   0.27560   0.00000  Uiso   1.00
C618   C     0.35636   0.51190   0.27655   0.00000  Uiso   1.00
C619   C     0.35064   0.54713   0.27960   0.00000  Uiso   1.00
N620   N     0.36700   0.56889   0.27973   0.00000  Uiso   1.00
C621   C     0.38309   0.54673   0.27790   0.00000  Uiso   1.00
C622   C     0.33070   0.55806   0.28415   0.00000  Uiso   1.00
C623   C     0.40358   0.55707   0.28037   0.00000  Uiso   1.00
C624   C     0.43120   0.63821   0.28187   0.00000  Uiso   1.00
C625   C     0.43103   0.60347   0.28294   0.00000  Uiso   1.00
C626   C     0.40984   0.59262   0.28241   0.00000  Uiso   1.00
N627   N     0.39759   0.62154   0.28168   0.00000  Uiso   1.00
C628   C     0.41009   0.64996   0.28117   0.00000  Uiso   1.00
C629   C     0.30430   0.60566   0.28651   0.00000  Uiso   1.00
C630   C     0.30448   0.64039   0.28625   0.00000  Uiso   1.00
C631   C     0.32564   0.65133   0.28584   0.00000  Uiso   1.00
N632   N     0.33793   0.62247   0.28538   0.00000  Uiso   1.00
C633   C     0.32528   0.59396   0.28614   0.00000  Uiso   1.00
Cu634  Cu    0.36793   0.62198   0.28344   0.00000  Uiso   1.00
C635   C     0.24514   0.77434   0.24464   0.00000  Uiso   1.00
N636   N     0.26288   0.77665   0.30797   0.00000  Uiso   1.00
C637   C     0.28135   0.75765   0.30236   0.00000  Uiso   1.00
C638   C     0.29341   0.74113   0.38369   0.00000  Uiso   1.00
C639   C     0.31039   0.71973   0.37891   0.00000  Uiso   1.00
C640   C     0.31572   0.71465   0.29264   0.00000  Uiso   1.00
C641   C     0.30444   0.73310   0.21220   0.00000  Uiso   1.00
C642   C     0.28760   0.75503   0.21764   0.00000  Uiso   1.00
C643   C     0.31428   0.53069   0.28547   0.00000  Uiso   1.00
C644   C     0.41995   0.52973   0.28101   0.00000  Uiso   1.00
C645   C     0.42104   0.71245   0.28034   0.00000  Uiso   1.00
C646   C     0.30408   0.51285   0.20228   0.00000  Uiso   1.00
C647   C     0.28713   0.49026   0.20073   0.00000  Uiso   1.00
C648   C     0.27990   0.48519   0.28274   0.00000  Uiso   1.00
C649   C     0.29031   0.50270   0.36601   0.00000  Uiso   1.00
C650   C     0.30743   0.52483   0.36774   0.00000  Uiso   1.00
C651   C     0.43411   0.52077   0.36637   0.00000  Uiso   1.00
C652   C     0.45226   0.50182   0.36685   0.00000  Uiso   1.00
C653   C     0.45680   0.49178   0.28134   0.00000  Uiso   1.00
C654   C     0.44244   0.50015   0.19611   0.00000  Uiso   1.00
C655   C     0.42410   0.51867   0.19581   0.00000  Uiso   1.00
C656   C     0.43698   0.71706   0.36312   0.00000  Uiso   1.00
C657   C     0.45567   0.73375   0.36002   0.00000  Uiso   1.00
C658   C     0.45866   0.74703   0.27472   0.00000  Uiso   1.00
C659   C     0.44217   0.74441   0.19263   0.00000  Uiso   1.00
C660   C     0.42356   0.72711   0.19542   0.00000  Uiso   1.00
C661   C     0.48385   0.78013   0.20999   0.00000  Uiso   1.00
N662   N     0.47916   0.75921   0.27259   0.00000  Uiso   1.00
C663   C     0.48910   0.45930   0.34701   0.00000  Uiso   1.00
N664   N     0.47652   0.47634   0.27832   0.00000  Uiso   1.00
C665   C     0.25279   0.44086   0.22054   0.00000  Uiso   1.00
N666   N     0.26145   0.46472   0.28277   0.00000  Uiso   1.00
C667   C     0.53120   0.82636   0.16319   0.00000  Uiso   1.00
C668   C     0.54762   0.80503   0.21417   0.00000  Uiso   1.00
C669   C     0.54302   0.77560   0.26429   0.00000  Uiso   1.00
C670   C     0.52233   0.76748   0.26355   0.00000  Uiso   1.00
C671   C     0.50586   0.78886   0.21319   0.00000  Uiso   1.00
C672   C     0.51051   0.81822   0.16267   0.00000  Uiso   1.00
H673   H     0.20522   0.75978   0.14901   0.00000  Uiso   1.00
H674   H     0.17258   0.79031   0.16794   0.00000  Uiso   1.00
H675   H     0.21040   0.86113   0.38311   0.00000  Uiso   1.00
H676   H     0.24309   0.83018   0.36678   0.00000  Uiso   1.00
H677   H     0.55149   0.39739   0.46768   0.00000  Uiso   1.00
H678   H     0.54415   0.45268   0.19580   0.00000  Uiso   1.00
H679   H     0.50807   0.47249   0.20195   0.00000  Uiso   1.00
H680   H     0.51553   0.41779   0.47423   0.00000  Uiso   1.00
H681   H     0.22742   0.45353   0.34320   0.00000  Uiso   1.00
H682   H     0.19255   0.42413   0.33525   0.00000  Uiso   1.00
H683   H     0.20000   0.35814   0.09784   0.00000  Uiso   1.00
H684   H     0.23431   0.38750   0.10383   0.00000  Uiso   1.00
H685   H     0.34910   0.75893   0.27569   0.00000  Uiso   1.00
H686   H     0.38663   0.75820   0.27163   0.00000  Uiso   1.00
H687   H     0.38520   0.48528   0.27329   0.00000  Uiso   1.00
H688   H     0.34756   0.48581   0.27488   0.00000  Uiso   1.00
H689   H     0.44616   0.65304   0.28166   0.00000  Uiso   1.00
H690   H     0.44586   0.58803   0.28402   0.00000  Uiso   1.00
H691   H     0.28937   0.59078   0.28694   0.00000  Uiso   1.00
H692   H     0.28970   0.65579   0.28637   0.00000  Uiso   1.00
H693   H     0.24390   0.75768   0.17832   0.00000  Uiso   1.00
H694   H     0.28945   0.74506   0.45455   0.00000  Uiso   1.00
H695   H     0.32002   0.70625   0.44539   0.00000  Uiso   1.00
H696   H     0.30893   0.73031   0.14218   0.00000  Uiso   1.00
H697   H     0.27902   0.77071   0.15284   0.00000  Uiso   1.00
H698   H     0.30952   0.51660   0.13485   0.00000  Uiso   1.00
H699   H     0.27910   0.47585   0.13279   0.00000  Uiso   1.00
H700   H     0.28489   0.49905   0.43354   0.00000  Uiso   1.00
H701   H     0.31580   0.53810   0.43692   0.00000  Uiso   1.00
H702   H     0.43090   0.52894   0.43649   0.00000  Uiso   1.00
H703   H     0.46350   0.49439   0.43681   0.00000  Uiso   1.00
H704   H     0.44561   0.49189   0.12597   0.00000  Uiso   1.00
H705   H     0.41251   0.52472   0.12569   0.00000  Uiso   1.00
H706   H     0.43478   0.70720   0.43374   0.00000  Uiso   1.00
H707   H     0.46866   0.73666   0.42735   0.00000  Uiso   1.00
H708   H     0.44387   0.75638   0.12330   0.00000  Uiso   1.00
H709   H     0.41046   0.72502   0.12823   0.00000  Uiso   1.00
H710   H     0.47097   0.79210   0.15147   0.00000  Uiso   1.00
H711   H     0.48430   0.45373   0.41530   0.00000  Uiso   1.00
H712   H     0.26045   0.43310   0.16175   0.00000  Uiso   1.00
H713   H     0.53465   0.85037   0.12206   0.00000  Uiso   1.00
H714   H     0.55613   0.75807   0.30603   0.00000  Uiso   1.00
H715   H     0.51873   0.74338   0.30399   0.00000  Uiso   1.00
H716   H     0.49728   0.83550   0.12096   0.00000  Uiso   1.00
O717   O     0.86867   0.97144   0.64955   0.00000  Uiso   1.00
O718   O     0.88719   0.93706   0.78541   0.00000  Uiso   1.00
O719   O     0.85153   0.93956   0.77633   0.00000  Uiso   1.00
O720   O     0.85065   0.91808   0.60439   0.00000  Uiso   1.00
P721   P     0.86613   0.93782   0.69677   0.00000  Uiso   1.00
C722   C     0.92942   0.91086   0.67783   0.00000  Uiso   1.00
C723   C     0.92181   0.87786   0.63609   0.00000  Uiso   1.00
C724   C     0.90170   0.86553   0.64048   0.00000  Uiso   1.00
C725   C     0.88931   0.88636   0.68605   0.00000  Uiso   1.00
C726   C     0.89758   0.91830   0.73017   0.00000  Uiso   1.00
C727   C     0.91697   0.93090   0.72278   0.00000  Uiso   1.00
C728   C     0.86967   0.87085   0.70227   0.00000  Uiso   1.00
C729   C     0.85094   0.88837   0.65948   0.00000  Uiso   1.00
C730   C     0.83182   0.87557   0.66939   0.00000  Uiso   1.00
C731   C     0.83055   0.84404   0.71821   0.00000  Uiso   1.00
C732   C     0.84906   0.82449   0.75655   0.00000  Uiso   1.00
C733   C     0.86868   0.83795   0.74800   0.00000  Uiso   1.00
C734   C     0.93377   0.85681   0.58945   0.00000  Uiso   1.00
C735   C     0.92651   0.82398   0.55079   0.00000  Uiso   1.00
C736   C     0.90717   0.81155   0.55781   0.00000  Uiso   1.00
C737   C     0.89482   0.83207   0.60170   0.00000  Uiso   1.00
C738   C     0.88678   0.81765   0.78350   0.00000  Uiso   1.00
C739   C     0.88567   0.78492   0.82673   0.00000  Uiso   1.00
C740   C     0.86659   0.77180   0.83559   0.00000  Uiso   1.00
C741   C     0.84843   0.79135   0.80069   0.00000  Uiso   1.00
Cl742  Cl    0.94177   0.79849   0.49262   0.00000  Uiso   1.00
Cl743  Cl    0.86535   0.73036   0.88955   0.00000  Uiso   1.00
H744   H     0.92255   0.95796   0.75412   0.00000  Uiso   1.00
H745   H     0.81691   0.89090   0.63737   0.00000  Uiso   1.00
H746   H     0.94961   0.86659   0.58298   0.00000  Uiso   1.00
H747   H     0.90137   0.78446   0.52755   0.00000  Uiso   1.00
H748   H     0.87899   0.82151   0.60603   0.00000  Uiso   1.00
H749   H     0.90252   0.82793   0.77703   0.00000  Uiso   1.00
H750   H     0.90042   0.76871   0.85508   0.00000  Uiso   1.00
H751   H     0.83296   0.78021   0.80824   0.00000  Uiso   1.00
O752   O     0.65738   0.77820   0.27020   0.00000  Uiso   1.00
O753   O     0.63785   0.79990   0.12662   0.00000  Uiso   1.00
O754   O     0.61909   0.75212   0.19019   0.00000  Uiso   1.00
O755   O     0.62343   0.78975   0.31764   0.00000  Uiso   1.00
P756   P     0.63192   0.78359   0.22156   0.00000  Uiso   1.00
C757   C     0.67259   0.87517   0.21379   0.00000  Uiso   1.00
C758   C     0.65981   0.89617   0.25720   0.00000  Uiso   1.00
C759   C     0.63971   0.88361   0.26103   0.00000  Uiso   1.00
C760   C     0.63259   0.85007   0.22196   0.00000  Uiso   1.00
C761   C     0.64524   0.83042   0.17595   0.00000  Uiso   1.00
C762   C     0.66522   0.84223   0.17534   0.00000  Uiso   1.00
C763   C     0.61042   0.83954   0.21404   0.00000  Uiso   1.00
C764   C     0.60710   0.80889   0.26356   0.00000  Uiso   1.00
C765   C     0.58697   0.79732   0.26162   0.00000  Uiso   1.00
C766   C     0.56951   0.81671   0.21426   0.00000  Uiso   1.00
C767   C     0.57244   0.84907   0.16915   0.00000  Uiso   1.00
C768   C     0.59302   0.86056   0.16958   0.00000  Uiso   1.00
C769   C     0.66663   0.92950   0.29749   0.00000  Uiso   1.00
C770   C     0.65383   0.95051   0.33776   0.00000  Uiso   1.00
C771   C     0.63399   0.93864   0.33871   0.00000  Uiso   1.00
C772   C     0.62699   0.90553   0.30125   0.00000  Uiso   1.00
C773   C     0.59569   0.89330   0.12738   0.00000  Uiso   1.00
C774   C     0.57854   0.91427   0.08540   0.00000  Uiso   1.00
C775   C     0.55845   0.90307   0.08444   0.00000  Uiso   1.00
C776   C     0.55541   0.87081   0.12607   0.00000  Uiso   1.00
Cl777  Cl    0.66288   0.99185   0.38788   0.00000  Uiso   1.00
Cl778  Cl    0.53695   0.92985   0.03198   0.00000  Uiso   1.00
H779   H     0.67552   0.82453   0.14282   0.00000  Uiso   1.00
H780   H     0.58459   0.77168   0.29906   0.00000  Uiso   1.00
H781   H     0.68282   0.93959   0.29741   0.00000  Uiso   1.00
H782   H     0.62339   0.95605   0.37026   0.00000  Uiso   1.00
H783   H     0.61077   0.89624   0.30340   0.00000  Uiso   1.00
H784   H     0.61198   0.90289   0.12734   0.00000  Uiso   1.00
H785   H     0.58090   0.94073   0.05158   0.00000  Uiso   1.00
H786   H     0.53890   0.86210   0.12494   0.00000  Uiso   1.00
H787   H     0.13957   0.95311   0.15862   0.00000  Uiso   1.00
H788   H     0.16639   0.29623   0.23526   0.00000  Uiso   1.00
loop_
_geom_bond_atom_site_label_1
_geom_bond_atom_site_label_2
_geom_bond_distance
_geom_bond_site_symmetry_2
_ccdc_geom_bond_type
C1     C2      1.408   .     S
C1     C6      1.411   .     D
C1     C44     1.488   .     S
C2     C3      1.399   .     D
C2     H82     1.140   .     S
C3     C4      1.406   .     S
C3     H83     1.140   .     S
C4     C5      1.405   .     D
C4     C534    1.492   .     S
C5     C6      1.405   .     S
C5     H84     1.140   .     S
C6     H85     1.140   .     S
C7     C8      1.404   .     S
C7     C12     1.400   .     D
C7     H86     1.139   .     S
C8     C9      1.403   .     S
C8     C722    1.493   .     D
C9     C10     1.403   .     D
C9     H87     1.140   .     S
C10    C11     1.408   .     S
C10    H88     1.139   .     S
C11    C12     1.406   .     S
C11    C72     1.485   1_655 D
C12    H89     1.140   .     S
C13    C14     1.406   .     S
C13    C18     1.408   .     S
C13    C74     1.492   .     D
C14    C15     1.408   .     D
C14    H90     1.140   .     S
C15    C16     1.410   .     S
C15    H91     1.140   .     S
C16    C17     1.402   .     S
C16    C363    1.515   .     D
C17    C18     1.404   .     D
C17    H92     1.140   .     S
C18    H93     1.140   .     S
C19    C20     1.367   .     D
C19    C23     1.387   .     S
C19    H94     1.139   .     S
C20    C21     1.385   .     S
C20    H95     1.140   .     S
C21    N22     1.363   .     S
C21    C25     1.407   .     D
N22    C23     1.361   .     D
N22    Cu43    2.002   .     S
C23    C24     1.403   .     S
C24    C40     1.403   .     D
C24    C49     1.498   .     S
C25    C37     1.402   .     S
C25    C54     1.495   .     S
C26    C27     1.365   .     S
C26    C30     1.383   .     D
C26    H96     1.140   1_545 S
C27    C28     1.383   .     D
C27    H97     1.140   1_545 S
C28    N29     1.360   .     S
C28    C31     1.403   .     S
N29    C30     1.361   .     S
N29    Cu43    2.000   .     S
C30    C32     1.406   .     S
C31    C42     1.401   .     S
C31    C52     1.504   .     D
C32    C35     1.400   .     S
C32    C53     1.495   .     D
C33    C34     1.308   .     S
C33    C37     1.467   .     D
C33    H98     1.140   .     S
C34    C35     1.463   .     D
C34    H99     1.140   .     S
C35    N36     1.357   .     S
N36    C37     1.355   .     S
N36    Cu43    1.975   .     S
C38    C39     1.308   .     D
C38    C42     1.462   .     S
C38    H100    1.140   .     S
C39    C40     1.465   .     S
C39    H101    1.140   .     S
C40    N41     1.360   .     S
N41    C42     1.365   .     D
N41    Cu43    1.999   .     S
C44    N45     1.306   .     D
C44    H102    1.140   .     S
N45    C46     1.439   .     S
C46    C47     1.401   .     S
C46    C51     1.404   .     D
C47    C48     1.401   .     D
C47    H103    1.140   .     S
C48    C49     1.405   .     S
C48    H104    1.140   .     S
C49    C50     1.408   .     D
C50    C51     1.408   .     S
C50    H105    1.140   .     S
C51    H106    1.140   .     S
C52    C55     1.405   .     S
C52    C59     1.405   .     S
C53    C60     1.402   .     S
C53    C64     1.404   .     S
C54    C65     1.404   .     D
C54    C69     1.406   .     S
C55    H107    1.140   .     S
C55    C56     1.406   1_545 D
C56    C57     1.411   .     S
C56    H108    1.140   .     S
C56    C55     1.406   1_565 D
C57    N75     1.447   .     D
C57    C58     1.404   1_565 S
C58    C59     1.404   .     D
C58    C57     1.404   1_545 S
C58    H109    1.140   1_545 S
C59    H110    1.140   .     S
C60    C61     1.399   .     D
C60    H111    1.140   .     S
C61    C62     1.408   1_545 S
C61    H112    1.139   1_545 S
C62    N73     1.443   .     D
C62    C61     1.408   1_565 S
C62    C63     1.401   1_565 S
C63    C64     1.402   .     D
C63    C62     1.401   1_545 S
C63    H113    1.140   1_545 S
C64    H114    1.140   .     S
C65    C66     1.402   .     S
C65    H115    1.140   .     S
C66    C67     1.402   .     D
C66    H116    1.139   .     S
C67    C68     1.410   .     S
C67    N71     1.444   .     S
C68    C69     1.406   .     D
C68    H117    1.140   .     S
C69    H118    1.140   .     S
C70    N71     1.302   .     D
C70    H119    1.140   .     S
C70    C80     1.487   1_455 S
C72    N73     1.302   .     S
C72    H120    1.140   .     S
C72    C11     1.485   1_455 D
C74    N75     1.305   .     S
C74    H121    1.140   .     S
C76    C77     1.408   .     S
C76    C81     1.405   .     D
C76    H122    1.140   .     S
C77    C78     1.403   .     D
C77    C175    1.518   .     S
C78    C79     1.404   .     S
C78    H123    1.140   .     S
C79    C80     1.408   .     D
C79    H124    1.140   .     S
C80    C81     1.406   .     S
C80    C70     1.487   1_655 S
C81    H125    1.139   1_655 S
H83    H554    0.682   .     S
H96    C26     1.140   1_565 S
H97    C27     1.140   1_565 S
H109   C58     1.140   1_565 S
H112   C61     1.139   1_565 S
H113   C63     1.140   1_565 S
H122   H195    0.520   .     S
H125   C81     1.139   1_455 S
O126   P130    1.471   .     S
O127   P130    1.651   .     S
O127   C135    1.380   .     S
O128   P130    1.691   .     S
O128   H590    1.110   .     S
O129   P130    1.654   .     S
O129   C138    1.375   .     S
P130   C138    2.122   .     S
C131   C132    1.420   .     S
C131   C136    1.398   .     S
C131   C599    1.493   .     D
C132   C133    1.430   .     S
C132   C143    1.412   .     D
C133   C134    1.417   .     S
C133   C146    1.410   .     D
C134   C135    1.409   .     S
C134   C137    1.501   .     D
C135   C136    1.401   .     D
C136   H153    1.140   .     S
C137   C138    1.408   .     S
C137   C142    1.417   .     S
C138   C139    1.399   .     S
C139   C140    1.398   .     D
C139   H154    1.140   .     S
C140   C141    1.421   .     S
C140   C398    1.492   .     S
C141   C142    1.432   .     D
C141   C150    1.410   .     S
C142   C147    1.409   .     S
C143   C144    1.394   .     S
C143   H155    1.140   .     S
C144   C145    1.394   .     D
C144   Cl151   1.761   .     S
C145   C146    1.394   .     S
C145   H156    1.140   .     S
C146   H157    1.140   .     S
C147   C148    1.395   .     D
C147   H158    1.140   .     S
C148   C149    1.395   .     S
C148   H159    1.140   .     S
C149   C150    1.395   .     D
C149   Cl152   1.759   .     S
C150   H160    1.140   .     S
H160   H477    0.682   .     S
O161   P165    1.674   .     S
O161   H394    1.110   .     S
O162   P165    1.652   .     S
O162   C170    1.380   .     S
O163   P165    1.464   .     S
O164   P165    1.655   .     S
O164   C173    1.375   .     S
P165   C173    2.122   .     S
C166   C167    1.420   .     S
C166   C171    1.398   .     S
C166   C213    1.515   .     D
C167   C168    1.430   .     S
C167   C178    1.412   .     D
C168   C169    1.417   .     S
C168   C181    1.410   .     D
C169   C170    1.410   .     S
C169   C172    1.500   .     D
C170   C171    1.401   .     D
C171   H188    1.140   .     S
C172   C173    1.408   .     S
C172   C177    1.417   .     S
C173   C174    1.399   .     S
C174   C175    1.398   .     D
C174   H189    1.140   .     S
C175   C176    1.422   .     S
C176   C177    1.431   .     D
C176   C185    1.410   .     S
C177   C182    1.409   .     S
C178   C179    1.394   .     S
C178   H190    1.140   .     S
C179   C180    1.394   .     D
C179   Cl186   1.760   .     S
C180   C181    1.394   .     S
C180   H191    1.140   .     S
C181   H192    1.140   .     S
C182   C183    1.395   .     D
C182   H193    1.140   .     S
C183   C184    1.395   .     S
C183   H194    1.140   .     S
C184   C185    1.395   .     D
C184   Cl187   1.759   .     S
C185   H195    1.140   .     S
H196   O522    1.110   .     S
H197   O358    1.110   .     S
C198   C199    1.408   .     S
C198   C203    1.411   .     D
C198   C241    1.488   .     S
C199   C200    1.399   .     D
C199   H279    1.140   .     S
C200   C201    1.406   .     S
C200   H280    1.140   .     S
C201   C202    1.405   .     D
C201   C731    1.492   .     S
C202   C203    1.405   .     S
C202   H281    1.140   .     S
C203   H282    1.140   .     S
C204   C205    1.404   .     S
C204   C209    1.400   .     D
C204   H283    1.139   .     S
C205   C206    1.403   .     S
C205   C525    1.493   .     D
C206   C207    1.403   .     D
C206   H284    1.140   .     S
C207   C208    1.408   .     S
C207   H285    1.139   .     S
C208   C209    1.406   .     S
C208   C269    1.485   .     D
C209   H286    1.140   .     S
C210   C211    1.406   .     S
C210   C215    1.408   .     S
C210   C271    1.492   .     D
C211   C212    1.408   .     D
C211   H287    1.140   .     S
C212   C213    1.410   .     S
C212   H288    1.140   .     S
C213   C214    1.402   .     S
C214   C215    1.404   .     D
C214   H289    1.140   .     S
C215   H290    1.140   .     S
C216   C217    1.367   .     D
C216   C220    1.387   .     S
C216   H291    1.139   .     S
C217   C218    1.385   .     S
C217   H292    1.140   .     S
C218   N219    1.363   .     D
C218   C222    1.407   .     S
N219   C220    1.361   .     S
N219   Cu240   2.002   .     S
C220   C221    1.403   .     D
C221   C237    1.403   .     S
C221   C246    1.498   .     S
C222   C234    1.402   .     D
C222   C251    1.495   .     S
C223   C224    1.365   .     S
C223   C227    1.383   .     D
C223   H293    1.140   .     S
C224   C225    1.383   .     D
C224   H294    1.140   .     S
C225   N226    1.360   .     S
C225   C228    1.403   .     S
N226   C227    1.361   .     S
N226   Cu240   2.000   .     S
C227   C229    1.406   .     S
C228   C239    1.401   .     S
C228   C249    1.504   .     D
C229   C232    1.400   .     S
C229   C250    1.495   .     D
C230   C231    1.308   .     D
C230   C234    1.467   .     S
C230   H295    1.140   .     S
C231   C232    1.463   .     S
C231   H296    1.140   .     S
C232   N233    1.357   .     D
N233   C234    1.355   .     S
N233   Cu240   1.975   .     S
C235   C236    1.308   .     S
C235   C239    1.462   .     D
C235   H297    1.140   .     S
C236   C237    1.465   .     D
C236   H298    1.140   .     S
C237   N238    1.360   .     S
N238   C239    1.365   .     S
N238   Cu240   1.999   .     S
C241   N242    1.306   .     D
C241   H299    1.140   .     S
N242   C243    1.439   .     S
C243   C244    1.401   .     S
C243   C248    1.404   .     D
C244   C245    1.401   .     D
C244   H300    1.140   .     S
C245   C246    1.405   .     S
C245   H301    1.140   .     S
C246   C247    1.408   .     D
C247   C248    1.408   .     S
C247   H302    1.140   .     S
C248   H303    1.140   .     S
C249   C252    1.405   .     S
C249   C256    1.405   .     S
C250   C257    1.402   .     S
C250   C261    1.404   .     S
C251   C262    1.404   .     D
C251   C266    1.406   .     S
C252   C253    1.406   .     D
C252   H304    1.140   .     S
C253   C254    1.411   .     S
C253   H305    1.140   .     S
C254   C255    1.404   .     S
C254   N272    1.447   .     D
C255   C256    1.404   .     D
C255   H306    1.140   .     S
C256   H307    1.140   .     S
C257   C258    1.399   .     D
C257   H308    1.140   .     S
C258   C259    1.408   .     S
C258   H309    1.139   .     S
C259   C260    1.401   .     S
C259   N270    1.443   .     D
C260   C261    1.402   .     D
C260   H310    1.140   .     S
C261   H311    1.140   .     S
C262   C263    1.402   .     S
C262   H312    1.140   .     S
C263   C264    1.402   .     D
C263   H313    1.139   .     S
C264   C265    1.410   .     S
C264   N268    1.444   .     S
C265   C266    1.406   .     D
C265   H314    1.140   .     S
C266   H315    1.140   .     S
C267   N268    1.302   .     D
C267   C277    1.487   .     S
C267   H316    1.140   .     S
C269   N270    1.302   .     S
C269   H317    1.140   .     S
C271   N272    1.305   .     S
C271   H318    1.140   .     S
C273   C274    1.408   .     S
C273   C278    1.405   .     D
C273   H319    1.140   .     S
C274   C275    1.403   .     D
C274   C372    1.518   .     S
C275   C276    1.404   .     S
C275   H320    1.140   .     S
C276   C277    1.408   .     D
C276   H321    1.140   .     S
C277   C278    1.406   .     S
C278   H322    1.139   .     S
H280   H751    0.682   .     S
H319   H392    0.520   .     S
O323   P327    1.471   .     S
O324   P327    1.651   .     S
O324   C332    1.380   .     S
O325   P327    1.691   .     S
O325   H787    1.110   .     S
O326   P327    1.654   .     S
O326   C335    1.375   .     S
P327   C335    2.122   .     S
C328   C329    1.420   .     S
C328   C333    1.398   .     S
C328   C402    1.493   .     D
C329   C330    1.430   .     S
C329   C340    1.412   .     D
C330   C331    1.417   .     S
C330   C343    1.410   .     D
C331   C332    1.409   .     S
C331   C334    1.501   .     D
C332   C333    1.401   .     D
C333   H350    1.140   .     S
C334   C335    1.408   .     S
C334   C339    1.417   .     S
C335   C336    1.399   .     S
C336   C337    1.398   .     D
C336   H351    1.140   .     S
C337   C338    1.421   .     S
C337   C595    1.492   .     S
C338   C339    1.432   .     D
C338   C347    1.410   .     S
C339   C344    1.409   .     S
C340   C341    1.394   .     S
C340   H352    1.140   .     S
C341   C342    1.394   .     D
C341   Cl348   1.761   .     S
C342   C343    1.394   .     S
C342   H353    1.140   .     S
C343   H354    1.140   .     S
C344   C345    1.395   .     D
C344   H355    1.140   .     S
C345   C346    1.395   .     S
C345   H356    1.140   .     S
C346   C347    1.395   .     D
C346   Cl349   1.759   .     S
C347   H357    1.140   .     S
H357   H674    0.682   .     S
O358   P362    1.674   .     S
O359   P362    1.652   .     S
O359   C367    1.380   .     S
O360   P362    1.464   .     S
O361   P362    1.655   .     S
O361   C370    1.375   .     S
P362   C370    2.122   .     S
C363   C364    1.420   .     S
C363   C368    1.398   .     S
C364   C365    1.430   .     S
C364   C375    1.412   .     D
C365   C366    1.417   .     S
C365   C378    1.410   .     D
C366   C367    1.410   .     S
C366   C369    1.500   .     D
C367   C368    1.401   .     D
C368   H385    1.140   .     S
C369   C370    1.408   .     S
C369   C374    1.417   .     S
C370   C371    1.399   .     S
C371   C372    1.398   .     D
C371   H386    1.140   .     S
C372   C373    1.422   .     S
C373   C374    1.431   .     D
C373   C382    1.410   .     S
C374   C379    1.409   .     S
C375   C376    1.394   .     S
C375   H387    1.140   .     S
C376   C377    1.394   .     D
C376   Cl383   1.760   .     S
C377   C378    1.394   .     S
C377   H388    1.140   .     S
C378   H389    1.140   .     S
C379   C380    1.395   .     D
C379   H390    1.140   .     S
C380   C381    1.395   .     S
C380   H391    1.140   .     S
C381   C382    1.395   .     D
C381   Cl384   1.759   .     S
C382   H392    1.140   .     S
H393   O719    1.110   .     S
C395   C396    1.408   .     D
C395   C400    1.411   .     S
C395   C438    1.488   .     S
C396   C397    1.399   .     S
C396   H476    1.140   .     S
C397   C398    1.406   .     D
C397   H477    1.140   .     S
C398   C399    1.405   .     S
C399   C400    1.405   .     D
C399   H478    1.140   .     S
C400   H479    1.140   .     S
C401   C402    1.404   .     S
C401   C406    1.400   .     D
C401   H480    1.139   .     S
C402   C403    1.403   .     S
C403   C404    1.403   .     D
C403   H481    1.140   .     S
C404   C405    1.408   .     S
C404   H482    1.139   .     S
C405   C406    1.406   .     S
C405   C466    1.485   1_455 D
C406   H483    1.140   .     S
C407   C408    1.406   .     S
C407   C412    1.408   .     S
C407   C468    1.492   .     D
C408   C409    1.408   .     D
C408   H484    1.140   .     S
C409   C410    1.410   .     S
C409   H485    1.140   .     S
C410   C411    1.402   .     S
C410   C757    1.515   .     D
C411   C412    1.404   .     D
C411   H486    1.140   .     S
C412   H487    1.140   .     S
C413   C414    1.367   .     D
C413   C417    1.387   .     S
C413   H488    1.139   .     S
C414   C415    1.385   .     S
C414   H489    1.140   .     S
C415   N416    1.363   .     D
C415   C419    1.407   .     S
N416   C417    1.361   .     S
N416   Cu437   2.002   .     S
C417   C418    1.403   .     D
C418   C434    1.403   .     S
C418   C443    1.498   .     S
C419   C431    1.402   .     D
C419   C448    1.495   .     S
C420   C421    1.365   .     S
C420   C424    1.383   .     D
C420   H490    1.140   1_545 S
C421   C422    1.383   .     D
C421   H491    1.140   1_545 S
C422   N423    1.360   .     S
C422   C425    1.403   .     S
N423   C424    1.361   .     S
N423   Cu437   2.000   .     S
C424   C426    1.406   .     S
C425   C436    1.401   .     S
C425   C446    1.504   .     D
C426   C429    1.400   .     S
C426   C447    1.495   .     D
C427   C428    1.308   .     D
C427   C431    1.467   .     S
C427   H492    1.140   .     S
C428   C429    1.463   .     S
C428   H493    1.140   .     S
C429   N430    1.357   .     D
N430   C431    1.355   .     S
N430   Cu437   1.975   .     S
C432   C433    1.308   .     S
C432   C436    1.462   .     D
C432   H494    1.140   .     S
C433   C434    1.465   .     D
C433   H495    1.140   .     S
C434   N435    1.360   .     S
N435   C436    1.365   .     S
N435   Cu437   1.999   .     S
C438   N439    1.306   .     D
C438   H496    1.140   .     S
N439   C440    1.439   .     S
C440   C441    1.401   .     D
C440   C445    1.404   .     S
C441   C442    1.401   .     S
C441   H497    1.140   .     S
C442   C443    1.405   .     D
C442   H498    1.140   .     S
C443   C444    1.408   .     S
C444   C445    1.408   .     D
C444   H499    1.140   .     S
C445   H500    1.140   .     S
C446   C449    1.405   .     S
C446   C453    1.405   .     S
C447   C454    1.402   .     S
C447   C458    1.404   .     S
C448   C459    1.404   .     S
C448   C463    1.406   .     D
C449   H501    1.140   .     S
C449   C450    1.406   1_545 D
C450   C451    1.411   .     S
C450   H502    1.140   .     S
C450   C449    1.406   1_565 D
C451   N469    1.447   .     D
C451   C452    1.404   1_565 S
C452   C453    1.404   .     D
C452   C451    1.404   1_545 S
C452   H503    1.140   1_545 S
C453   H504    1.140   .     S
C454   C455    1.399   .     D
C454   H505    1.140   .     S
C455   C456    1.408   1_545 S
C455   H506    1.139   1_545 S
C456   N467    1.443   .     D
C456   C455    1.408   1_565 S
C456   C457    1.401   1_565 S
C457   C458    1.402   .     D
C457   C456    1.401   1_545 S
C457   H507    1.140   1_545 S
C458   H508    1.140   .     S
C459   C460    1.402   .     D
C459   H509    1.140   .     S
C460   C461    1.402   .     S
C460   H510    1.139   .     S
C461   C462    1.410   .     D
C461   N465    1.444   .     S
C462   C463    1.406   .     S
C462   H511    1.140   .     S
C463   H512    1.140   .     S
C464   N465    1.302   .     D
C464   H513    1.140   .     S
C464   C474    1.487   1_655 S
C466   N467    1.302   .     S
C466   H514    1.140   .     S
C466   C405    1.485   1_655 D
C468   N469    1.305   .     S
C468   H515    1.140   .     S
C470   C471    1.408   .     S
C470   C475    1.405   .     D
C470   H516    1.140   .     S
C471   C472    1.403   .     D
C471   C569    1.518   .     S
C472   C473    1.404   .     S
C472   H517    1.140   .     S
C473   C474    1.408   .     D
C473   H518    1.140   .     S
C474   C475    1.406   .     S
C474   C464    1.487   1_455 S
C475   H519    1.139   1_455 S
H490   C420    1.140   1_565 S
H491   C421    1.140   1_565 S
H503   C452    1.140   1_565 S
H506   C455    1.139   1_565 S
H507   C457    1.140   1_565 S
H516   H589    0.520   .     S
H519   C475    1.139   1_655 S
O520   P524    1.471   .     S
O521   P524    1.651   .     S
O521   C529    1.380   .     S
O522   P524    1.691   .     S
O523   P524    1.654   .     S
O523   C532    1.375   .     S
P524   C532    2.122   .     S
C525   C526    1.420   .     S
C525   C530    1.398   .     S
C526   C527    1.430   .     D
C526   C537    1.412   .     S
C527   C528    1.417   .     S
C527   C540    1.410   .     S
C528   C529    1.409   .     S
C528   C531    1.501   .     D
C529   C530    1.401   .     D
C530   H547    1.140   .     S
C531   C532    1.408   .     S
C531   C536    1.417   .     S
C532   C533    1.399   .     S
C533   C534    1.398   .     D
C533   H548    1.140   .     S
C534   C535    1.421   .     S
C535   C536    1.432   .     S
C535   C544    1.410   .     D
C536   C541    1.409   .     D
C537   C538    1.394   .     D
C537   H549    1.140   .     S
C538   C539    1.394   .     S
C538   Cl545   1.761   .     S
C539   C540    1.394   .     D
C539   H550    1.140   .     S
C540   H551    1.140   .     S
C541   C542    1.395   .     S
C541   H552    1.140   .     S
C542   C543    1.395   .     D
C542   H553    1.140   .     S
C543   C544    1.395   .     S
C543   Cl546   1.759   .     S
C544   H554    1.140   .     S
O555   P559    1.674   .     S
O555   H788    1.110   .     S
O556   P559    1.652   .     S
O556   C564    1.380   .     S
O557   P559    1.464   .     S
O558   P559    1.655   .     S
O558   C567    1.375   .     S
P559   C567    2.122   .     S
C560   C561    1.420   .     S
C560   C565    1.398   .     S
C560   C607    1.515   .     D
C561   C562    1.430   .     D
C561   C572    1.412   .     S
C562   C563    1.417   .     S
C562   C575    1.410   .     S
C563   C564    1.410   .     S
C563   C566    1.500   .     D
C564   C565    1.401   .     D
C565   H582    1.140   .     S
C566   C567    1.408   .     S
C566   C571    1.417   .     S
C567   C568    1.399   .     S
C568   C569    1.398   .     D
C568   H583    1.140   .     S
C569   C570    1.422   .     S
C570   C571    1.431   .     S
C570   C579    1.410   .     D
C571   C576    1.409   .     D
C572   C573    1.394   .     D
C572   H584    1.140   .     S
C573   C574    1.394   .     S
C573   Cl580   1.760   .     S
C574   C575    1.394   .     D
C574   H585    1.140   .     S
C575   H586    1.140   .     S
C576   C577    1.395   .     S
C576   H587    1.140   .     S
C577   C578    1.395   .     D
C577   H588    1.140   .     S
C578   C579    1.395   .     S
C578   Cl581   1.759   .     S
C579   H589    1.140   .     S
H591   O752    1.110   .     S
C592   C593    1.408   .     D
C592   C597    1.411   .     S
C592   C635    1.488   .     S
C593   C594    1.399   .     S
C593   H673    1.140   .     S
C594   C595    1.406   .     D
C594   H674    1.140   .     S
C595   C596    1.405   .     S
C596   C597    1.405   .     D
C596   H675    1.140   .     S
C597   H676    1.140   .     S
C598   C599    1.404   .     S
C598   C603    1.400   .     D
C598   H677    1.139   .     S
C599   C600    1.403   .     S
C600   C601    1.403   .     D
C600   H678    1.140   .     S
C601   C602    1.408   .     S
C601   H679    1.139   .     S
C602   C603    1.406   .     S
C602   C663    1.485   .     D
C603   H680    1.140   .     S
C604   C605    1.406   .     S
C604   C609    1.408   .     S
C604   C665    1.492   .     D
C605   C606    1.408   .     D
C605   H681    1.140   .     S
C606   C607    1.410   .     S
C606   H682    1.140   .     S
C607   C608    1.402   .     S
C608   C609    1.404   .     D
C608   H683    1.140   .     S
C609   H684    1.140   .     S
C610   C611    1.367   .     D
C610   C614    1.387   .     S
C610   H685    1.139   .     S
C611   C612    1.385   .     S
C611   H686    1.140   .     S
C612   N613    1.363   .     S
C612   C616    1.407   .     D
N613   C614    1.361   .     D
N613   Cu634   2.002   .     S
C614   C615    1.403   .     S
C615   C631    1.403   .     D
C615   C640    1.498   .     S
C616   C628    1.402   .     S
C616   C645    1.495   .     S
C617   C618    1.365   .     S
C617   C621    1.383   .     D
C617   H687    1.140   .     S
C618   C619    1.383   .     D
C618   H688    1.140   .     S
C619   N620    1.360   .     S
C619   C622    1.403   .     S
N620   C621    1.361   .     S
N620   Cu634   2.000   .     S
C621   C623    1.406   .     S
C622   C633    1.401   .     S
C622   C643    1.504   .     D
C623   C626    1.400   .     S
C623   C644    1.495   .     D
C624   C625    1.308   .     S
C624   C628    1.467   .     D
C624   H689    1.140   .     S
C625   C626    1.463   .     D
C625   H690    1.140   .     S
C626   N627    1.357   .     S
N627   C628    1.355   .     S
N627   Cu634   1.975   .     S
C629   C630    1.308   .     D
C629   C633    1.462   .     S
C629   H691    1.140   .     S
C630   C631    1.465   .     S
C630   H692    1.140   .     S
C631   N632    1.360   .     S
N632   C633    1.365   .     D
N632   Cu634   1.999   .     S
C635   N636    1.306   .     D
C635   H693    1.140   .     S
N636   C637    1.439   .     S
C637   C638    1.401   .     D
C637   C642    1.404   .     S
C638   C639    1.401   .     S
C638   H694    1.140   .     S
C639   C640    1.405   .     D
C639   H695    1.140   .     S
C640   C641    1.408   .     S
C641   C642    1.408   .     D
C641   H696    1.140   .     S
C642   H697    1.140   .     S
C643   C646    1.405   .     S
C643   C650    1.405   .     S
C644   C651    1.402   .     S
C644   C655    1.404   .     S
C645   C656    1.404   .     S
C645   C660    1.406   .     D
C646   C647    1.406   .     D
C646   H698    1.140   .     S
C647   C648    1.411   .     S
C647   H699    1.140   .     S
C648   C649    1.404   .     S
C648   N666    1.447   .     D
C649   C650    1.404   .     D
C649   H700    1.140   .     S
C650   H701    1.140   .     S
C651   C652    1.399   .     D
C651   H702    1.140   .     S
C652   C653    1.408   .     S
C652   H703    1.139   .     S
C653   C654    1.401   .     S
C653   N664    1.443   .     D
C654   C655    1.402   .     D
C654   H704    1.140   .     S
C655   H705    1.140   .     S
C656   C657    1.402   .     D
C656   H706    1.140   .     S
C657   C658    1.402   .     S
C657   H707    1.139   .     S
C658   C659    1.410   .     D
C658   N662    1.444   .     S
C659   C660    1.406   .     S
C659   H708    1.140   .     S
C660   H709    1.140   .     S
C661   N662    1.302   .     D
C661   C671    1.487   .     S
C661   H710    1.140   .     S
C663   N664    1.302   .     S
C663   H711    1.140   .     S
C665   N666    1.305   .     S
C665   H712    1.140   .     S
C667   C668    1.408   .     S
C667   C672    1.405   .     D
C667   H713    1.140   .     S
C668   C669    1.403   .     D
C668   C766    1.518   .     S
C669   C670    1.404   .     S
C669   H714    1.140   .     S
C670   C671    1.408   .     D
C670   H715    1.140   .     S
C671   C672    1.406   .     S
C672   H716    1.139   .     S
H713   H786    0.520   .     S
O717   P721    1.471   .     S
O718   P721    1.651   .     S
O718   C726    1.380   .     S
O719   P721    1.691   .     S
O720   P721    1.654   .     S
O720   C729    1.375   .     S
P721   C729    2.122   .     S
C722   C723    1.420   .     S
C722   C727    1.398   .     S
C723   C724    1.430   .     D
C723   C734    1.412   .     S
C724   C725    1.417   .     S
C724   C737    1.410   .     S
C725   C726    1.409   .     S
C725   C728    1.501   .     D
C726   C727    1.401   .     D
C727   H744    1.140   .     S
C728   C729    1.408   .     S
C728   C733    1.417   .     S
C729   C730    1.399   .     S
C730   C731    1.398   .     D
C730   H745    1.140   .     S
C731   C732    1.421   .     S
C732   C733    1.432   .     S
C732   C741    1.410   .     D
C733   C738    1.409   .     D
C734   C735    1.394   .     D
C734   H746    1.140   .     S
C735   C736    1.394   .     S
C735   Cl742   1.761   .     S
C736   C737    1.394   .     D
C736   H747    1.140   .     S
C737   H748    1.140   .     S
C738   C739    1.395   .     S
C738   H749    1.140   .     S
C739   C740    1.395   .     D
C739   H750    1.140   .     S
C740   C741    1.395   .     S
C740   Cl743   1.759   .     S
C741   H751    1.140   .     S
O752   P756    1.674   .     S
O753   P756    1.652   .     S
O753   C761    1.380   .     S
O754   P756    1.464   .     S
O755   P756    1.655   .     S
O755   C764    1.375   .     S
P756   C764    2.122   .     S
C757   C758    1.420   .     S
C757   C762    1.398   .     S
C758   C759    1.430   .     D
C758   C769    1.412   .     S
C759   C760    1.417   .     S
C759   C772    1.410   .     S
C760   C761    1.410   .     S
C760   C763    1.500   .     D
C761   C762    1.401   .     D
C762   H779    1.140   .     S
C763   C764    1.408   .     S
C763   C768    1.417   .     S
C764   C765    1.399   .     S
C765   C766    1.398   .     D
C765   H780    1.140   .     S
C766   C767    1.422   .     S
C767   C768    1.431   .     S
C767   C776    1.410   .     D
C768   C773    1.409   .     D
C769   C770    1.394   .     D
C769   H781    1.140   .     S
C770   C771    1.394   .     S
C770   Cl777   1.760   .     S
C771   C772    1.394   .     D
C771   H782    1.140   .     S
C772   H783    1.140   .     S
C773   C774    1.395   .     S
C773   H784    1.140   .     S
C774   C775    1.395   .     D
C774   H785    1.140   .     S
C775   C776    1.395   .     S
C775   Cl778   1.759   .     S
C776   H786    1.140   .     S
