data_846
_audit_creation_date              2023-09-08
_audit_creation_method            'Materials Studio'
_symmetry_space_group_name_H-M    'P1'
_symmetry_Int_Tables_number       1
_symmetry_cell_setting            triclinic
loop_
_symmetry_equiv_pos_as_xyz
  x,y,z
_cell_length_a                    58.8240
_cell_length_b                    58.8240
_cell_length_c                    7.3000
_cell_angle_alpha                 90.0000
_cell_angle_beta                  90.0000
_cell_angle_gamma                 120.0000
loop_
_atom_site_label
_atom_site_type_symbol
_atom_site_fract_x
_atom_site_fract_y
_atom_site_fract_z
_atom_site_U_iso_or_equiv
_atom_site_adp_type
_atom_site_occupancy
C1     C     0.05439   0.49425   0.81581   0.00000  Uiso   1.00
C2     C     0.02761   0.48209   0.81439   0.00000  Uiso   1.00
C3     C     0.01474   0.49505   0.87343   0.00000  Uiso   1.00
C4     C     0.02962   0.52109   0.92976   0.00000  Uiso   1.00
C5     C     0.05657   0.53248   0.93990   0.00000  Uiso   1.00
C6     C     0.06914   0.51943   0.88096   0.00000  Uiso   1.00
C7     C     0.98596   0.48225   0.87737   0.00000  Uiso   1.00
C8     C     0.97470   0.49666   0.93773   0.00000  Uiso   1.00
N9     N     0.98959   0.52152   0.98782   0.00000  Uiso   1.00
C10    C     0.01710   0.53487   0.97883   0.00000  Uiso   1.00
C11    C     0.96958   0.45645   0.82485   0.00000  Uiso   1.00
C12    C     0.94287   0.44573   0.82752   0.00000  Uiso   1.00
C13    C     0.93175   0.46035   0.88320   0.00000  Uiso   1.00
C14    C     0.94797   0.48574   0.94153   0.00000  Uiso   1.00
C15    C     0.09765   0.53216   0.89013   0.00000  Uiso   1.00
C16    C     0.10959   0.51828   0.94328   0.00000  Uiso   1.00
C17    C     0.13661   0.53012   0.95319   0.00000  Uiso   1.00
C18    C     0.15182   0.55663   0.91304   0.00000  Uiso   1.00
C19    C     0.13991   0.57098   0.86120   0.00000  Uiso   1.00
C20    C     0.11286   0.55832   0.84830   0.00000  Uiso   1.00
C21    C     0.18029   0.56889   0.92624   0.00000  Uiso   1.00
O22    O     0.15566   0.59758   0.82602   0.00000  Uiso   1.00
C23    C     0.14391   0.61250   0.78153   0.00000  Uiso   1.00
O24    O     0.14929   0.51641   0.99976   0.00000  Uiso   1.00
C25    C     0.13500   0.48893   0.99648   0.00000  Uiso   1.00
C26    C     0.03083   0.56315   1.00990   0.00000  Uiso   1.00
C27    C     0.05034   0.58021   0.89123   0.00000  Uiso   1.00
C28    C     0.06306   0.60672   0.92257   0.00000  Uiso   1.00
C29    C     0.05603   0.61669   1.06939   0.00000  Uiso   1.00
C30    C     0.03572   0.59989   1.18299   0.00000  Uiso   1.00
C31    C     0.02302   0.57338   1.15161   0.00000  Uiso   1.00
C32    C     0.54621   0.09658   0.87295   0.00000  Uiso   1.00
C33    C     0.57181   0.10651   0.81860   0.00000  Uiso   1.00
C34    C     0.58897   0.13322   0.80988   0.00000  Uiso   1.00
C35    C     0.57995   0.15036   0.85118   0.00000  Uiso   1.00
C36    C     0.55393   0.14053   0.90438   0.00000  Uiso   1.00
C37    C     0.53745   0.11363   0.91551   0.00000  Uiso   1.00
C38    C     0.59839   0.17857   0.83964   0.00000  Uiso   1.00
O39    O     0.61511   0.14365   0.76091   0.00000  Uiso   1.00
C40    C     0.62609   0.12730   0.76550   0.00000  Uiso   1.00
O41    O     0.54560   0.15814   0.94825   0.00000  Uiso   1.00
C42    C     0.51904   0.14867   0.98591   0.00000  Uiso   1.00
N43    N     0.80470   0.39561   0.86271   0.00000  Uiso   1.00
C44    C     0.68131   0.36016   0.84381   0.00000  Uiso   1.00
C45    C     0.65180   0.30609   0.84396   0.00000  Uiso   1.00
C46    C     0.72271   0.35881   0.84553   0.00000  Uiso   1.00
C47    C     0.73550   0.34680   0.92341   0.00000  Uiso   1.00
C48    C     0.76233   0.35904   0.92443   0.00000  Uiso   1.00
C49    C     0.77718   0.38382   0.85363   0.00000  Uiso   1.00
C50    C     0.76469   0.39596   0.77436   0.00000  Uiso   1.00
C51    C     0.73782   0.38350   0.76913   0.00000  Uiso   1.00
N52    N     0.40883   0.60416   0.85277   0.00000  Uiso   1.00
C53    C     0.36013   0.68160   0.84649   0.00000  Uiso   1.00
C54    C     0.30613   0.65150   0.84669   0.00000  Uiso   1.00
C55    C     0.36451   0.64190   0.84850   0.00000  Uiso   1.00
C56    C     0.35526   0.61729   0.77191   0.00000  Uiso   1.00
C57    C     0.37004   0.60526   0.77683   0.00000  Uiso   1.00
C58    C     0.39461   0.61758   0.85406   0.00000  Uiso   1.00
C59    C     0.40423   0.64231   0.92854   0.00000  Uiso   1.00
C60    C     0.38923   0.65413   0.92758   0.00000  Uiso   1.00
H61    H     0.06359   0.48387   0.76565   0.00000  Uiso   1.00
H62    H     0.01743   0.46260   0.76468   0.00000  Uiso   1.00
H63    H     0.06798   0.55127   1.00039   0.00000  Uiso   1.00
H64    H     0.97686   0.44428   0.77835   0.00000  Uiso   1.00
H65    H     0.93098   0.42619   0.77949   0.00000  Uiso   1.00
H66    H     0.93990   0.49734   0.98758   0.00000  Uiso   1.00
H67    H     0.09758   0.49827   0.97926   0.00000  Uiso   1.00
H68    H     0.10333   0.56860   0.80398   0.00000  Uiso   1.00
H69    H     0.18827   0.55879   0.99791   0.00000  Uiso   1.00
H70    H     0.05576   0.57307   0.77436   0.00000  Uiso   1.00
H71    H     0.07837   0.61955   0.83206   0.00000  Uiso   1.00
H72    H     0.02966   0.60731   1.29510   0.00000  Uiso   1.00
H73    H     0.00708   0.56090   1.23803   0.00000  Uiso   1.00
H74    H     0.57811   0.09318   0.78032   0.00000  Uiso   1.00
H75    H     0.51781   0.10566   0.96081   0.00000  Uiso   1.00
H76    H     0.61843   0.18506   0.81395   0.00000  Uiso   1.00
H77    H     0.69262   0.38087   0.84389   0.00000  Uiso   1.00
H78    H     0.72499   0.32825   0.98913   0.00000  Uiso   1.00
H79    H     0.77167   0.34944   0.98598   0.00000  Uiso   1.00
H80    H     0.77539   0.41464   0.71100   0.00000  Uiso   1.00
H81    H     0.72907   0.39310   0.70003   0.00000  Uiso   1.00
H82    H     0.38083   0.69314   0.84676   0.00000  Uiso   1.00
H83    H     0.33688   0.60739   0.70337   0.00000  Uiso   1.00
H84    H     0.36248   0.58635   0.71688   0.00000  Uiso   1.00
H85    H     0.42303   0.65260   0.99041   0.00000  Uiso   1.00
H86    H     0.39694   0.67260   0.99402   0.00000  Uiso   1.00
H87    H     0.13127   0.61185   0.89357   0.00000  Uiso   1.00
H88    H     0.13278   0.60556   0.65371   0.00000  Uiso   1.00
H89    H     0.15920   0.63279   0.76121   0.00000  Uiso   1.00
H90    H     0.14836   0.48158   1.02350   0.00000  Uiso   1.00
H91    H     0.12613   0.48184   0.86073   0.00000  Uiso   1.00
H92    H     0.12007   0.48131   1.10438   0.00000  Uiso   1.00
H93    H     0.61763   0.11229   0.65845   0.00000  Uiso   1.00
H94    H     0.62352   0.11834   0.90182   0.00000  Uiso   1.00
H95    H     0.64701   0.13911   0.73800   0.00000  Uiso   1.00
H96    H     0.51296   0.13641   1.10899   0.00000  Uiso   1.00
H97    H     0.50703   0.13775   0.86815   0.00000  Uiso   1.00
H98    H     0.51611   0.16524   1.01161   0.00000  Uiso   1.00
O99    O     0.35676   0.42591   1.09848   0.00000  Uiso   1.00
H100   H     0.35137   0.41405   1.20787   0.00000  Uiso   1.00
C101   C     0.50575   0.56014   0.81581   0.00000  Uiso   1.00
C102   C     0.51791   0.54552   0.81439   0.00000  Uiso   1.00
C103   C     0.50495   0.51969   0.87343   0.00000  Uiso   1.00
C104   C     0.47891   0.50853   0.92976   0.00000  Uiso   1.00
C105   C     0.46752   0.52409   0.93990   0.00000  Uiso   1.00
C106   C     0.48057   0.54971   0.88096   0.00000  Uiso   1.00
C107   C     0.51775   0.50371   0.87737   0.00000  Uiso   1.00
C108   C     0.50334   0.47804   0.93773   0.00000  Uiso   1.00
N109   N     0.47848   0.46807   0.98782   0.00000  Uiso   1.00
C110   C     0.46513   0.48223   0.97883   0.00000  Uiso   1.00
C111   C     0.54355   0.51313   0.82485   0.00000  Uiso   1.00
C112   C     0.55427   0.49714   0.82752   0.00000  Uiso   1.00
C113   C     0.53965   0.47140   0.88320   0.00000  Uiso   1.00
C114   C     0.51426   0.46223   0.94153   0.00000  Uiso   1.00
C115   C     0.46784   0.56549   0.89013   0.00000  Uiso   1.00
C116   C     0.48172   0.59131   0.94328   0.00000  Uiso   1.00
C117   C     0.46988   0.60649   0.95319   0.00000  Uiso   1.00
C118   C     0.44337   0.59519   0.91304   0.00000  Uiso   1.00
C119   C     0.42902   0.56893   0.86120   0.00000  Uiso   1.00
C120   C     0.44168   0.55454   0.84830   0.00000  Uiso   1.00
C121   C     0.43111   0.61140   0.92624   0.00000  Uiso   1.00
O122   O     0.40242   0.55808   0.82602   0.00000  Uiso   1.00
C123   C     0.38750   0.53141   0.78153   0.00000  Uiso   1.00
O124   O     0.48359   0.63288   0.99976   0.00000  Uiso   1.00
C125   C     0.51107   0.64607   0.99648   0.00000  Uiso   1.00
C126   C     0.43685   0.46768   1.00990   0.00000  Uiso   1.00
C127   C     0.41979   0.47013   0.89123   0.00000  Uiso   1.00
C128   C     0.39328   0.45634   0.92257   0.00000  Uiso   1.00
C129   C     0.38331   0.43934   1.06939   0.00000  Uiso   1.00
C130   C     0.40011   0.43583   1.18299   0.00000  Uiso   1.00
C131   C     0.42662   0.44964   1.15161   0.00000  Uiso   1.00
C132   C     0.90342   0.44963   0.87295   0.00000  Uiso   1.00
C133   C     0.89349   0.46530   0.81860   0.00000  Uiso   1.00
C134   C     0.86678   0.45575   0.80988   0.00000  Uiso   1.00
C135   C     0.84964   0.42959   0.85118   0.00000  Uiso   1.00
C136   C     0.85947   0.41340   0.90438   0.00000  Uiso   1.00
C137   C     0.88637   0.42382   0.91551   0.00000  Uiso   1.00
C138   C     0.82143   0.41982   0.83964   0.00000  Uiso   1.00
O139   O     0.85635   0.47146   0.76091   0.00000  Uiso   1.00
C140   C     0.87270   0.49879   0.76550   0.00000  Uiso   1.00
O141   O     0.84186   0.38746   0.94825   0.00000  Uiso   1.00
C142   C     0.85133   0.37037   0.98591   0.00000  Uiso   1.00
N143   N     0.60439   0.40909   0.86271   0.00000  Uiso   1.00
C144   C     0.63984   0.32115   0.84381   0.00000  Uiso   1.00
C145   C     0.69391   0.34571   0.84396   0.00000  Uiso   1.00
C146   C     0.64119   0.36390   0.84553   0.00000  Uiso   1.00
C147   C     0.65320   0.38870   0.92341   0.00000  Uiso   1.00
C148   C     0.64096   0.40329   0.92443   0.00000  Uiso   1.00
C149   C     0.61618   0.39336   0.85363   0.00000  Uiso   1.00
C150   C     0.60404   0.36873   0.77436   0.00000  Uiso   1.00
C151   C     0.61650   0.35432   0.76913   0.00000  Uiso   1.00
N152   N     0.39584   0.80467   0.85277   0.00000  Uiso   1.00
C153   C     0.31840   0.67853   0.84649   0.00000  Uiso   1.00
C154   C     0.34850   0.65463   0.84669   0.00000  Uiso   1.00
C155   C     0.35810   0.72261   0.84850   0.00000  Uiso   1.00
C156   C     0.38271   0.73797   0.77191   0.00000  Uiso   1.00
C157   C     0.39474   0.76478   0.77683   0.00000  Uiso   1.00
C158   C     0.38242   0.77703   0.85406   0.00000  Uiso   1.00
C159   C     0.35769   0.76192   0.92854   0.00000  Uiso   1.00
C160   C     0.34587   0.73510   0.92758   0.00000  Uiso   1.00
H161   H     0.51613   0.57972   0.76565   0.00000  Uiso   1.00
H162   H     0.53740   0.55483   0.76468   0.00000  Uiso   1.00
H163   H     0.44873   0.51671   1.00039   0.00000  Uiso   1.00
H164   H     0.55572   0.53258   0.77835   0.00000  Uiso   1.00
H165   H     0.57381   0.50479   0.77949   0.00000  Uiso   1.00
H166   H     0.50266   0.44256   0.98758   0.00000  Uiso   1.00
H167   H     0.50173   0.59931   0.97926   0.00000  Uiso   1.00
H168   H     0.43140   0.53473   0.80398   0.00000  Uiso   1.00
H169   H     0.44121   0.62948   0.99791   0.00000  Uiso   1.00
H170   H     0.42693   0.48269   0.77436   0.00000  Uiso   1.00
H171   H     0.38045   0.45882   0.83206   0.00000  Uiso   1.00
H172   H     0.39269   0.42235   1.29510   0.00000  Uiso   1.00
H173   H     0.43910   0.44618   1.23803   0.00000  Uiso   1.00
H174   H     0.90682   0.48493   0.78032   0.00000  Uiso   1.00
H175   H     0.89434   0.41215   0.96081   0.00000  Uiso   1.00
H176   H     0.81494   0.43337   0.81395   0.00000  Uiso   1.00
H177   H     0.61913   0.31175   0.84389   0.00000  Uiso   1.00
H178   H     0.67175   0.39674   0.98913   0.00000  Uiso   1.00
H179   H     0.65056   0.42223   0.98598   0.00000  Uiso   1.00
H180   H     0.58536   0.36075   0.71100   0.00000  Uiso   1.00
H181   H     0.60690   0.33597   0.70003   0.00000  Uiso   1.00
H182   H     0.30686   0.68769   0.84676   0.00000  Uiso   1.00
H183   H     0.39261   0.72949   0.70337   0.00000  Uiso   1.00
H184   H     0.41365   0.77613   0.71688   0.00000  Uiso   1.00
H185   H     0.34740   0.77043   0.99041   0.00000  Uiso   1.00
H186   H     0.32740   0.72434   0.99402   0.00000  Uiso   1.00
H187   H     0.38815   0.51942   0.89357   0.00000  Uiso   1.00
H188   H     0.39444   0.52722   0.65371   0.00000  Uiso   1.00
H189   H     0.36721   0.52641   0.76121   0.00000  Uiso   1.00
H190   H     0.51842   0.66678   1.02350   0.00000  Uiso   1.00
H191   H     0.51816   0.64429   0.86073   0.00000  Uiso   1.00
H192   H     0.51869   0.63876   1.10438   0.00000  Uiso   1.00
H193   H     0.88771   0.50534   0.65845   0.00000  Uiso   1.00
H194   H     0.88166   0.50518   0.90182   0.00000  Uiso   1.00
H195   H     0.86089   0.50790   0.73800   0.00000  Uiso   1.00
H196   H     0.86359   0.37655   1.10899   0.00000  Uiso   1.00
H197   H     0.86225   0.36928   0.86815   0.00000  Uiso   1.00
H198   H     0.83476   0.35087   1.01161   0.00000  Uiso   1.00
O199   O     0.57409   0.93085   1.09848   0.00000  Uiso   1.00
H200   H     0.58595   0.93732   1.20787   0.00000  Uiso   1.00
C201   C     0.43986   0.94561   0.81581   0.00000  Uiso   1.00
C202   C     0.45448   0.97239   0.81439   0.00000  Uiso   1.00
C203   C     0.48031   0.98526   0.87343   0.00000  Uiso   1.00
C204   C     0.49147   0.97038   0.92976   0.00000  Uiso   1.00
C205   C     0.47591   0.94343   0.93990   0.00000  Uiso   1.00
C206   C     0.45029   0.93086   0.88096   0.00000  Uiso   1.00
C207   C     0.49629   0.01404   0.87737   0.00000  Uiso   1.00
C208   C     0.52196   0.02530   0.93773   0.00000  Uiso   1.00
N209   N     0.53193   0.01041   0.98782   0.00000  Uiso   1.00
C210   C     0.51777   0.98290   0.97883   0.00000  Uiso   1.00
C211   C     0.48687   0.03042   0.82485   0.00000  Uiso   1.00
C212   C     0.50286   0.05713   0.82752   0.00000  Uiso   1.00
C213   C     0.52860   0.06825   0.88320   0.00000  Uiso   1.00
C214   C     0.53777   0.05203   0.94153   0.00000  Uiso   1.00
C215   C     0.43451   0.90235   0.89013   0.00000  Uiso   1.00
C216   C     0.40869   0.89041   0.94328   0.00000  Uiso   1.00
C217   C     0.39351   0.86339   0.95319   0.00000  Uiso   1.00
C218   C     0.40481   0.84818   0.91304   0.00000  Uiso   1.00
C219   C     0.43107   0.86009   0.86120   0.00000  Uiso   1.00
C220   C     0.44546   0.88714   0.84830   0.00000  Uiso   1.00
C221   C     0.38860   0.81971   0.92624   0.00000  Uiso   1.00
O222   O     0.44192   0.84434   0.82602   0.00000  Uiso   1.00
C223   C     0.46859   0.85609   0.78153   0.00000  Uiso   1.00
O224   O     0.36712   0.85071   0.99976   0.00000  Uiso   1.00
C225   C     0.35393   0.86500   0.99648   0.00000  Uiso   1.00
C226   C     0.53232   0.96917   1.00990   0.00000  Uiso   1.00
C227   C     0.52987   0.94966   0.89123   0.00000  Uiso   1.00
C228   C     0.54366   0.93694   0.92257   0.00000  Uiso   1.00
C229   C     0.56066   0.94397   1.06939   0.00000  Uiso   1.00
C230   C     0.56417   0.96428   1.18299   0.00000  Uiso   1.00
C231   C     0.55036   0.97698   1.15161   0.00000  Uiso   1.00
C232   C     0.55037   0.45379   0.87295   0.00000  Uiso   1.00
C233   C     0.53470   0.42819   0.81860   0.00000  Uiso   1.00
C234   C     0.54425   0.41103   0.80988   0.00000  Uiso   1.00
C235   C     0.57041   0.42005   0.85118   0.00000  Uiso   1.00
C236   C     0.58660   0.44607   0.90438   0.00000  Uiso   1.00
C237   C     0.57618   0.46255   0.91551   0.00000  Uiso   1.00
C238   C     0.58018   0.40161   0.83964   0.00000  Uiso   1.00
O239   O     0.52854   0.38489   0.76091   0.00000  Uiso   1.00
C240   C     0.50121   0.37391   0.76550   0.00000  Uiso   1.00
O241   O     0.61254   0.45440   0.94825   0.00000  Uiso   1.00
C242   C     0.62963   0.48096   0.98591   0.00000  Uiso   1.00
N243   N     0.59091   0.19530   0.86271   0.00000  Uiso   1.00
C244   C     0.67885   0.31869   0.84381   0.00000  Uiso   1.00
C245   C     0.65429   0.34820   0.84396   0.00000  Uiso   1.00
C246   C     0.63610   0.27729   0.84553   0.00000  Uiso   1.00
C247   C     0.61130   0.26450   0.92341   0.00000  Uiso   1.00
C248   C     0.59671   0.23767   0.92443   0.00000  Uiso   1.00
C249   C     0.60664   0.22282   0.85363   0.00000  Uiso   1.00
C250   C     0.63127   0.23531   0.77436   0.00000  Uiso   1.00
C251   C     0.64568   0.26218   0.76913   0.00000  Uiso   1.00
N252   N     0.19533   0.59117   0.85277   0.00000  Uiso   1.00
C253   C     0.32147   0.63987   0.84649   0.00000  Uiso   1.00
C254   C     0.34537   0.69387   0.84669   0.00000  Uiso   1.00
C255   C     0.27739   0.63549   0.84850   0.00000  Uiso   1.00
C256   C     0.26203   0.64474   0.77191   0.00000  Uiso   1.00
C257   C     0.23522   0.62996   0.77683   0.00000  Uiso   1.00
C258   C     0.22297   0.60539   0.85406   0.00000  Uiso   1.00
C259   C     0.23808   0.59577   0.92854   0.00000  Uiso   1.00
C260   C     0.26490   0.61077   0.92758   0.00000  Uiso   1.00
H261   H     0.42028   0.93641   0.76565   0.00000  Uiso   1.00
H262   H     0.44517   0.98257   0.76468   0.00000  Uiso   1.00
H263   H     0.48329   0.93202   1.00039   0.00000  Uiso   1.00
H264   H     0.46742   0.02314   0.77835   0.00000  Uiso   1.00
H265   H     0.49521   0.06902   0.77949   0.00000  Uiso   1.00
H266   H     0.55744   0.06010   0.98758   0.00000  Uiso   1.00
H267   H     0.40069   0.90242   0.97926   0.00000  Uiso   1.00
H268   H     0.46527   0.89667   0.80398   0.00000  Uiso   1.00
H269   H     0.37052   0.81173   0.99791   0.00000  Uiso   1.00
H270   H     0.51731   0.94424   0.77436   0.00000  Uiso   1.00
H271   H     0.54118   0.92163   0.83206   0.00000  Uiso   1.00
H272   H     0.57765   0.97034   1.29510   0.00000  Uiso   1.00
H273   H     0.55382   0.99292   1.23803   0.00000  Uiso   1.00
H274   H     0.51507   0.42189   0.78032   0.00000  Uiso   1.00
H275   H     0.58785   0.48219   0.96081   0.00000  Uiso   1.00
H276   H     0.56663   0.38157   0.81395   0.00000  Uiso   1.00
H277   H     0.68825   0.30738   0.84389   0.00000  Uiso   1.00
H278   H     0.60326   0.27501   0.98913   0.00000  Uiso   1.00
H279   H     0.57777   0.22833   0.98598   0.00000  Uiso   1.00
H280   H     0.63925   0.22461   0.71100   0.00000  Uiso   1.00
H281   H     0.66403   0.27093   0.70003   0.00000  Uiso   1.00
H282   H     0.31231   0.61917   0.84676   0.00000  Uiso   1.00
H283   H     0.27051   0.66312   0.70337   0.00000  Uiso   1.00
H284   H     0.22387   0.63752   0.71688   0.00000  Uiso   1.00
H285   H     0.22957   0.57697   0.99041   0.00000  Uiso   1.00
H286   H     0.27566   0.60306   0.99402   0.00000  Uiso   1.00
H287   H     0.48058   0.86873   0.89357   0.00000  Uiso   1.00
H288   H     0.47278   0.86722   0.65371   0.00000  Uiso   1.00
H289   H     0.47359   0.84080   0.76121   0.00000  Uiso   1.00
H290   H     0.33322   0.85164   1.02350   0.00000  Uiso   1.00
H291   H     0.35571   0.87387   0.86073   0.00000  Uiso   1.00
H292   H     0.36124   0.87993   1.10438   0.00000  Uiso   1.00
H293   H     0.49466   0.38237   0.65845   0.00000  Uiso   1.00
H294   H     0.49482   0.37648   0.90182   0.00000  Uiso   1.00
H295   H     0.49210   0.35299   0.73800   0.00000  Uiso   1.00
H296   H     0.62345   0.48704   1.10899   0.00000  Uiso   1.00
H297   H     0.63072   0.49297   0.86815   0.00000  Uiso   1.00
H298   H     0.64913   0.48389   1.01161   0.00000  Uiso   1.00
O299   O     0.06915   0.64324   1.09848   0.00000  Uiso   1.00
H300   H     0.06268   0.64863   1.20787   0.00000  Uiso   1.00
C301   C     0.49425   0.05439   0.31581   0.00000  Uiso   1.00
C302   C     0.48209   0.02761   0.31439   0.00000  Uiso   1.00
C303   C     0.49505   0.01474   0.37343   0.00000  Uiso   1.00
C304   C     0.52109   0.02962   0.42976   0.00000  Uiso   1.00
C305   C     0.53248   0.05657   0.43990   0.00000  Uiso   1.00
C306   C     0.51943   0.06914   0.38096   0.00000  Uiso   1.00
C307   C     0.48225   0.98596   0.37737   0.00000  Uiso   1.00
C308   C     0.49666   0.97470   0.43773   0.00000  Uiso   1.00
N309   N     0.52152   0.98959   0.48782   0.00000  Uiso   1.00
C310   C     0.53487   0.01710   0.47883   0.00000  Uiso   1.00
C311   C     0.45645   0.96958   0.32485   0.00000  Uiso   1.00
C312   C     0.44573   0.94287   0.32752   0.00000  Uiso   1.00
C313   C     0.46035   0.93175   0.38320   0.00000  Uiso   1.00
C314   C     0.48574   0.94797   0.44153   0.00000  Uiso   1.00
C315   C     0.53216   0.09765   0.39013   0.00000  Uiso   1.00
C316   C     0.51828   0.10959   0.44328   0.00000  Uiso   1.00
C317   C     0.53012   0.13661   0.45319   0.00000  Uiso   1.00
C318   C     0.55663   0.15182   0.41304   0.00000  Uiso   1.00
C319   C     0.57098   0.13991   0.36120   0.00000  Uiso   1.00
C320   C     0.55832   0.11286   0.34830   0.00000  Uiso   1.00
C321   C     0.56889   0.18029   0.42624   0.00000  Uiso   1.00
O322   O     0.59758   0.15566   0.32602   0.00000  Uiso   1.00
C323   C     0.61250   0.14391   0.28153   0.00000  Uiso   1.00
O324   O     0.51641   0.14929   0.49976   0.00000  Uiso   1.00
C325   C     0.48893   0.13500   0.49648   0.00000  Uiso   1.00
C326   C     0.56315   0.03083   0.50990   0.00000  Uiso   1.00
C327   C     0.58021   0.05034   0.39123   0.00000  Uiso   1.00
C328   C     0.60672   0.06306   0.42257   0.00000  Uiso   1.00
C329   C     0.61669   0.05603   0.56939   0.00000  Uiso   1.00
C330   C     0.59989   0.03572   0.68299   0.00000  Uiso   1.00
C331   C     0.57338   0.02302   0.65161   0.00000  Uiso   1.00
C332   C     0.09658   0.54621   0.37295   0.00000  Uiso   1.00
C333   C     0.10651   0.57181   0.31860   0.00000  Uiso   1.00
C334   C     0.13322   0.58897   0.30988   0.00000  Uiso   1.00
C335   C     0.15036   0.57995   0.35118   0.00000  Uiso   1.00
C336   C     0.14053   0.55393   0.40438   0.00000  Uiso   1.00
C337   C     0.11363   0.53745   0.41551   0.00000  Uiso   1.00
C338   C     0.17857   0.59839   0.33964   0.00000  Uiso   1.00
O339   O     0.14365   0.61511   0.26091   0.00000  Uiso   1.00
C340   C     0.12730   0.62609   0.26550   0.00000  Uiso   1.00
O341   O     0.15814   0.54560   0.44825   0.00000  Uiso   1.00
C342   C     0.14867   0.51904   0.48591   0.00000  Uiso   1.00
N343   N     0.39561   0.80470   0.36271   0.00000  Uiso   1.00
C344   C     0.36016   0.68131   0.34381   0.00000  Uiso   1.00
C345   C     0.30609   0.65180   0.34396   0.00000  Uiso   1.00
C346   C     0.35881   0.72271   0.34553   0.00000  Uiso   1.00
C347   C     0.34680   0.73550   0.42341   0.00000  Uiso   1.00
C348   C     0.35904   0.76233   0.42443   0.00000  Uiso   1.00
C349   C     0.38382   0.77718   0.35363   0.00000  Uiso   1.00
C350   C     0.39596   0.76469   0.27436   0.00000  Uiso   1.00
C351   C     0.38350   0.73782   0.26913   0.00000  Uiso   1.00
N352   N     0.60416   0.40883   0.35277   0.00000  Uiso   1.00
C353   C     0.68160   0.36013   0.34649   0.00000  Uiso   1.00
C354   C     0.65150   0.30613   0.34669   0.00000  Uiso   1.00
C355   C     0.64190   0.36451   0.34850   0.00000  Uiso   1.00
C356   C     0.61729   0.35526   0.27191   0.00000  Uiso   1.00
C357   C     0.60526   0.37004   0.27683   0.00000  Uiso   1.00
C358   C     0.61758   0.39461   0.35406   0.00000  Uiso   1.00
C359   C     0.64231   0.40423   0.42854   0.00000  Uiso   1.00
C360   C     0.65413   0.38923   0.42758   0.00000  Uiso   1.00
H361   H     0.48387   0.06359   0.26565   0.00000  Uiso   1.00
H362   H     0.46260   0.01743   0.26468   0.00000  Uiso   1.00
H363   H     0.55127   0.06798   0.50039   0.00000  Uiso   1.00
H364   H     0.44428   0.97686   0.27835   0.00000  Uiso   1.00
H365   H     0.42619   0.93098   0.27949   0.00000  Uiso   1.00
H366   H     0.49734   0.93990   0.48758   0.00000  Uiso   1.00
H367   H     0.49827   0.09758   0.47926   0.00000  Uiso   1.00
H368   H     0.56860   0.10333   0.30398   0.00000  Uiso   1.00
H369   H     0.55879   0.18827   0.49791   0.00000  Uiso   1.00
H370   H     0.57307   0.05576   0.27436   0.00000  Uiso   1.00
H371   H     0.61955   0.07837   0.33206   0.00000  Uiso   1.00
H372   H     0.60731   0.02966   0.79510   0.00000  Uiso   1.00
H373   H     0.56090   0.00708   0.73803   0.00000  Uiso   1.00
H374   H     0.09318   0.57811   0.28032   0.00000  Uiso   1.00
H375   H     0.10566   0.51781   0.46081   0.00000  Uiso   1.00
H376   H     0.18506   0.61843   0.31395   0.00000  Uiso   1.00
H377   H     0.38087   0.69262   0.34389   0.00000  Uiso   1.00
H378   H     0.32825   0.72499   0.48913   0.00000  Uiso   1.00
H379   H     0.34944   0.77167   0.48598   0.00000  Uiso   1.00
H380   H     0.41464   0.77539   0.21100   0.00000  Uiso   1.00
H381   H     0.39310   0.72907   0.20003   0.00000  Uiso   1.00
H382   H     0.69314   0.38083   0.34676   0.00000  Uiso   1.00
H383   H     0.60739   0.33688   0.20337   0.00000  Uiso   1.00
H384   H     0.58635   0.36248   0.21688   0.00000  Uiso   1.00
H385   H     0.65260   0.42303   0.49041   0.00000  Uiso   1.00
H386   H     0.67260   0.39694   0.49402   0.00000  Uiso   1.00
H387   H     0.61185   0.13127   0.39357   0.00000  Uiso   1.00
H388   H     0.60556   0.13278   0.15371   0.00000  Uiso   1.00
H389   H     0.63279   0.15920   0.26121   0.00000  Uiso   1.00
H390   H     0.48158   0.14836   0.52350   0.00000  Uiso   1.00
H391   H     0.48184   0.12613   0.36073   0.00000  Uiso   1.00
H392   H     0.48131   0.12007   0.60438   0.00000  Uiso   1.00
H393   H     0.11229   0.61763   0.15845   0.00000  Uiso   1.00
H394   H     0.11834   0.62352   0.40182   0.00000  Uiso   1.00
H395   H     0.13911   0.64701   0.23800   0.00000  Uiso   1.00
H396   H     0.13641   0.51296   0.60899   0.00000  Uiso   1.00
H397   H     0.13775   0.50703   0.36815   0.00000  Uiso   1.00
H398   H     0.16524   0.51611   0.51161   0.00000  Uiso   1.00
O399   O     0.42591   0.35676   0.59848   0.00000  Uiso   1.00
H400   H     0.41405   0.35137   0.70787   0.00000  Uiso   1.00
C401   C     0.56014   0.50575   0.31581   0.00000  Uiso   1.00
C402   C     0.54552   0.51791   0.31439   0.00000  Uiso   1.00
C403   C     0.51969   0.50495   0.37343   0.00000  Uiso   1.00
C404   C     0.50853   0.47891   0.42976   0.00000  Uiso   1.00
C405   C     0.52409   0.46752   0.43990   0.00000  Uiso   1.00
C406   C     0.54971   0.48057   0.38096   0.00000  Uiso   1.00
C407   C     0.50371   0.51775   0.37737   0.00000  Uiso   1.00
C408   C     0.47804   0.50334   0.43773   0.00000  Uiso   1.00
N409   N     0.46807   0.47848   0.48782   0.00000  Uiso   1.00
C410   C     0.48223   0.46513   0.47883   0.00000  Uiso   1.00
C411   C     0.51313   0.54355   0.32485   0.00000  Uiso   1.00
C412   C     0.49714   0.55427   0.32752   0.00000  Uiso   1.00
C413   C     0.47140   0.53965   0.38320   0.00000  Uiso   1.00
C414   C     0.46223   0.51426   0.44153   0.00000  Uiso   1.00
C415   C     0.56549   0.46784   0.39013   0.00000  Uiso   1.00
C416   C     0.59131   0.48172   0.44328   0.00000  Uiso   1.00
C417   C     0.60649   0.46988   0.45319   0.00000  Uiso   1.00
C418   C     0.59519   0.44337   0.41304   0.00000  Uiso   1.00
C419   C     0.56893   0.42902   0.36120   0.00000  Uiso   1.00
C420   C     0.55454   0.44168   0.34830   0.00000  Uiso   1.00
C421   C     0.61140   0.43111   0.42624   0.00000  Uiso   1.00
O422   O     0.55808   0.40242   0.32602   0.00000  Uiso   1.00
C423   C     0.53141   0.38750   0.28153   0.00000  Uiso   1.00
O424   O     0.63288   0.48359   0.49976   0.00000  Uiso   1.00
C425   C     0.64607   0.51107   0.49648   0.00000  Uiso   1.00
C426   C     0.46768   0.43685   0.50990   0.00000  Uiso   1.00
C427   C     0.47013   0.41979   0.39123   0.00000  Uiso   1.00
C428   C     0.45634   0.39328   0.42257   0.00000  Uiso   1.00
C429   C     0.43934   0.38331   0.56939   0.00000  Uiso   1.00
C430   C     0.43583   0.40011   0.68299   0.00000  Uiso   1.00
C431   C     0.44964   0.42662   0.65161   0.00000  Uiso   1.00
C432   C     0.44963   0.90342   0.37295   0.00000  Uiso   1.00
C433   C     0.46530   0.89349   0.31860   0.00000  Uiso   1.00
C434   C     0.45575   0.86678   0.30988   0.00000  Uiso   1.00
C435   C     0.42959   0.84964   0.35118   0.00000  Uiso   1.00
C436   C     0.41340   0.85947   0.40438   0.00000  Uiso   1.00
C437   C     0.42382   0.88637   0.41551   0.00000  Uiso   1.00
C438   C     0.41982   0.82143   0.33964   0.00000  Uiso   1.00
O439   O     0.47146   0.85635   0.26091   0.00000  Uiso   1.00
C440   C     0.49879   0.87270   0.26550   0.00000  Uiso   1.00
O441   O     0.38746   0.84186   0.44825   0.00000  Uiso   1.00
C442   C     0.37037   0.85133   0.48591   0.00000  Uiso   1.00
N443   N     0.40909   0.60439   0.36271   0.00000  Uiso   1.00
C444   C     0.32115   0.63984   0.34381   0.00000  Uiso   1.00
C445   C     0.34571   0.69391   0.34396   0.00000  Uiso   1.00
C446   C     0.36390   0.64119   0.34553   0.00000  Uiso   1.00
C447   C     0.38870   0.65320   0.42341   0.00000  Uiso   1.00
C448   C     0.40329   0.64096   0.42443   0.00000  Uiso   1.00
C449   C     0.39336   0.61618   0.35363   0.00000  Uiso   1.00
C450   C     0.36873   0.60404   0.27436   0.00000  Uiso   1.00
C451   C     0.35432   0.61650   0.26913   0.00000  Uiso   1.00
N452   N     0.80467   0.39584   0.35277   0.00000  Uiso   1.00
C453   C     0.67853   0.31840   0.34649   0.00000  Uiso   1.00
C454   C     0.65463   0.34850   0.34669   0.00000  Uiso   1.00
C455   C     0.72261   0.35810   0.34850   0.00000  Uiso   1.00
C456   C     0.73797   0.38271   0.27191   0.00000  Uiso   1.00
C457   C     0.76478   0.39474   0.27683   0.00000  Uiso   1.00
C458   C     0.77703   0.38242   0.35406   0.00000  Uiso   1.00
C459   C     0.76192   0.35769   0.42854   0.00000  Uiso   1.00
C460   C     0.73510   0.34587   0.42758   0.00000  Uiso   1.00
H461   H     0.57972   0.51613   0.26565   0.00000  Uiso   1.00
H462   H     0.55483   0.53740   0.26468   0.00000  Uiso   1.00
H463   H     0.51671   0.44873   0.50039   0.00000  Uiso   1.00
H464   H     0.53258   0.55572   0.27835   0.00000  Uiso   1.00
H465   H     0.50479   0.57381   0.27949   0.00000  Uiso   1.00
H466   H     0.44256   0.50266   0.48758   0.00000  Uiso   1.00
H467   H     0.59931   0.50173   0.47926   0.00000  Uiso   1.00
H468   H     0.53473   0.43140   0.30398   0.00000  Uiso   1.00
H469   H     0.62948   0.44121   0.49791   0.00000  Uiso   1.00
H470   H     0.48269   0.42693   0.27436   0.00000  Uiso   1.00
H471   H     0.45882   0.38045   0.33206   0.00000  Uiso   1.00
H472   H     0.42235   0.39269   0.79510   0.00000  Uiso   1.00
H473   H     0.44618   0.43910   0.73803   0.00000  Uiso   1.00
H474   H     0.48493   0.90682   0.28032   0.00000  Uiso   1.00
H475   H     0.41215   0.89434   0.46081   0.00000  Uiso   1.00
H476   H     0.43337   0.81494   0.31395   0.00000  Uiso   1.00
H477   H     0.31175   0.61913   0.34389   0.00000  Uiso   1.00
H478   H     0.39674   0.67175   0.48913   0.00000  Uiso   1.00
H479   H     0.42223   0.65056   0.48598   0.00000  Uiso   1.00
H480   H     0.36075   0.58536   0.21100   0.00000  Uiso   1.00
H481   H     0.33597   0.60690   0.20003   0.00000  Uiso   1.00
H482   H     0.68769   0.30686   0.34676   0.00000  Uiso   1.00
H483   H     0.72949   0.39261   0.20337   0.00000  Uiso   1.00
H484   H     0.77613   0.41365   0.21688   0.00000  Uiso   1.00
H485   H     0.77043   0.34740   0.49041   0.00000  Uiso   1.00
H486   H     0.72434   0.32740   0.49402   0.00000  Uiso   1.00
H487   H     0.51942   0.38815   0.39357   0.00000  Uiso   1.00
H488   H     0.52722   0.39444   0.15371   0.00000  Uiso   1.00
H489   H     0.52641   0.36721   0.26121   0.00000  Uiso   1.00
H490   H     0.66678   0.51842   0.52350   0.00000  Uiso   1.00
H491   H     0.64429   0.51816   0.36073   0.00000  Uiso   1.00
H492   H     0.63876   0.51869   0.60438   0.00000  Uiso   1.00
H493   H     0.50534   0.88771   0.15845   0.00000  Uiso   1.00
H494   H     0.50518   0.88166   0.40182   0.00000  Uiso   1.00
H495   H     0.50790   0.86089   0.23800   0.00000  Uiso   1.00
H496   H     0.37655   0.86359   0.60899   0.00000  Uiso   1.00
H497   H     0.36928   0.86225   0.36815   0.00000  Uiso   1.00
H498   H     0.35087   0.83476   0.51161   0.00000  Uiso   1.00
O499   O     0.93085   0.57409   0.59848   0.00000  Uiso   1.00
H500   H     0.93732   0.58595   0.70787   0.00000  Uiso   1.00
C501   C     0.94561   0.43986   0.31581   0.00000  Uiso   1.00
C502   C     0.97239   0.45448   0.31439   0.00000  Uiso   1.00
C503   C     0.98526   0.48031   0.37343   0.00000  Uiso   1.00
C504   C     0.97038   0.49147   0.42976   0.00000  Uiso   1.00
C505   C     0.94343   0.47591   0.43990   0.00000  Uiso   1.00
C506   C     0.93086   0.45029   0.38096   0.00000  Uiso   1.00
C507   C     0.01404   0.49629   0.37737   0.00000  Uiso   1.00
C508   C     0.02530   0.52196   0.43773   0.00000  Uiso   1.00
N509   N     0.01041   0.53193   0.48782   0.00000  Uiso   1.00
C510   C     0.98290   0.51777   0.47883   0.00000  Uiso   1.00
C511   C     0.03042   0.48687   0.32485   0.00000  Uiso   1.00
C512   C     0.05713   0.50286   0.32752   0.00000  Uiso   1.00
C513   C     0.06825   0.52860   0.38320   0.00000  Uiso   1.00
C514   C     0.05203   0.53777   0.44153   0.00000  Uiso   1.00
C515   C     0.90235   0.43451   0.39013   0.00000  Uiso   1.00
C516   C     0.89041   0.40869   0.44328   0.00000  Uiso   1.00
C517   C     0.86339   0.39351   0.45319   0.00000  Uiso   1.00
C518   C     0.84818   0.40481   0.41304   0.00000  Uiso   1.00
C519   C     0.86009   0.43107   0.36120   0.00000  Uiso   1.00
C520   C     0.88714   0.44546   0.34830   0.00000  Uiso   1.00
C521   C     0.81971   0.38860   0.42624   0.00000  Uiso   1.00
O522   O     0.84434   0.44192   0.32602   0.00000  Uiso   1.00
C523   C     0.85609   0.46859   0.28153   0.00000  Uiso   1.00
O524   O     0.85071   0.36712   0.49976   0.00000  Uiso   1.00
C525   C     0.86500   0.35393   0.49648   0.00000  Uiso   1.00
C526   C     0.96917   0.53232   0.50990   0.00000  Uiso   1.00
C527   C     0.94966   0.52987   0.39123   0.00000  Uiso   1.00
C528   C     0.93694   0.54366   0.42257   0.00000  Uiso   1.00
C529   C     0.94397   0.56066   0.56939   0.00000  Uiso   1.00
C530   C     0.96428   0.56417   0.68299   0.00000  Uiso   1.00
C531   C     0.97698   0.55036   0.65161   0.00000  Uiso   1.00
C532   C     0.45379   0.55037   0.37295   0.00000  Uiso   1.00
C533   C     0.42819   0.53470   0.31860   0.00000  Uiso   1.00
C534   C     0.41103   0.54425   0.30988   0.00000  Uiso   1.00
C535   C     0.42005   0.57041   0.35118   0.00000  Uiso   1.00
C536   C     0.44607   0.58660   0.40438   0.00000  Uiso   1.00
C537   C     0.46255   0.57618   0.41551   0.00000  Uiso   1.00
C538   C     0.40161   0.58018   0.33964   0.00000  Uiso   1.00
O539   O     0.38489   0.52854   0.26091   0.00000  Uiso   1.00
C540   C     0.37391   0.50121   0.26550   0.00000  Uiso   1.00
O541   O     0.45440   0.61254   0.44825   0.00000  Uiso   1.00
C542   C     0.48096   0.62963   0.48591   0.00000  Uiso   1.00
N543   N     0.19530   0.59091   0.36271   0.00000  Uiso   1.00
C544   C     0.31869   0.67885   0.34381   0.00000  Uiso   1.00
C545   C     0.34820   0.65429   0.34396   0.00000  Uiso   1.00
C546   C     0.27729   0.63610   0.34553   0.00000  Uiso   1.00
C547   C     0.26450   0.61130   0.42341   0.00000  Uiso   1.00
C548   C     0.23767   0.59671   0.42443   0.00000  Uiso   1.00
C549   C     0.22282   0.60664   0.35363   0.00000  Uiso   1.00
C550   C     0.23531   0.63127   0.27436   0.00000  Uiso   1.00
C551   C     0.26218   0.64568   0.26913   0.00000  Uiso   1.00
N552   N     0.59117   0.19533   0.35277   0.00000  Uiso   1.00
C553   C     0.63987   0.32147   0.34649   0.00000  Uiso   1.00
C554   C     0.69387   0.34537   0.34669   0.00000  Uiso   1.00
C555   C     0.63549   0.27739   0.34850   0.00000  Uiso   1.00
C556   C     0.64474   0.26203   0.27191   0.00000  Uiso   1.00
C557   C     0.62996   0.23522   0.27683   0.00000  Uiso   1.00
C558   C     0.60539   0.22297   0.35406   0.00000  Uiso   1.00
C559   C     0.59577   0.23808   0.42854   0.00000  Uiso   1.00
C560   C     0.61077   0.26490   0.42758   0.00000  Uiso   1.00
H561   H     0.93641   0.42028   0.26565   0.00000  Uiso   1.00
H562   H     0.98257   0.44517   0.26468   0.00000  Uiso   1.00
H563   H     0.93202   0.48329   0.50039   0.00000  Uiso   1.00
H564   H     0.02314   0.46742   0.27835   0.00000  Uiso   1.00
H565   H     0.06902   0.49521   0.27949   0.00000  Uiso   1.00
H566   H     0.06010   0.55744   0.48758   0.00000  Uiso   1.00
H567   H     0.90242   0.40069   0.47926   0.00000  Uiso   1.00
H568   H     0.89667   0.46527   0.30398   0.00000  Uiso   1.00
H569   H     0.81173   0.37052   0.49791   0.00000  Uiso   1.00
H570   H     0.94424   0.51731   0.27436   0.00000  Uiso   1.00
H571   H     0.92163   0.54118   0.33206   0.00000  Uiso   1.00
H572   H     0.97034   0.57765   0.79510   0.00000  Uiso   1.00
H573   H     0.99292   0.55382   0.73803   0.00000  Uiso   1.00
H574   H     0.42189   0.51507   0.28032   0.00000  Uiso   1.00
H575   H     0.48219   0.58785   0.46081   0.00000  Uiso   1.00
H576   H     0.38157   0.56663   0.31395   0.00000  Uiso   1.00
H577   H     0.30738   0.68825   0.34389   0.00000  Uiso   1.00
H578   H     0.27501   0.60326   0.48913   0.00000  Uiso   1.00
H579   H     0.22833   0.57777   0.48598   0.00000  Uiso   1.00
H580   H     0.22461   0.63925   0.21100   0.00000  Uiso   1.00
H581   H     0.27093   0.66403   0.20003   0.00000  Uiso   1.00
H582   H     0.61917   0.31231   0.34676   0.00000  Uiso   1.00
H583   H     0.66312   0.27051   0.20337   0.00000  Uiso   1.00
H584   H     0.63752   0.22387   0.21688   0.00000  Uiso   1.00
H585   H     0.57697   0.22957   0.49041   0.00000  Uiso   1.00
H586   H     0.60306   0.27566   0.49402   0.00000  Uiso   1.00
H587   H     0.86873   0.48058   0.39357   0.00000  Uiso   1.00
H588   H     0.86722   0.47278   0.15371   0.00000  Uiso   1.00
H589   H     0.84080   0.47359   0.26121   0.00000  Uiso   1.00
H590   H     0.85164   0.33322   0.52350   0.00000  Uiso   1.00
H591   H     0.87387   0.35571   0.36073   0.00000  Uiso   1.00
H592   H     0.87993   0.36124   0.60438   0.00000  Uiso   1.00
H593   H     0.38237   0.49466   0.15845   0.00000  Uiso   1.00
H594   H     0.37648   0.49482   0.40182   0.00000  Uiso   1.00
H595   H     0.35299   0.49210   0.23800   0.00000  Uiso   1.00
H596   H     0.48704   0.62345   0.60899   0.00000  Uiso   1.00
H597   H     0.49297   0.63072   0.36815   0.00000  Uiso   1.00
H598   H     0.48389   0.64913   0.51161   0.00000  Uiso   1.00
O599   O     0.64324   0.06915   0.59848   0.00000  Uiso   1.00
H600   H     0.64863   0.06268   0.70787   0.00000  Uiso   1.00
loop_
_geom_bond_atom_site_label_1
_geom_bond_atom_site_label_2
_geom_bond_distance
_geom_bond_site_symmetry_2
_ccdc_geom_bond_type
C1     C2      1.366   .     S
C1     C6      1.374   .     D
C1     H61     1.063   .     S
C2     C3      1.385   .     D
C2     H62     1.057   .     S
C3     C4      1.393   .     S
C3     C7      1.469   1_455 S
C4     C5      1.380   .     D
C4     C10     1.387   .     S
C5     C6      1.374   .     S
C5     H63     1.061   .     S
C6     C15     1.457   .     S
C7     C8      1.383   .     D
C7     C11     1.384   .     S
C7     C3      1.469   1_655 S
C8     N9      1.326   .     S
C8     C14     1.370   .     S
N9     C10     1.403   1_655 D
C10    C26     1.459   .     S
C10    N9      1.403   1_455 D
C11    C12     1.370   .     D
C11    H64     1.057   .     S
C12    C13     1.377   .     S
C12    H65     1.063   .     S
C13    C14     1.377   .     D
C13    C132    1.459   .     S
C14    H66     1.062   .     S
C15    C16     1.373   .     D
C15    C20     1.373   .     S
C16    C17     1.382   .     S
C16    H67     1.059   .     S
C17    C18     1.387   .     D
C17    O24     1.387   .     S
C18    C19     1.392   .     S
C18    C21     1.458   .     S
C19    C20     1.382   .     D
C19    O22     1.387   .     S
C20    H68     1.060   .     S
C21    H69     1.061   .     S
C21    N252    1.276   .     D
O22    C23     1.400   .     S
C23    H87     1.093   .     S
C23    H88     1.095   .     S
C23    H89     1.087   .     S
O24    C25     1.400   .     S
C25    H90     1.088   .     S
C25    H91     1.100   .     S
C25    H92     1.095   .     S
C26    C27     1.387   .     S
C26    C31     1.386   .     D
C27    C28     1.370   .     D
C27    H70     1.068   .     S
C28    C29     1.381   .     S
C28    H71     1.067   .     S
C29    C30     1.382   .     D
C29    O299    1.369   .     S
C30    C31     1.370   .     S
C30    H72     1.069   .     S
C31    H73     1.062   .     S
C32    C33     1.374   .     D
C32    C37     1.373   .     S
C32    C213    1.459   .     S
C33    C34     1.380   .     S
C33    H74     1.059   .     S
C34    C35     1.387   .     D
C34    O39     1.388   .     S
C35    C36     1.394   .     S
C35    C38     1.462   .     S
C36    C37     1.384   .     D
C36    O41     1.387   .     S
C37    H75     1.059   .     S
C38    H76     1.059   .     S
C38    N243    1.274   .     D
O39    C40     1.402   .     S
C40    H93     1.095   .     S
C40    H94     1.101   .     S
C40    H95     1.087   .     S
O41    C42     1.399   .     S
C42    H96     1.094   .     S
C42    H97     1.094   .     S
C42    H98     1.088   .     S
N43    C49     1.408   .     S
N43    C138    1.274   .     D
C44    H77     1.057   .     S
C44    C245    1.379   .     S
C44    C145    1.379   .     D
C45    C144    1.379   .     S
C45    C244    1.379   .     D
C45    C246    1.469   .     S
C46    C47     1.386   .     D
C46    C51     1.385   .     S
C46    C145    1.469   .     S
C47    C48     1.369   .     S
C47    H78     1.062   .     S
C48    C49     1.372   .     D
C48    H79     1.064   .     S
C49    C50     1.382   .     S
C50    C51     1.371   .     D
C50    H80     1.061   .     S
C51    H81     1.063   .     S
N52    C58     1.408   .     S
N52    C121    1.276   .     D
C53    H82     1.057   .     S
C53    C254    1.379   .     D
C53    C154    1.378   .     S
C54    C153    1.379   .     D
C54    C253    1.378   .     S
C54    C255    1.467   .     S
C55    C56     1.384   .     D
C55    C60     1.385   .     S
C55    C154    1.467   .     S
C56    C57     1.369   .     S
C56    H83     1.062   .     S
C57    C58     1.373   .     D
C57    H84     1.064   .     S
C58    C59     1.382   .     S
C59    C60     1.370   .     D
C59    H85     1.060   .     S
C60    H86     1.062   .     S
O99    H100    1.002   .     S
O99    C129    1.369   .     S
C101   C102    1.366   .     S
C101   C106    1.374   .     D
C101   H161    1.063   .     S
C102   C103    1.385   .     D
C102   H162    1.057   .     S
C103   C104    1.393   .     S
C103   C107    1.469   .     S
C104   C105    1.380   .     D
C104   C110    1.387   .     S
C105   C106    1.374   .     S
C105   H163    1.061   .     S
C106   C115    1.457   .     S
C107   C108    1.383   .     D
C107   C111    1.384   .     S
C108   N109    1.326   .     S
C108   C114    1.370   .     S
N109   C110    1.403   .     D
C110   C126    1.459   .     S
C111   C112    1.370   .     D
C111   H164    1.057   .     S
C112   C113    1.377   .     S
C112   H165    1.063   .     S
C113   C114    1.377   .     D
C113   C232    1.459   .     S
C114   H166    1.062   .     S
C115   C116    1.373   .     D
C115   C120    1.373   .     S
C116   C117    1.382   .     S
C116   H167    1.059   .     S
C117   C118    1.387   .     D
C117   O124    1.387   .     S
C118   C119    1.392   .     S
C118   C121    1.458   .     S
C119   C120    1.382   .     D
C119   O122    1.387   .     S
C120   H168    1.060   .     S
C121   H169    1.061   .     S
O122   C123    1.400   .     S
C123   H187    1.093   .     S
C123   H188    1.095   .     S
C123   H189    1.087   .     S
O124   C125    1.400   .     S
C125   H190    1.088   .     S
C125   H191    1.100   .     S
C125   H192    1.095   .     S
C126   C127    1.387   .     D
C126   C131    1.386   .     S
C127   C128    1.370   .     S
C127   H170    1.068   .     S
C128   C129    1.381   .     D
C128   H171    1.067   .     S
C129   C130    1.382   .     S
C130   C131    1.370   .     D
C130   H172    1.069   .     S
C131   H173    1.062   .     S
C132   C133    1.374   .     D
C132   C137    1.373   .     S
C133   C134    1.380   .     S
C133   H174    1.059   .     S
C134   C135    1.387   .     D
C134   O139    1.388   .     S
C135   C136    1.394   .     S
C135   C138    1.462   .     S
C136   C137    1.384   .     D
C136   O141    1.387   .     S
C137   H175    1.059   .     S
C138   H176    1.059   .     S
O139   C140    1.402   .     S
C140   H193    1.095   .     S
C140   H194    1.101   .     S
C140   H195    1.087   .     S
O141   C142    1.399   .     S
C142   H196    1.094   .     S
C142   H197    1.094   .     S
C142   H198    1.088   .     S
N143   C149    1.408   .     S
N143   C238    1.274   .     D
C144   H177    1.057   .     S
C144   C245    1.379   .     D
C145   C244    1.379   .     S
C146   C147    1.386   .     D
C146   C151    1.385   .     S
C146   C245    1.469   .     S
C147   C148    1.369   .     S
C147   H178    1.062   .     S
C148   C149    1.372   .     D
C148   H179    1.064   .     S
C149   C150    1.382   .     S
C150   C151    1.371   .     D
C150   H180    1.061   .     S
C151   H181    1.063   .     S
N152   C158    1.408   .     S
N152   C221    1.276   .     D
C153   H182    1.057   .     S
C153   C254    1.378   .     S
C154   C253    1.379   .     D
C155   C156    1.384   .     D
C155   C160    1.385   .     S
C155   C254    1.467   .     S
C156   C157    1.369   .     S
C156   H183    1.062   .     S
C157   C158    1.373   .     D
C157   H184    1.064   .     S
C158   C159    1.382   .     S
C159   C160    1.370   .     D
C159   H185    1.060   .     S
C160   H186    1.062   .     S
O199   H200    1.002   .     S
O199   C229    1.369   .     S
C201   C202    1.366   .     S
C201   C206    1.374   .     D
C201   H261    1.063   .     S
C202   C203    1.385   .     D
C202   H262    1.057   .     S
C203   C204    1.393   .     S
C203   C207    1.469   1_565 S
C204   C205    1.380   .     D
C204   C210    1.387   .     S
C205   C206    1.374   .     S
C205   H263    1.061   .     S
C206   C215    1.457   .     S
C207   C208    1.383   .     D
C207   C211    1.384   .     S
C207   C203    1.469   1_545 S
C208   N209    1.326   .     S
C208   C214    1.370   .     S
N209   C210    1.403   1_545 D
C210   C226    1.459   .     S
C210   N209    1.403   1_565 D
C211   C212    1.370   .     D
C211   H264    1.057   .     S
C212   C213    1.377   .     S
C212   H265    1.063   .     S
C213   C214    1.377   .     D
C214   H266    1.062   .     S
C215   C216    1.373   .     D
C215   C220    1.373   .     S
C216   C217    1.382   .     S
C216   H267    1.059   .     S
C217   C218    1.387   .     D
C217   O224    1.387   .     S
C218   C219    1.392   .     S
C218   C221    1.458   .     S
C219   C220    1.382   .     D
C219   O222    1.387   .     S
C220   H268    1.060   .     S
C221   H269    1.061   .     S
O222   C223    1.400   .     S
C223   H287    1.093   .     S
C223   H288    1.095   .     S
C223   H289    1.087   .     S
O224   C225    1.400   .     S
C225   H290    1.088   .     S
C225   H291    1.100   .     S
C225   H292    1.095   .     S
C226   C227    1.387   .     S
C226   C231    1.386   .     D
C227   C228    1.370   .     D
C227   H270    1.068   .     S
C228   C229    1.381   .     S
C228   H271    1.067   .     S
C229   C230    1.382   .     D
C230   C231    1.370   .     S
C230   H272    1.069   .     S
C231   H273    1.062   .     S
C232   C233    1.374   .     D
C232   C237    1.373   .     S
C233   C234    1.380   .     S
C233   H274    1.059   .     S
C234   C235    1.387   .     D
C234   O239    1.388   .     S
C235   C236    1.394   .     S
C235   C238    1.462   .     S
C236   C237    1.384   .     D
C236   O241    1.387   .     S
C237   H275    1.059   .     S
C238   H276    1.059   .     S
O239   C240    1.402   .     S
C240   H293    1.095   .     S
C240   H294    1.101   .     S
C240   H295    1.087   .     S
O241   C242    1.399   .     S
C242   H296    1.094   .     S
C242   H297    1.094   .     S
C242   H298    1.088   .     S
N243   C249    1.408   .     S
C244   H277    1.057   .     S
C246   C247    1.386   .     D
C246   C251    1.385   .     S
C247   C248    1.369   .     S
C247   H278    1.062   .     S
C248   C249    1.372   .     D
C248   H279    1.064   .     S
C249   C250    1.382   .     S
C250   C251    1.371   .     D
C250   H280    1.061   .     S
C251   H281    1.063   .     S
N252   C258    1.408   .     S
C253   H282    1.057   .     S
C255   C256    1.384   .     S
C255   C260    1.385   .     D
C256   C257    1.369   .     D
C256   H283    1.062   .     S
C257   C258    1.373   .     S
C257   H284    1.064   .     S
C258   C259    1.382   .     D
C259   C260    1.370   .     S
C259   H285    1.060   .     S
C260   H286    1.062   .     S
O299   H300    1.002   .     S
C301   C302    1.366   .     S
C301   C306    1.374   .     D
C301   H361    1.063   .     S
C302   C303    1.385   .     D
C302   H362    1.057   .     S
C303   C304    1.393   .     S
C303   C307    1.469   1_545 S
C304   C305    1.380   .     D
C304   C310    1.387   .     S
C305   C306    1.374   .     S
C305   H363    1.061   .     S
C306   C315    1.457   .     S
C307   C308    1.383   .     D
C307   C311    1.384   .     S
C307   C303    1.469   1_565 S
C308   N309    1.326   .     S
C308   C314    1.370   .     S
N309   C310    1.403   1_565 D
C310   C326    1.459   .     S
C310   N309    1.403   1_545 D
C311   C312    1.370   .     D
C311   H364    1.057   .     S
C312   C313    1.377   .     S
C312   H365    1.063   .     S
C313   C314    1.377   .     D
C313   C432    1.459   .     S
C314   H366    1.062   .     S
C315   C316    1.373   .     D
C315   C320    1.373   .     S
C316   C317    1.382   .     S
C316   H367    1.059   .     S
C317   C318    1.387   .     D
C317   O324    1.387   .     S
C318   C319    1.392   .     S
C318   C321    1.458   .     S
C319   C320    1.382   .     D
C319   O322    1.387   .     S
C320   H368    1.060   .     S
C321   H369    1.061   .     S
C321   N552    1.276   .     D
O322   C323    1.400   .     S
C323   H387    1.093   .     S
C323   H388    1.095   .     S
C323   H389    1.087   .     S
O324   C325    1.400   .     S
C325   H390    1.088   .     S
C325   H391    1.100   .     S
C325   H392    1.095   .     S
C326   C327    1.387   .     S
C326   C331    1.386   .     D
C327   C328    1.370   .     D
C327   H370    1.068   .     S
C328   C329    1.381   .     S
C328   H371    1.067   .     S
C329   C330    1.382   .     D
C329   O599    1.369   .     S
C330   C331    1.370   .     S
C330   H372    1.069   .     S
C331   H373    1.062   .     S
C332   C333    1.374   .     D
C332   C337    1.373   .     S
C332   C513    1.459   .     S
C333   C334    1.380   .     S
C333   H374    1.059   .     S
C334   C335    1.387   .     D
C334   O339    1.388   .     S
C335   C336    1.394   .     S
C335   C338    1.462   .     S
C336   C337    1.384   .     D
C336   O341    1.387   .     S
C337   H375    1.059   .     S
C338   H376    1.059   .     S
C338   N543    1.274   .     D
O339   C340    1.402   .     S
C340   H393    1.095   .     S
C340   H394    1.101   .     S
C340   H395    1.087   .     S
O341   C342    1.399   .     S
C342   H396    1.094   .     S
C342   H397    1.094   .     S
C342   H398    1.088   .     S
N343   C349    1.408   .     S
N343   C438    1.274   .     D
C344   H377    1.057   .     S
C344   C545    1.379   .     S
C344   C445    1.379   .     D
C345   C444    1.379   .     S
C345   C544    1.379   .     D
C345   C546    1.469   .     S
C346   C347    1.386   .     D
C346   C351    1.385   .     S
C346   C445    1.469   .     S
C347   C348    1.369   .     S
C347   H378    1.062   .     S
C348   C349    1.372   .     D
C348   H379    1.064   .     S
C349   C350    1.382   .     S
C350   C351    1.371   .     D
C350   H380    1.061   .     S
C351   H381    1.063   .     S
N352   C358    1.408   .     S
N352   C421    1.276   .     D
C353   H382    1.057   .     S
C353   C554    1.379   .     D
C353   C454    1.378   .     S
C354   C453    1.379   .     D
C354   C553    1.378   .     S
C354   C555    1.467   .     S
C355   C356    1.384   .     D
C355   C360    1.385   .     S
C355   C454    1.467   .     S
C356   C357    1.369   .     S
C356   H383    1.062   .     S
C357   C358    1.373   .     D
C357   H384    1.064   .     S
C358   C359    1.382   .     S
C359   C360    1.370   .     D
C359   H385    1.060   .     S
C360   H386    1.062   .     S
O399   H400    1.002   .     S
O399   C429    1.369   .     S
C401   C402    1.366   .     S
C401   C406    1.374   .     D
C401   H461    1.063   .     S
C402   C403    1.385   .     D
C402   H462    1.057   .     S
C403   C404    1.393   .     S
C403   C407    1.469   .     S
C404   C405    1.380   .     D
C404   C410    1.387   .     S
C405   C406    1.374   .     S
C405   H463    1.061   .     S
C406   C415    1.457   .     S
C407   C408    1.383   .     D
C407   C411    1.384   .     S
C408   N409    1.326   .     S
C408   C414    1.370   .     S
N409   C410    1.403   .     D
C410   C426    1.459   .     S
C411   C412    1.370   .     D
C411   H464    1.057   .     S
C412   C413    1.377   .     S
C412   H465    1.063   .     S
C413   C414    1.377   .     D
C413   C532    1.459   .     S
C414   H466    1.062   .     S
C415   C416    1.373   .     D
C415   C420    1.373   .     S
C416   C417    1.382   .     S
C416   H467    1.059   .     S
C417   C418    1.387   .     D
C417   O424    1.387   .     S
C418   C419    1.392   .     S
C418   C421    1.458   .     S
C419   C420    1.382   .     D
C419   O422    1.387   .     S
C420   H468    1.060   .     S
C421   H469    1.061   .     S
O422   C423    1.400   .     S
C423   H487    1.093   .     S
C423   H488    1.095   .     S
C423   H489    1.087   .     S
O424   C425    1.400   .     S
C425   H490    1.088   .     S
C425   H491    1.100   .     S
C425   H492    1.095   .     S
C426   C427    1.387   .     D
C426   C431    1.386   .     S
C427   C428    1.370   .     S
C427   H470    1.068   .     S
C428   C429    1.381   .     D
C428   H471    1.067   .     S
C429   C430    1.382   .     S
C430   C431    1.370   .     D
C430   H472    1.069   .     S
C431   H473    1.062   .     S
C432   C433    1.374   .     D
C432   C437    1.373   .     S
C433   C434    1.380   .     S
C433   H474    1.059   .     S
C434   C435    1.387   .     D
C434   O439    1.388   .     S
C435   C436    1.394   .     S
C435   C438    1.462   .     S
C436   C437    1.384   .     D
C436   O441    1.387   .     S
C437   H475    1.059   .     S
C438   H476    1.059   .     S
O439   C440    1.402   .     S
C440   H493    1.095   .     S
C440   H494    1.101   .     S
C440   H495    1.087   .     S
O441   C442    1.399   .     S
C442   H496    1.094   .     S
C442   H497    1.094   .     S
C442   H498    1.088   .     S
N443   C449    1.408   .     S
N443   C538    1.274   .     D
C444   H477    1.057   .     S
C444   C545    1.379   .     D
C445   C544    1.379   .     S
C446   C447    1.386   .     D
C446   C451    1.385   .     S
C446   C545    1.469   .     S
C447   C448    1.369   .     S
C447   H478    1.062   .     S
C448   C449    1.372   .     D
C448   H479    1.064   .     S
C449   C450    1.382   .     S
C450   C451    1.371   .     D
C450   H480    1.061   .     S
C451   H481    1.063   .     S
N452   C458    1.408   .     S
N452   C521    1.276   .     D
C453   H482    1.057   .     S
C453   C554    1.378   .     S
C454   C553    1.379   .     D
C455   C456    1.384   .     D
C455   C460    1.385   .     S
C455   C554    1.467   .     S
C456   C457    1.369   .     S
C456   H483    1.062   .     S
C457   C458    1.373   .     D
C457   H484    1.064   .     S
C458   C459    1.382   .     S
C459   C460    1.370   .     D
C459   H485    1.060   .     S
C460   H486    1.062   .     S
O499   H500    1.002   .     S
O499   C529    1.369   .     S
C501   C502    1.366   .     S
C501   C506    1.374   .     D
C501   H561    1.063   .     S
C502   C503    1.385   .     D
C502   H562    1.057   .     S
C503   C504    1.393   .     S
C503   C507    1.469   1_655 S
C504   C505    1.380   .     D
C504   C510    1.387   .     S
C505   C506    1.374   .     S
C505   H563    1.061   .     S
C506   C515    1.457   .     S
C507   C508    1.383   .     D
C507   C511    1.384   .     S
C507   C503    1.469   1_455 S
C508   N509    1.326   .     S
C508   C514    1.370   .     S
N509   C510    1.403   1_455 D
C510   C526    1.459   .     S
C510   N509    1.403   1_655 D
C511   C512    1.370   .     D
C511   H564    1.057   .     S
C512   C513    1.377   .     S
C512   H565    1.063   .     S
C513   C514    1.377   .     D
C514   H566    1.062   .     S
C515   C516    1.373   .     D
C515   C520    1.373   .     S
C516   C517    1.382   .     S
C516   H567    1.059   .     S
C517   C518    1.387   .     D
C517   O524    1.387   .     S
C518   C519    1.392   .     S
C518   C521    1.458   .     S
C519   C520    1.382   .     D
C519   O522    1.387   .     S
C520   H568    1.060   .     S
C521   H569    1.061   .     S
O522   C523    1.400   .     S
C523   H587    1.093   .     S
C523   H588    1.095   .     S
C523   H589    1.087   .     S
O524   C525    1.400   .     S
C525   H590    1.088   .     S
C525   H591    1.100   .     S
C525   H592    1.095   .     S
C526   C527    1.387   .     S
C526   C531    1.386   .     D
C527   C528    1.370   .     D
C527   H570    1.068   .     S
C528   C529    1.381   .     S
C528   H571    1.067   .     S
C529   C530    1.382   .     D
C530   C531    1.370   .     S
C530   H572    1.069   .     S
C531   H573    1.062   .     S
C532   C533    1.374   .     D
C532   C537    1.373   .     S
C533   C534    1.380   .     S
C533   H574    1.059   .     S
C534   C535    1.387   .     D
C534   O539    1.388   .     S
C535   C536    1.394   .     S
C535   C538    1.462   .     S
C536   C537    1.384   .     D
C536   O541    1.387   .     S
C537   H575    1.059   .     S
C538   H576    1.059   .     S
O539   C540    1.402   .     S
C540   H593    1.095   .     S
C540   H594    1.101   .     S
C540   H595    1.087   .     S
O541   C542    1.399   .     S
C542   H596    1.094   .     S
C542   H597    1.094   .     S
C542   H598    1.088   .     S
N543   C549    1.408   .     S
C544   H577    1.057   .     S
C546   C547    1.386   .     D
C546   C551    1.385   .     S
C547   C548    1.369   .     S
C547   H578    1.062   .     S
C548   C549    1.372   .     D
C548   H579    1.064   .     S
C549   C550    1.382   .     S
C550   C551    1.371   .     D
C550   H580    1.061   .     S
C551   H581    1.063   .     S
N552   C558    1.408   .     S
C553   H582    1.057   .     S
C555   C556    1.384   .     S
C555   C560    1.385   .     D
C556   C557    1.369   .     D
C556   H583    1.062   .     S
C557   C558    1.373   .     S
C557   H584    1.064   .     S
C558   C559    1.382   .     D
C559   C560    1.370   .     S
C559   H585    1.060   .     S
C560   H586    1.062   .     S
O599   H600    1.002   .     S
