data_854
_audit_creation_date              2023-09-08
_audit_creation_method            'Materials Studio'
_symmetry_space_group_name_H-M    'P1'
_symmetry_Int_Tables_number       1
_symmetry_cell_setting            triclinic
loop_
_symmetry_equiv_pos_as_xyz
  x,y,z
_cell_length_a                    19.3600
_cell_length_b                    54.1900
_cell_length_c                    25.9000
_cell_angle_alpha                 90.0000
_cell_angle_beta                  90.0000
_cell_angle_gamma                 90.0000
loop_
_atom_site_label
_atom_site_type_symbol
_atom_site_fract_x
_atom_site_fract_y
_atom_site_fract_z
_atom_site_U_iso_or_equiv
_atom_site_adp_type
_atom_site_occupancy
C1     C     0.18337   0.37873   0.79981   0.00000  Uiso   1.00
C2     C     0.21969   0.37684   0.84618   0.00000  Uiso   1.00
C3     C     0.26270   0.39580   0.86219   0.00000  Uiso   1.00
C4     C     0.26878   0.41741   0.83289   0.00000  Uiso   1.00
C5     C     0.22894   0.41994   0.78799   0.00000  Uiso   1.00
C6     C     0.18666   0.40067   0.77141   0.00000  Uiso   1.00
C7     C     0.31561   0.43729   0.85008   0.00000  Uiso   1.00
C8     C     0.35432   0.45142   0.81512   0.00000  Uiso   1.00
C9     C     0.39548   0.47093   0.83268   0.00000  Uiso   1.00
C10    C     0.39725   0.47704   0.88532   0.00000  Uiso   1.00
C11    C     0.36428   0.46096   0.91960   0.00000  Uiso   1.00
C12    C     0.32275   0.44194   0.90259   0.00000  Uiso   1.00
C13    C     0.15660   0.35599   0.77711   0.00000  Uiso   1.00
N14    N     0.14995   0.35437   0.72766   0.00000  Uiso   1.00
C15    C     0.16323   0.33181   0.70153   0.00000  Uiso   1.00
C16    C     0.12264   0.32465   0.65964   0.00000  Uiso   1.00
C17    C     0.14210   0.30426   0.63025   0.00000  Uiso   1.00
C18    C     0.20442   0.29183   0.64094   0.00000  Uiso   1.00
C19    C     0.24406   0.29889   0.68350   0.00000  Uiso   1.00
C20    C     0.22357   0.31861   0.71357   0.00000  Uiso   1.00
C21    C     0.27174   0.22897   0.60921   0.00000  Uiso   1.00
C22    C     0.26826   0.22836   0.55502   0.00000  Uiso   1.00
C23    C     0.28003   0.20672   0.52679   0.00000  Uiso   1.00
H24    H     0.21408   0.35963   0.87114   0.00000  Uiso   1.00
H25    H     0.29349   0.39388   0.89949   0.00000  Uiso   1.00
H26    H     0.23101   0.43782   0.76484   0.00000  Uiso   1.00
H27    H     0.15473   0.40278   0.73469   0.00000  Uiso   1.00
H28    H     0.35239   0.44705   0.77209   0.00000  Uiso   1.00
H29    H     0.42790   0.48199   0.80415   0.00000  Uiso   1.00
H30    H     0.37135   0.46337   0.96301   0.00000  Uiso   1.00
H31    H     0.29419   0.43000   0.93188   0.00000  Uiso   1.00
H32    H     0.14176   0.33984   0.80304   0.00000  Uiso   1.00
H33    H     0.07392   0.33545   0.64964   0.00000  Uiso   1.00
H34    H     0.10757   0.29759   0.59744   0.00000  Uiso   1.00
H35    H     0.29331   0.28837   0.69339   0.00000  Uiso   1.00
H36    H     0.25570   0.32430   0.74849   0.00000  Uiso   1.00
H37    H     0.28990   0.18858   0.54781   0.00000  Uiso   1.00
C38    C     0.68337   0.87873   0.79981   0.00000  Uiso   1.00
C39    C     0.71969   0.87684   0.84618   0.00000  Uiso   1.00
C40    C     0.76270   0.89580   0.86219   0.00000  Uiso   1.00
C41    C     0.76878   0.91741   0.83289   0.00000  Uiso   1.00
C42    C     0.72894   0.91994   0.78799   0.00000  Uiso   1.00
C43    C     0.68666   0.90067   0.77141   0.00000  Uiso   1.00
C44    C     0.81561   0.93729   0.85008   0.00000  Uiso   1.00
C45    C     0.85432   0.95142   0.81512   0.00000  Uiso   1.00
C46    C     0.89548   0.97093   0.83268   0.00000  Uiso   1.00
C47    C     0.89725   0.97704   0.88532   0.00000  Uiso   1.00
C48    C     0.86428   0.96096   0.91960   0.00000  Uiso   1.00
C49    C     0.82275   0.94194   0.90259   0.00000  Uiso   1.00
C50    C     0.65660   0.85599   0.77711   0.00000  Uiso   1.00
N51    N     0.64995   0.85437   0.72766   0.00000  Uiso   1.00
C52    C     0.66323   0.83181   0.70153   0.00000  Uiso   1.00
C53    C     0.62264   0.82465   0.65964   0.00000  Uiso   1.00
C54    C     0.64210   0.80426   0.63025   0.00000  Uiso   1.00
C55    C     0.70442   0.79183   0.64094   0.00000  Uiso   1.00
C56    C     0.74406   0.79889   0.68350   0.00000  Uiso   1.00
C57    C     0.72357   0.81861   0.71357   0.00000  Uiso   1.00
C58    C     0.77174   0.72897   0.60921   0.00000  Uiso   1.00
C59    C     0.76826   0.72836   0.55502   0.00000  Uiso   1.00
C60    C     0.78003   0.70672   0.52679   0.00000  Uiso   1.00
H61    H     0.71408   0.85963   0.87114   0.00000  Uiso   1.00
H62    H     0.79349   0.89388   0.89949   0.00000  Uiso   1.00
H63    H     0.73101   0.93782   0.76484   0.00000  Uiso   1.00
H64    H     0.65473   0.90278   0.73469   0.00000  Uiso   1.00
H65    H     0.85239   0.94705   0.77209   0.00000  Uiso   1.00
H66    H     0.92790   0.98199   0.80415   0.00000  Uiso   1.00
H67    H     0.87135   0.96337   0.96301   0.00000  Uiso   1.00
H68    H     0.79419   0.93000   0.93188   0.00000  Uiso   1.00
H69    H     0.64176   0.83984   0.80304   0.00000  Uiso   1.00
H70    H     0.57392   0.83545   0.64964   0.00000  Uiso   1.00
H71    H     0.60757   0.79759   0.59744   0.00000  Uiso   1.00
H72    H     0.79331   0.78837   0.69339   0.00000  Uiso   1.00
H73    H     0.75570   0.82430   0.74849   0.00000  Uiso   1.00
H74    H     0.78990   0.68858   0.54781   0.00000  Uiso   1.00
C75    C     0.81663   0.62127   0.79981   0.00000  Uiso   1.00
C76    C     0.78031   0.62316   0.84618   0.00000  Uiso   1.00
C77    C     0.73730   0.60420   0.86219   0.00000  Uiso   1.00
C78    C     0.73122   0.58259   0.83289   0.00000  Uiso   1.00
C79    C     0.77106   0.58006   0.78799   0.00000  Uiso   1.00
C80    C     0.81334   0.59933   0.77141   0.00000  Uiso   1.00
C81    C     0.68439   0.56271   0.85008   0.00000  Uiso   1.00
C82    C     0.64568   0.54858   0.81512   0.00000  Uiso   1.00
C83    C     0.60452   0.52907   0.83268   0.00000  Uiso   1.00
C84    C     0.60275   0.52296   0.88532   0.00000  Uiso   1.00
C85    C     0.63572   0.53904   0.91960   0.00000  Uiso   1.00
C86    C     0.67725   0.55806   0.90259   0.00000  Uiso   1.00
C87    C     0.84340   0.64401   0.77711   0.00000  Uiso   1.00
N88    N     0.85005   0.64563   0.72766   0.00000  Uiso   1.00
C89    C     0.83677   0.66819   0.70153   0.00000  Uiso   1.00
C90    C     0.87736   0.67535   0.65964   0.00000  Uiso   1.00
C91    C     0.85790   0.69574   0.63025   0.00000  Uiso   1.00
C92    C     0.79558   0.70817   0.64094   0.00000  Uiso   1.00
C93    C     0.75594   0.70111   0.68350   0.00000  Uiso   1.00
C94    C     0.77643   0.68139   0.71357   0.00000  Uiso   1.00
C95    C     0.72826   0.77103   0.60921   0.00000  Uiso   1.00
C96    C     0.73174   0.77164   0.55502   0.00000  Uiso   1.00
C97    C     0.71997   0.79328   0.52679   0.00000  Uiso   1.00
H98    H     0.78592   0.64037   0.87114   0.00000  Uiso   1.00
H99    H     0.70651   0.60612   0.89949   0.00000  Uiso   1.00
H100   H     0.76899   0.56218   0.76484   0.00000  Uiso   1.00
H101   H     0.84527   0.59722   0.73469   0.00000  Uiso   1.00
H102   H     0.64761   0.55295   0.77209   0.00000  Uiso   1.00
H103   H     0.57210   0.51801   0.80415   0.00000  Uiso   1.00
H104   H     0.62865   0.53663   0.96301   0.00000  Uiso   1.00
H105   H     0.70581   0.57000   0.93188   0.00000  Uiso   1.00
H106   H     0.85824   0.66016   0.80304   0.00000  Uiso   1.00
H107   H     0.92608   0.66455   0.64964   0.00000  Uiso   1.00
H108   H     0.89243   0.70241   0.59744   0.00000  Uiso   1.00
H109   H     0.70669   0.71163   0.69339   0.00000  Uiso   1.00
H110   H     0.74430   0.67570   0.74849   0.00000  Uiso   1.00
H111   H     0.71010   0.81142   0.54781   0.00000  Uiso   1.00
C112   C     0.31663   0.12127   0.79981   0.00000  Uiso   1.00
C113   C     0.28031   0.12316   0.84618   0.00000  Uiso   1.00
C114   C     0.23730   0.10420   0.86219   0.00000  Uiso   1.00
C115   C     0.23122   0.08259   0.83289   0.00000  Uiso   1.00
C116   C     0.27106   0.08006   0.78799   0.00000  Uiso   1.00
C117   C     0.31334   0.09933   0.77141   0.00000  Uiso   1.00
C118   C     0.18439   0.06271   0.85008   0.00000  Uiso   1.00
C119   C     0.14568   0.04858   0.81512   0.00000  Uiso   1.00
C120   C     0.10452   0.02907   0.83268   0.00000  Uiso   1.00
C121   C     0.10275   0.02296   0.88532   0.00000  Uiso   1.00
C122   C     0.13572   0.03904   0.91960   0.00000  Uiso   1.00
C123   C     0.17725   0.05806   0.90259   0.00000  Uiso   1.00
C124   C     0.34340   0.14401   0.77711   0.00000  Uiso   1.00
N125   N     0.35005   0.14563   0.72766   0.00000  Uiso   1.00
C126   C     0.33677   0.16819   0.70153   0.00000  Uiso   1.00
C127   C     0.37736   0.17535   0.65964   0.00000  Uiso   1.00
C128   C     0.35790   0.19574   0.63025   0.00000  Uiso   1.00
C129   C     0.29558   0.20817   0.64094   0.00000  Uiso   1.00
C130   C     0.25594   0.20111   0.68350   0.00000  Uiso   1.00
C131   C     0.27643   0.18139   0.71357   0.00000  Uiso   1.00
C132   C     0.22826   0.27103   0.60921   0.00000  Uiso   1.00
C133   C     0.23174   0.27164   0.55502   0.00000  Uiso   1.00
C134   C     0.21997   0.29328   0.52679   0.00000  Uiso   1.00
H135   H     0.28592   0.14037   0.87114   0.00000  Uiso   1.00
H136   H     0.20651   0.10612   0.89949   0.00000  Uiso   1.00
H137   H     0.26899   0.06218   0.76484   0.00000  Uiso   1.00
H138   H     0.34527   0.09722   0.73469   0.00000  Uiso   1.00
H139   H     0.14761   0.05295   0.77209   0.00000  Uiso   1.00
H140   H     0.07210   0.01801   0.80415   0.00000  Uiso   1.00
H141   H     0.12865   0.03663   0.96301   0.00000  Uiso   1.00
H142   H     0.20581   0.07000   0.93188   0.00000  Uiso   1.00
H143   H     0.35824   0.16016   0.80304   0.00000  Uiso   1.00
H144   H     0.42608   0.16455   0.64964   0.00000  Uiso   1.00
H145   H     0.39243   0.20241   0.59744   0.00000  Uiso   1.00
H146   H     0.20669   0.21163   0.69339   0.00000  Uiso   1.00
H147   H     0.24430   0.17570   0.74849   0.00000  Uiso   1.00
H148   H     0.21010   0.31142   0.54781   0.00000  Uiso   1.00
C149   C     0.81663   0.37873   0.20019   0.00000  Uiso   1.00
C150   C     0.78031   0.37684   0.15382   0.00000  Uiso   1.00
C151   C     0.73730   0.39580   0.13781   0.00000  Uiso   1.00
C152   C     0.73122   0.41741   0.16711   0.00000  Uiso   1.00
C153   C     0.77106   0.41994   0.21201   0.00000  Uiso   1.00
C154   C     0.81334   0.40067   0.22859   0.00000  Uiso   1.00
C155   C     0.68439   0.43729   0.14992   0.00000  Uiso   1.00
C156   C     0.64568   0.45142   0.18488   0.00000  Uiso   1.00
C157   C     0.60452   0.47093   0.16732   0.00000  Uiso   1.00
C158   C     0.60275   0.47704   0.11468   0.00000  Uiso   1.00
C159   C     0.63572   0.46096   0.08040   0.00000  Uiso   1.00
C160   C     0.67725   0.44194   0.09741   0.00000  Uiso   1.00
C161   C     0.84340   0.35599   0.22289   0.00000  Uiso   1.00
N162   N     0.85005   0.35437   0.27234   0.00000  Uiso   1.00
C163   C     0.83677   0.33181   0.29847   0.00000  Uiso   1.00
C164   C     0.87736   0.32465   0.34036   0.00000  Uiso   1.00
C165   C     0.85790   0.30426   0.36975   0.00000  Uiso   1.00
C166   C     0.79558   0.29183   0.35906   0.00000  Uiso   1.00
C167   C     0.75594   0.29889   0.31650   0.00000  Uiso   1.00
C168   C     0.77643   0.31861   0.28643   0.00000  Uiso   1.00
C169   C     0.72826   0.22897   0.39079   0.00000  Uiso   1.00
C170   C     0.73174   0.22836   0.44498   0.00000  Uiso   1.00
C171   C     0.71997   0.20672   0.47321   0.00000  Uiso   1.00
H172   H     0.78592   0.35963   0.12886   0.00000  Uiso   1.00
H173   H     0.70651   0.39388   0.10051   0.00000  Uiso   1.00
H174   H     0.76899   0.43782   0.23516   0.00000  Uiso   1.00
H175   H     0.84527   0.40278   0.26531   0.00000  Uiso   1.00
H176   H     0.64761   0.44705   0.22791   0.00000  Uiso   1.00
H177   H     0.57210   0.48199   0.19585   0.00000  Uiso   1.00
H178   H     0.62865   0.46337   0.03699   0.00000  Uiso   1.00
H179   H     0.70581   0.43000   0.06812   0.00000  Uiso   1.00
H180   H     0.85824   0.33984   0.19696   0.00000  Uiso   1.00
H181   H     0.92608   0.33545   0.35036   0.00000  Uiso   1.00
H182   H     0.89243   0.29759   0.40256   0.00000  Uiso   1.00
H183   H     0.70669   0.28837   0.30661   0.00000  Uiso   1.00
H184   H     0.74430   0.32430   0.25151   0.00000  Uiso   1.00
H185   H     0.71010   0.18858   0.45219   0.00000  Uiso   1.00
C186   C     0.31663   0.87873   0.20019   0.00000  Uiso   1.00
C187   C     0.28031   0.87684   0.15382   0.00000  Uiso   1.00
C188   C     0.23730   0.89580   0.13781   0.00000  Uiso   1.00
C189   C     0.23122   0.91741   0.16711   0.00000  Uiso   1.00
C190   C     0.27106   0.91994   0.21201   0.00000  Uiso   1.00
C191   C     0.31334   0.90067   0.22859   0.00000  Uiso   1.00
C192   C     0.18439   0.93729   0.14992   0.00000  Uiso   1.00
C193   C     0.14568   0.95142   0.18488   0.00000  Uiso   1.00
C194   C     0.10452   0.97093   0.16732   0.00000  Uiso   1.00
C195   C     0.10275   0.97704   0.11468   0.00000  Uiso   1.00
C196   C     0.13572   0.96096   0.08040   0.00000  Uiso   1.00
C197   C     0.17725   0.94194   0.09741   0.00000  Uiso   1.00
C198   C     0.34340   0.85599   0.22289   0.00000  Uiso   1.00
N199   N     0.35005   0.85437   0.27234   0.00000  Uiso   1.00
C200   C     0.33677   0.83181   0.29847   0.00000  Uiso   1.00
C201   C     0.37736   0.82465   0.34036   0.00000  Uiso   1.00
C202   C     0.35790   0.80426   0.36975   0.00000  Uiso   1.00
C203   C     0.29558   0.79183   0.35906   0.00000  Uiso   1.00
C204   C     0.25594   0.79889   0.31650   0.00000  Uiso   1.00
C205   C     0.27643   0.81861   0.28643   0.00000  Uiso   1.00
C206   C     0.22826   0.72897   0.39079   0.00000  Uiso   1.00
C207   C     0.23174   0.72836   0.44498   0.00000  Uiso   1.00
C208   C     0.21997   0.70672   0.47321   0.00000  Uiso   1.00
H209   H     0.28592   0.85963   0.12886   0.00000  Uiso   1.00
H210   H     0.20651   0.89388   0.10051   0.00000  Uiso   1.00
H211   H     0.26899   0.93782   0.23516   0.00000  Uiso   1.00
H212   H     0.34527   0.90278   0.26531   0.00000  Uiso   1.00
H213   H     0.14761   0.94705   0.22791   0.00000  Uiso   1.00
H214   H     0.07210   0.98199   0.19585   0.00000  Uiso   1.00
H215   H     0.12865   0.96337   0.03699   0.00000  Uiso   1.00
H216   H     0.20581   0.93000   0.06812   0.00000  Uiso   1.00
H217   H     0.35824   0.83984   0.19696   0.00000  Uiso   1.00
H218   H     0.42608   0.83545   0.35036   0.00000  Uiso   1.00
H219   H     0.39243   0.79759   0.40256   0.00000  Uiso   1.00
H220   H     0.20669   0.78837   0.30661   0.00000  Uiso   1.00
H221   H     0.24430   0.82430   0.25151   0.00000  Uiso   1.00
H222   H     0.21010   0.68858   0.45219   0.00000  Uiso   1.00
C223   C     0.18337   0.62127   0.20019   0.00000  Uiso   1.00
C224   C     0.21969   0.62316   0.15382   0.00000  Uiso   1.00
C225   C     0.26270   0.60420   0.13781   0.00000  Uiso   1.00
C226   C     0.26878   0.58259   0.16711   0.00000  Uiso   1.00
C227   C     0.22894   0.58006   0.21201   0.00000  Uiso   1.00
C228   C     0.18666   0.59933   0.22859   0.00000  Uiso   1.00
C229   C     0.31561   0.56271   0.14992   0.00000  Uiso   1.00
C230   C     0.35432   0.54858   0.18488   0.00000  Uiso   1.00
C231   C     0.39548   0.52907   0.16732   0.00000  Uiso   1.00
C232   C     0.39725   0.52296   0.11468   0.00000  Uiso   1.00
C233   C     0.36428   0.53904   0.08040   0.00000  Uiso   1.00
C234   C     0.32275   0.55806   0.09741   0.00000  Uiso   1.00
C235   C     0.15660   0.64401   0.22289   0.00000  Uiso   1.00
N236   N     0.14995   0.64563   0.27234   0.00000  Uiso   1.00
C237   C     0.16323   0.66819   0.29847   0.00000  Uiso   1.00
C238   C     0.12264   0.67535   0.34036   0.00000  Uiso   1.00
C239   C     0.14210   0.69574   0.36975   0.00000  Uiso   1.00
C240   C     0.20442   0.70817   0.35906   0.00000  Uiso   1.00
C241   C     0.24406   0.70111   0.31650   0.00000  Uiso   1.00
C242   C     0.22357   0.68139   0.28643   0.00000  Uiso   1.00
C243   C     0.27174   0.77103   0.39079   0.00000  Uiso   1.00
C244   C     0.26826   0.77164   0.44498   0.00000  Uiso   1.00
C245   C     0.28003   0.79328   0.47321   0.00000  Uiso   1.00
H246   H     0.21408   0.64037   0.12886   0.00000  Uiso   1.00
H247   H     0.29349   0.60612   0.10051   0.00000  Uiso   1.00
H248   H     0.23101   0.56218   0.23516   0.00000  Uiso   1.00
H249   H     0.15473   0.59722   0.26531   0.00000  Uiso   1.00
H250   H     0.35239   0.55295   0.22791   0.00000  Uiso   1.00
H251   H     0.42790   0.51801   0.19585   0.00000  Uiso   1.00
H252   H     0.37135   0.53663   0.03699   0.00000  Uiso   1.00
H253   H     0.29419   0.57000   0.06812   0.00000  Uiso   1.00
H254   H     0.14176   0.66016   0.19696   0.00000  Uiso   1.00
H255   H     0.07392   0.66455   0.35036   0.00000  Uiso   1.00
H256   H     0.10757   0.70241   0.40256   0.00000  Uiso   1.00
H257   H     0.29331   0.71163   0.30661   0.00000  Uiso   1.00
H258   H     0.25570   0.67570   0.25151   0.00000  Uiso   1.00
H259   H     0.28990   0.81142   0.45219   0.00000  Uiso   1.00
C260   C     0.68337   0.12127   0.20019   0.00000  Uiso   1.00
C261   C     0.71969   0.12316   0.15382   0.00000  Uiso   1.00
C262   C     0.76270   0.10420   0.13781   0.00000  Uiso   1.00
C263   C     0.76878   0.08259   0.16711   0.00000  Uiso   1.00
C264   C     0.72894   0.08006   0.21201   0.00000  Uiso   1.00
C265   C     0.68666   0.09933   0.22859   0.00000  Uiso   1.00
C266   C     0.81561   0.06271   0.14992   0.00000  Uiso   1.00
C267   C     0.85432   0.04858   0.18488   0.00000  Uiso   1.00
C268   C     0.89548   0.02907   0.16732   0.00000  Uiso   1.00
C269   C     0.89725   0.02296   0.11468   0.00000  Uiso   1.00
C270   C     0.86428   0.03904   0.08040   0.00000  Uiso   1.00
C271   C     0.82275   0.05806   0.09741   0.00000  Uiso   1.00
C272   C     0.65660   0.14401   0.22289   0.00000  Uiso   1.00
N273   N     0.64995   0.14563   0.27234   0.00000  Uiso   1.00
C274   C     0.66323   0.16819   0.29847   0.00000  Uiso   1.00
C275   C     0.62264   0.17535   0.34036   0.00000  Uiso   1.00
C276   C     0.64210   0.19574   0.36975   0.00000  Uiso   1.00
C277   C     0.70442   0.20817   0.35906   0.00000  Uiso   1.00
C278   C     0.74406   0.20111   0.31650   0.00000  Uiso   1.00
C279   C     0.72357   0.18139   0.28643   0.00000  Uiso   1.00
C280   C     0.77174   0.27103   0.39079   0.00000  Uiso   1.00
C281   C     0.76826   0.27164   0.44498   0.00000  Uiso   1.00
C282   C     0.78003   0.29328   0.47321   0.00000  Uiso   1.00
H283   H     0.71408   0.14037   0.12886   0.00000  Uiso   1.00
H284   H     0.79349   0.10612   0.10051   0.00000  Uiso   1.00
H285   H     0.73101   0.06218   0.23516   0.00000  Uiso   1.00
H286   H     0.65473   0.09722   0.26531   0.00000  Uiso   1.00
H287   H     0.85239   0.05295   0.22791   0.00000  Uiso   1.00
H288   H     0.92790   0.01801   0.19585   0.00000  Uiso   1.00
H289   H     0.87135   0.03663   0.03699   0.00000  Uiso   1.00
H290   H     0.79419   0.07000   0.06812   0.00000  Uiso   1.00
H291   H     0.64176   0.16016   0.19696   0.00000  Uiso   1.00
H292   H     0.57392   0.16455   0.35036   0.00000  Uiso   1.00
H293   H     0.60757   0.20241   0.40256   0.00000  Uiso   1.00
H294   H     0.79331   0.21163   0.30661   0.00000  Uiso   1.00
H295   H     0.75570   0.17570   0.25151   0.00000  Uiso   1.00
H296   H     0.78990   0.31142   0.45219   0.00000  Uiso   1.00
C297   C     0.81663   0.62127   0.20019   0.00000  Uiso   1.00
C298   C     0.78031   0.62316   0.15382   0.00000  Uiso   1.00
C299   C     0.73730   0.60420   0.13781   0.00000  Uiso   1.00
C300   C     0.73122   0.58259   0.16711   0.00000  Uiso   1.00
C301   C     0.77106   0.58006   0.21201   0.00000  Uiso   1.00
C302   C     0.81334   0.59933   0.22859   0.00000  Uiso   1.00
C303   C     0.68439   0.56271   0.14992   0.00000  Uiso   1.00
C304   C     0.64568   0.54858   0.18488   0.00000  Uiso   1.00
C305   C     0.60452   0.52907   0.16732   0.00000  Uiso   1.00
C306   C     0.60275   0.52296   0.11468   0.00000  Uiso   1.00
C307   C     0.63572   0.53904   0.08040   0.00000  Uiso   1.00
C308   C     0.67725   0.55806   0.09741   0.00000  Uiso   1.00
C309   C     0.84340   0.64401   0.22289   0.00000  Uiso   1.00
N310   N     0.85005   0.64563   0.27234   0.00000  Uiso   1.00
C311   C     0.83677   0.66819   0.29847   0.00000  Uiso   1.00
C312   C     0.87736   0.67535   0.34036   0.00000  Uiso   1.00
C313   C     0.85790   0.69574   0.36975   0.00000  Uiso   1.00
C314   C     0.79558   0.70817   0.35906   0.00000  Uiso   1.00
C315   C     0.75594   0.70111   0.31650   0.00000  Uiso   1.00
C316   C     0.77643   0.68139   0.28643   0.00000  Uiso   1.00
C317   C     0.72826   0.77103   0.39079   0.00000  Uiso   1.00
C318   C     0.73174   0.77164   0.44498   0.00000  Uiso   1.00
C319   C     0.71997   0.79328   0.47321   0.00000  Uiso   1.00
H320   H     0.78592   0.64037   0.12886   0.00000  Uiso   1.00
H321   H     0.70651   0.60612   0.10051   0.00000  Uiso   1.00
H322   H     0.76899   0.56218   0.23516   0.00000  Uiso   1.00
H323   H     0.84527   0.59722   0.26531   0.00000  Uiso   1.00
H324   H     0.64761   0.55295   0.22791   0.00000  Uiso   1.00
H325   H     0.57210   0.51801   0.19585   0.00000  Uiso   1.00
H326   H     0.62865   0.53663   0.03699   0.00000  Uiso   1.00
H327   H     0.70581   0.57000   0.06812   0.00000  Uiso   1.00
H328   H     0.85824   0.66016   0.19696   0.00000  Uiso   1.00
H329   H     0.92608   0.66455   0.35036   0.00000  Uiso   1.00
H330   H     0.89243   0.70241   0.40256   0.00000  Uiso   1.00
H331   H     0.70669   0.71163   0.30661   0.00000  Uiso   1.00
H332   H     0.74430   0.67570   0.25151   0.00000  Uiso   1.00
H333   H     0.71010   0.81142   0.45219   0.00000  Uiso   1.00
C334   C     0.31663   0.12127   0.20019   0.00000  Uiso   1.00
C335   C     0.28031   0.12316   0.15382   0.00000  Uiso   1.00
C336   C     0.23730   0.10420   0.13781   0.00000  Uiso   1.00
C337   C     0.23122   0.08259   0.16711   0.00000  Uiso   1.00
C338   C     0.27106   0.08006   0.21201   0.00000  Uiso   1.00
C339   C     0.31334   0.09933   0.22859   0.00000  Uiso   1.00
C340   C     0.18439   0.06271   0.14992   0.00000  Uiso   1.00
C341   C     0.14568   0.04858   0.18488   0.00000  Uiso   1.00
C342   C     0.10452   0.02907   0.16732   0.00000  Uiso   1.00
C343   C     0.10275   0.02296   0.11468   0.00000  Uiso   1.00
C344   C     0.13572   0.03904   0.08040   0.00000  Uiso   1.00
C345   C     0.17725   0.05806   0.09741   0.00000  Uiso   1.00
C346   C     0.34340   0.14401   0.22289   0.00000  Uiso   1.00
N347   N     0.35005   0.14563   0.27234   0.00000  Uiso   1.00
C348   C     0.33677   0.16819   0.29847   0.00000  Uiso   1.00
C349   C     0.37736   0.17535   0.34036   0.00000  Uiso   1.00
C350   C     0.35790   0.19574   0.36975   0.00000  Uiso   1.00
C351   C     0.29558   0.20817   0.35906   0.00000  Uiso   1.00
C352   C     0.25594   0.20111   0.31650   0.00000  Uiso   1.00
C353   C     0.27643   0.18139   0.28643   0.00000  Uiso   1.00
C354   C     0.22826   0.27103   0.39079   0.00000  Uiso   1.00
C355   C     0.23174   0.27164   0.44498   0.00000  Uiso   1.00
C356   C     0.21997   0.29328   0.47321   0.00000  Uiso   1.00
H357   H     0.28592   0.14037   0.12886   0.00000  Uiso   1.00
H358   H     0.20651   0.10612   0.10051   0.00000  Uiso   1.00
H359   H     0.26899   0.06218   0.23516   0.00000  Uiso   1.00
H360   H     0.34527   0.09722   0.26531   0.00000  Uiso   1.00
H361   H     0.14761   0.05295   0.22791   0.00000  Uiso   1.00
H362   H     0.07210   0.01801   0.19585   0.00000  Uiso   1.00
H363   H     0.12865   0.03663   0.03699   0.00000  Uiso   1.00
H364   H     0.20581   0.07000   0.06812   0.00000  Uiso   1.00
H365   H     0.35824   0.16016   0.19696   0.00000  Uiso   1.00
H366   H     0.42608   0.16455   0.35036   0.00000  Uiso   1.00
H367   H     0.39243   0.20241   0.40256   0.00000  Uiso   1.00
H368   H     0.20669   0.21163   0.30661   0.00000  Uiso   1.00
H369   H     0.24430   0.17570   0.25151   0.00000  Uiso   1.00
H370   H     0.21010   0.31142   0.45219   0.00000  Uiso   1.00
C371   C     0.18337   0.37873   0.20019   0.00000  Uiso   1.00
C372   C     0.21969   0.37684   0.15382   0.00000  Uiso   1.00
C373   C     0.26270   0.39580   0.13781   0.00000  Uiso   1.00
C374   C     0.26878   0.41741   0.16711   0.00000  Uiso   1.00
C375   C     0.22894   0.41994   0.21201   0.00000  Uiso   1.00
C376   C     0.18666   0.40067   0.22859   0.00000  Uiso   1.00
C377   C     0.31561   0.43729   0.14992   0.00000  Uiso   1.00
C378   C     0.35432   0.45142   0.18488   0.00000  Uiso   1.00
C379   C     0.39548   0.47093   0.16732   0.00000  Uiso   1.00
C380   C     0.39725   0.47704   0.11468   0.00000  Uiso   1.00
C381   C     0.36428   0.46096   0.08040   0.00000  Uiso   1.00
C382   C     0.32275   0.44194   0.09741   0.00000  Uiso   1.00
C383   C     0.15660   0.35599   0.22289   0.00000  Uiso   1.00
N384   N     0.14995   0.35437   0.27234   0.00000  Uiso   1.00
C385   C     0.16323   0.33181   0.29847   0.00000  Uiso   1.00
C386   C     0.12264   0.32465   0.34036   0.00000  Uiso   1.00
C387   C     0.14210   0.30426   0.36975   0.00000  Uiso   1.00
C388   C     0.20442   0.29183   0.35906   0.00000  Uiso   1.00
C389   C     0.24406   0.29889   0.31650   0.00000  Uiso   1.00
C390   C     0.22357   0.31861   0.28643   0.00000  Uiso   1.00
C391   C     0.27174   0.22897   0.39079   0.00000  Uiso   1.00
C392   C     0.26826   0.22836   0.44498   0.00000  Uiso   1.00
C393   C     0.28003   0.20672   0.47321   0.00000  Uiso   1.00
H394   H     0.21408   0.35963   0.12886   0.00000  Uiso   1.00
H395   H     0.29349   0.39388   0.10051   0.00000  Uiso   1.00
H396   H     0.23101   0.43782   0.23516   0.00000  Uiso   1.00
H397   H     0.15473   0.40278   0.26531   0.00000  Uiso   1.00
H398   H     0.35239   0.44705   0.22791   0.00000  Uiso   1.00
H399   H     0.42790   0.48199   0.19585   0.00000  Uiso   1.00
H400   H     0.37135   0.46337   0.03699   0.00000  Uiso   1.00
H401   H     0.29419   0.43000   0.06812   0.00000  Uiso   1.00
H402   H     0.14176   0.33984   0.19696   0.00000  Uiso   1.00
H403   H     0.07392   0.33545   0.35036   0.00000  Uiso   1.00
H404   H     0.10757   0.29759   0.40256   0.00000  Uiso   1.00
H405   H     0.29331   0.28837   0.30661   0.00000  Uiso   1.00
H406   H     0.25570   0.32430   0.25151   0.00000  Uiso   1.00
H407   H     0.28990   0.18858   0.45219   0.00000  Uiso   1.00
C408   C     0.68337   0.87873   0.20019   0.00000  Uiso   1.00
C409   C     0.71969   0.87684   0.15382   0.00000  Uiso   1.00
C410   C     0.76270   0.89580   0.13781   0.00000  Uiso   1.00
C411   C     0.76878   0.91741   0.16711   0.00000  Uiso   1.00
C412   C     0.72894   0.91994   0.21201   0.00000  Uiso   1.00
C413   C     0.68666   0.90067   0.22859   0.00000  Uiso   1.00
C414   C     0.81561   0.93729   0.14992   0.00000  Uiso   1.00
C415   C     0.85432   0.95142   0.18488   0.00000  Uiso   1.00
C416   C     0.89548   0.97093   0.16732   0.00000  Uiso   1.00
C417   C     0.89725   0.97704   0.11468   0.00000  Uiso   1.00
C418   C     0.86428   0.96096   0.08040   0.00000  Uiso   1.00
C419   C     0.82275   0.94194   0.09741   0.00000  Uiso   1.00
C420   C     0.65660   0.85599   0.22289   0.00000  Uiso   1.00
N421   N     0.64995   0.85437   0.27234   0.00000  Uiso   1.00
C422   C     0.66323   0.83181   0.29847   0.00000  Uiso   1.00
C423   C     0.62264   0.82465   0.34036   0.00000  Uiso   1.00
C424   C     0.64210   0.80426   0.36975   0.00000  Uiso   1.00
C425   C     0.70442   0.79183   0.35906   0.00000  Uiso   1.00
C426   C     0.74406   0.79889   0.31650   0.00000  Uiso   1.00
C427   C     0.72357   0.81861   0.28643   0.00000  Uiso   1.00
C428   C     0.77174   0.72897   0.39079   0.00000  Uiso   1.00
C429   C     0.76826   0.72836   0.44498   0.00000  Uiso   1.00
C430   C     0.78003   0.70672   0.47321   0.00000  Uiso   1.00
H431   H     0.71408   0.85963   0.12886   0.00000  Uiso   1.00
H432   H     0.79349   0.89388   0.10051   0.00000  Uiso   1.00
H433   H     0.73101   0.93782   0.23516   0.00000  Uiso   1.00
H434   H     0.65473   0.90278   0.26531   0.00000  Uiso   1.00
H435   H     0.85239   0.94705   0.22791   0.00000  Uiso   1.00
H436   H     0.92790   0.98199   0.19585   0.00000  Uiso   1.00
H437   H     0.87135   0.96337   0.03699   0.00000  Uiso   1.00
H438   H     0.79419   0.93000   0.06812   0.00000  Uiso   1.00
H439   H     0.64176   0.83984   0.19696   0.00000  Uiso   1.00
H440   H     0.57392   0.83545   0.35036   0.00000  Uiso   1.00
H441   H     0.60757   0.79759   0.40256   0.00000  Uiso   1.00
H442   H     0.79331   0.78837   0.30661   0.00000  Uiso   1.00
H443   H     0.75570   0.82430   0.25151   0.00000  Uiso   1.00
H444   H     0.78990   0.68858   0.45219   0.00000  Uiso   1.00
C445   C     0.18337   0.62127   0.79981   0.00000  Uiso   1.00
C446   C     0.21969   0.62316   0.84618   0.00000  Uiso   1.00
C447   C     0.26270   0.60420   0.86219   0.00000  Uiso   1.00
C448   C     0.26878   0.58259   0.83289   0.00000  Uiso   1.00
C449   C     0.22894   0.58006   0.78799   0.00000  Uiso   1.00
C450   C     0.18666   0.59933   0.77141   0.00000  Uiso   1.00
C451   C     0.31561   0.56271   0.85008   0.00000  Uiso   1.00
C452   C     0.35432   0.54858   0.81512   0.00000  Uiso   1.00
C453   C     0.39548   0.52907   0.83268   0.00000  Uiso   1.00
C454   C     0.39725   0.52296   0.88532   0.00000  Uiso   1.00
C455   C     0.36428   0.53904   0.91960   0.00000  Uiso   1.00
C456   C     0.32275   0.55806   0.90259   0.00000  Uiso   1.00
C457   C     0.15660   0.64401   0.77711   0.00000  Uiso   1.00
N458   N     0.14995   0.64563   0.72766   0.00000  Uiso   1.00
C459   C     0.16323   0.66819   0.70153   0.00000  Uiso   1.00
C460   C     0.12264   0.67535   0.65964   0.00000  Uiso   1.00
C461   C     0.14210   0.69574   0.63025   0.00000  Uiso   1.00
C462   C     0.20442   0.70817   0.64094   0.00000  Uiso   1.00
C463   C     0.24406   0.70111   0.68350   0.00000  Uiso   1.00
C464   C     0.22357   0.68139   0.71357   0.00000  Uiso   1.00
C465   C     0.27174   0.77103   0.60921   0.00000  Uiso   1.00
C466   C     0.26826   0.77164   0.55502   0.00000  Uiso   1.00
C467   C     0.28003   0.79328   0.52679   0.00000  Uiso   1.00
H468   H     0.21408   0.64037   0.87114   0.00000  Uiso   1.00
H469   H     0.29349   0.60612   0.89949   0.00000  Uiso   1.00
H470   H     0.23101   0.56218   0.76484   0.00000  Uiso   1.00
H471   H     0.15473   0.59722   0.73469   0.00000  Uiso   1.00
H472   H     0.35239   0.55295   0.77209   0.00000  Uiso   1.00
H473   H     0.42790   0.51801   0.80415   0.00000  Uiso   1.00
H474   H     0.37135   0.53663   0.96301   0.00000  Uiso   1.00
H475   H     0.29419   0.57000   0.93188   0.00000  Uiso   1.00
H476   H     0.14176   0.66016   0.80304   0.00000  Uiso   1.00
H477   H     0.07392   0.66455   0.64964   0.00000  Uiso   1.00
H478   H     0.10757   0.70241   0.59744   0.00000  Uiso   1.00
H479   H     0.29331   0.71163   0.69339   0.00000  Uiso   1.00
H480   H     0.25570   0.67570   0.74849   0.00000  Uiso   1.00
H481   H     0.28990   0.81142   0.54781   0.00000  Uiso   1.00
C482   C     0.68337   0.12127   0.79981   0.00000  Uiso   1.00
C483   C     0.71969   0.12316   0.84618   0.00000  Uiso   1.00
C484   C     0.76270   0.10420   0.86219   0.00000  Uiso   1.00
C485   C     0.76878   0.08259   0.83289   0.00000  Uiso   1.00
C486   C     0.72894   0.08006   0.78799   0.00000  Uiso   1.00
C487   C     0.68666   0.09933   0.77141   0.00000  Uiso   1.00
C488   C     0.81561   0.06271   0.85008   0.00000  Uiso   1.00
C489   C     0.85432   0.04858   0.81512   0.00000  Uiso   1.00
C490   C     0.89548   0.02907   0.83268   0.00000  Uiso   1.00
C491   C     0.89725   0.02296   0.88532   0.00000  Uiso   1.00
C492   C     0.86428   0.03904   0.91960   0.00000  Uiso   1.00
C493   C     0.82275   0.05806   0.90259   0.00000  Uiso   1.00
C494   C     0.65660   0.14401   0.77711   0.00000  Uiso   1.00
N495   N     0.64995   0.14563   0.72766   0.00000  Uiso   1.00
C496   C     0.66323   0.16819   0.70153   0.00000  Uiso   1.00
C497   C     0.62264   0.17535   0.65964   0.00000  Uiso   1.00
C498   C     0.64210   0.19574   0.63025   0.00000  Uiso   1.00
C499   C     0.70442   0.20817   0.64094   0.00000  Uiso   1.00
C500   C     0.74406   0.20111   0.68350   0.00000  Uiso   1.00
C501   C     0.72357   0.18139   0.71357   0.00000  Uiso   1.00
C502   C     0.77174   0.27103   0.60921   0.00000  Uiso   1.00
C503   C     0.76826   0.27164   0.55502   0.00000  Uiso   1.00
C504   C     0.78003   0.29328   0.52679   0.00000  Uiso   1.00
H505   H     0.71408   0.14037   0.87114   0.00000  Uiso   1.00
H506   H     0.79349   0.10612   0.89949   0.00000  Uiso   1.00
H507   H     0.73101   0.06218   0.76484   0.00000  Uiso   1.00
H508   H     0.65473   0.09722   0.73469   0.00000  Uiso   1.00
H509   H     0.85239   0.05295   0.77209   0.00000  Uiso   1.00
H510   H     0.92790   0.01801   0.80415   0.00000  Uiso   1.00
H511   H     0.87135   0.03663   0.96301   0.00000  Uiso   1.00
H512   H     0.79419   0.07000   0.93188   0.00000  Uiso   1.00
H513   H     0.64176   0.16016   0.80304   0.00000  Uiso   1.00
H514   H     0.57392   0.16455   0.64964   0.00000  Uiso   1.00
H515   H     0.60757   0.20241   0.59744   0.00000  Uiso   1.00
H516   H     0.79331   0.21163   0.69339   0.00000  Uiso   1.00
H517   H     0.75570   0.17570   0.74849   0.00000  Uiso   1.00
H518   H     0.78990   0.31142   0.54781   0.00000  Uiso   1.00
C519   C     0.81663   0.37873   0.79981   0.00000  Uiso   1.00
C520   C     0.78031   0.37684   0.84618   0.00000  Uiso   1.00
C521   C     0.73730   0.39580   0.86219   0.00000  Uiso   1.00
C522   C     0.73122   0.41741   0.83289   0.00000  Uiso   1.00
C523   C     0.77106   0.41994   0.78799   0.00000  Uiso   1.00
C524   C     0.81334   0.40067   0.77141   0.00000  Uiso   1.00
C525   C     0.68439   0.43729   0.85008   0.00000  Uiso   1.00
C526   C     0.64568   0.45142   0.81512   0.00000  Uiso   1.00
C527   C     0.60452   0.47093   0.83268   0.00000  Uiso   1.00
C528   C     0.60275   0.47704   0.88532   0.00000  Uiso   1.00
C529   C     0.63572   0.46096   0.91960   0.00000  Uiso   1.00
C530   C     0.67725   0.44194   0.90259   0.00000  Uiso   1.00
C531   C     0.84340   0.35599   0.77711   0.00000  Uiso   1.00
N532   N     0.85005   0.35437   0.72766   0.00000  Uiso   1.00
C533   C     0.83677   0.33181   0.70153   0.00000  Uiso   1.00
C534   C     0.87736   0.32465   0.65964   0.00000  Uiso   1.00
C535   C     0.85790   0.30426   0.63025   0.00000  Uiso   1.00
C536   C     0.79558   0.29183   0.64094   0.00000  Uiso   1.00
C537   C     0.75594   0.29889   0.68350   0.00000  Uiso   1.00
C538   C     0.77643   0.31861   0.71357   0.00000  Uiso   1.00
C539   C     0.72826   0.22897   0.60921   0.00000  Uiso   1.00
C540   C     0.73174   0.22836   0.55502   0.00000  Uiso   1.00
C541   C     0.71997   0.20672   0.52679   0.00000  Uiso   1.00
H542   H     0.78592   0.35963   0.87114   0.00000  Uiso   1.00
H543   H     0.70651   0.39388   0.89949   0.00000  Uiso   1.00
H544   H     0.76899   0.43782   0.76484   0.00000  Uiso   1.00
H545   H     0.84527   0.40278   0.73469   0.00000  Uiso   1.00
H546   H     0.64761   0.44705   0.77209   0.00000  Uiso   1.00
H547   H     0.57210   0.48199   0.80415   0.00000  Uiso   1.00
H548   H     0.62865   0.46337   0.96301   0.00000  Uiso   1.00
H549   H     0.70581   0.43000   0.93188   0.00000  Uiso   1.00
H550   H     0.85824   0.33984   0.80304   0.00000  Uiso   1.00
H551   H     0.92608   0.33545   0.64964   0.00000  Uiso   1.00
H552   H     0.89243   0.29759   0.59744   0.00000  Uiso   1.00
H553   H     0.70669   0.28837   0.69339   0.00000  Uiso   1.00
H554   H     0.74430   0.32430   0.74849   0.00000  Uiso   1.00
H555   H     0.71010   0.18858   0.54781   0.00000  Uiso   1.00
C556   C     0.31663   0.87873   0.79981   0.00000  Uiso   1.00
C557   C     0.28031   0.87684   0.84618   0.00000  Uiso   1.00
C558   C     0.23730   0.89580   0.86219   0.00000  Uiso   1.00
C559   C     0.23122   0.91741   0.83289   0.00000  Uiso   1.00
C560   C     0.27106   0.91994   0.78799   0.00000  Uiso   1.00
C561   C     0.31334   0.90067   0.77141   0.00000  Uiso   1.00
C562   C     0.18439   0.93729   0.85008   0.00000  Uiso   1.00
C563   C     0.14568   0.95142   0.81512   0.00000  Uiso   1.00
C564   C     0.10452   0.97093   0.83268   0.00000  Uiso   1.00
C565   C     0.10275   0.97704   0.88532   0.00000  Uiso   1.00
C566   C     0.13572   0.96096   0.91960   0.00000  Uiso   1.00
C567   C     0.17725   0.94194   0.90259   0.00000  Uiso   1.00
C568   C     0.34340   0.85599   0.77711   0.00000  Uiso   1.00
N569   N     0.35005   0.85437   0.72766   0.00000  Uiso   1.00
C570   C     0.33677   0.83181   0.70153   0.00000  Uiso   1.00
C571   C     0.37736   0.82465   0.65964   0.00000  Uiso   1.00
C572   C     0.35790   0.80426   0.63025   0.00000  Uiso   1.00
C573   C     0.29558   0.79183   0.64094   0.00000  Uiso   1.00
C574   C     0.25594   0.79889   0.68350   0.00000  Uiso   1.00
C575   C     0.27643   0.81861   0.71357   0.00000  Uiso   1.00
C576   C     0.22826   0.72897   0.60921   0.00000  Uiso   1.00
C577   C     0.23174   0.72836   0.55502   0.00000  Uiso   1.00
C578   C     0.21997   0.70672   0.52679   0.00000  Uiso   1.00
H579   H     0.28592   0.85963   0.87114   0.00000  Uiso   1.00
H580   H     0.20651   0.89388   0.89949   0.00000  Uiso   1.00
H581   H     0.26899   0.93782   0.76484   0.00000  Uiso   1.00
H582   H     0.34527   0.90278   0.73469   0.00000  Uiso   1.00
H583   H     0.14761   0.94705   0.77209   0.00000  Uiso   1.00
H584   H     0.07210   0.98199   0.80415   0.00000  Uiso   1.00
H585   H     0.12865   0.96337   0.96301   0.00000  Uiso   1.00
H586   H     0.20581   0.93000   0.93188   0.00000  Uiso   1.00
H587   H     0.35824   0.83984   0.80304   0.00000  Uiso   1.00
H588   H     0.42608   0.83545   0.64964   0.00000  Uiso   1.00
H589   H     0.39243   0.79759   0.59744   0.00000  Uiso   1.00
H590   H     0.20669   0.78837   0.69339   0.00000  Uiso   1.00
H591   H     0.24430   0.82430   0.74849   0.00000  Uiso   1.00
H592   H     0.21010   0.68858   0.54781   0.00000  Uiso   1.00
C593   C     0.25000   0.25000   0.63508   0.00000  Uiso   1.00
C594   C     0.25000   0.25000   0.52841   0.00000  Uiso   1.00
C595   C     0.75000   0.75000   0.63508   0.00000  Uiso   1.00
C596   C     0.75000   0.75000   0.52841   0.00000  Uiso   1.00
C597   C     0.75000   0.25000   0.36492   0.00000  Uiso   1.00
C598   C     0.75000   0.25000   0.47159   0.00000  Uiso   1.00
C599   C     0.25000   0.75000   0.36492   0.00000  Uiso   1.00
C600   C     0.25000   0.75000   0.47159   0.00000  Uiso   1.00
C601   C     0.75000   0.75000   0.36492   0.00000  Uiso   1.00
C602   C     0.75000   0.75000   0.47159   0.00000  Uiso   1.00
C603   C     0.25000   0.25000   0.36492   0.00000  Uiso   1.00
C604   C     0.25000   0.25000   0.47159   0.00000  Uiso   1.00
C605   C     0.25000   0.75000   0.63508   0.00000  Uiso   1.00
C606   C     0.25000   0.75000   0.52841   0.00000  Uiso   1.00
C607   C     0.75000   0.25000   0.63508   0.00000  Uiso   1.00
C608   C     0.75000   0.25000   0.52841   0.00000  Uiso   1.00
N609   N     0.92676   0.00000   0.09619   0.00000  Uiso   1.00
C610   C     0.96382   0.00000   0.04759   0.00000  Uiso   1.00
N611   N     0.42676   0.50000   0.09619   0.00000  Uiso   1.00
C612   C     0.46382   0.50000   0.04759   0.00000  Uiso   1.00
N613   N     0.07324   0.00000   0.09619   0.00000  Uiso   1.00
C614   C     0.03618   0.00000   0.04759   0.00000  Uiso   1.00
N615   N     0.57324   0.50000   0.09619   0.00000  Uiso   1.00
C616   C     0.53618   0.50000   0.04759   0.00000  Uiso   1.00
N617   N     0.07324   0.00000   0.90381   0.00000  Uiso   1.00
C618   C     0.03618   0.00000   0.95241   0.00000  Uiso   1.00
N619   N     0.57324   0.50000   0.90381   0.00000  Uiso   1.00
C620   C     0.53618   0.50000   0.95241   0.00000  Uiso   1.00
N621   N     0.92676   0.00000   0.90381   0.00000  Uiso   1.00
C622   C     0.96382   0.00000   0.95241   0.00000  Uiso   1.00
N623   N     0.42676   0.50000   0.90381   0.00000  Uiso   1.00
C624   C     0.46382   0.50000   0.95241   0.00000  Uiso   1.00
C625   C     0.92813   0.00000   0.00000   0.00000  Uiso   1.00
C626   C     0.42813   0.50000   0.00000   0.00000  Uiso   1.00
C627   C     0.07187   0.00000   0.00000   0.00000  Uiso   1.00
C628   C     0.57187   0.50000   0.00000   0.00000  Uiso   1.00
F629   F     0.35767   0.50000   0.00000   0.00000  Uiso   1.00
F630   F     0.85767   0.00000   0.00000   0.00000  Uiso   1.00
F631   F     0.64233   0.50000   0.00000   0.00000  Uiso   1.00
F632   F     0.14233   0.00000   0.00000   0.00000  Uiso   1.00
loop_
_geom_bond_atom_site_label_1
_geom_bond_atom_site_label_2
_geom_bond_distance
_geom_bond_site_symmetry_2
_ccdc_geom_bond_type
C1     C2      1.395   .     D
C1     C6      1.400   .     S
C1     C13     1.460   .     S
C2     C3      1.386   .     S
C2     H24     1.140   .     S
C3     C4      1.400   .     D
C3     H25     1.140   .     S
C4     C5      1.402   .     S
C4     C7      1.477   .     S
C5     C6      1.395   .     D
C5     H26     1.140   .     S
C6     H27     1.140   .     S
C7     C8      1.403   .     D
C7     C12     1.390   .     S
C8     C9      1.400   .     S
C8     H28     1.140   .     S
C9     C10     1.403   .     D
C9     H29     1.140   .     S
C10    C11     1.398   .     S
C10    N623    1.450   .     S
C11    C12     1.379   .     D
C11    H30     1.140   .     S
C12    H31     1.140   .     S
C13    N14     1.290   .     D
C13    H32     1.140   .     S
N14    C15     1.421   .     S
C15    C16     1.395   .     D
C15    C20     1.405   .     S
C16    C17     1.394   .     S
C16    H33     1.140   .     S
C17    C18     1.409   .     D
C17    H34     1.140   .     S
C18    C19     1.397   .     S
C18    C132    1.469   .     S
C19    C20     1.381   .     D
C19    H35     1.140   .     S
C20    H36     1.140   .     S
C21    C22     1.406   .     S
C21    C593    1.387   .     D
C21    C129    1.469   .     S
C22    C23     1.401   .     S
C22    C594    1.405   .     D
C23    H37     1.140   .     S
C23    C393    1.388   .     D
C38    C39     1.395   .     D
C38    C43     1.400   .     S
C38    C50     1.460   .     S
C39    C40     1.386   .     S
C39    H61     1.140   .     S
C40    C41     1.400   .     D
C40    H62     1.140   .     S
C41    C42     1.402   .     S
C41    C44     1.477   .     S
C42    C43     1.395   .     D
C42    H63     1.140   .     S
C43    H64     1.140   .     S
C44    C45     1.403   .     D
C44    C49     1.390   .     S
C45    C46     1.400   .     S
C45    H65     1.140   .     S
C46    C47     1.403   .     D
C46    H66     1.140   .     S
C47    C48     1.398   .     S
C47    N621    1.450   1_565 S
C48    C49     1.379   .     D
C48    H67     1.140   .     S
C49    H68     1.140   .     S
C50    N51     1.290   .     D
C50    H69     1.140   .     S
N51    C52     1.421   .     S
C52    C53     1.395   .     D
C52    C57     1.405   .     S
C53    C54     1.394   .     S
C53    H70     1.140   .     S
C54    C55     1.409   .     D
C54    H71     1.140   .     S
C55    C56     1.397   .     S
C55    C95     1.469   .     S
C56    C57     1.381   .     D
C56    H72     1.140   .     S
C57    H73     1.140   .     S
C58    C59     1.406   .     S
C58    C595    1.387   .     D
C58    C92     1.469   .     S
C59    C60     1.401   .     D
C59    C596    1.405   .     S
C60    H74     1.140   .     S
C60    C430    1.388   .     S
C75    C76     1.395   .     D
C75    C80     1.400   .     S
C75    C87     1.460   .     S
C76    C77     1.386   .     S
C76    H98     1.140   .     S
C77    C78     1.400   .     D
C77    H99     1.140   .     S
C78    C79     1.402   .     S
C78    C81     1.477   .     S
C79    C80     1.395   .     D
C79    H100    1.140   .     S
C80    H101    1.140   .     S
C81    C82     1.403   .     D
C81    C86     1.390   .     S
C82    C83     1.400   .     S
C82    H102    1.140   .     S
C83    C84     1.403   .     D
C83    H103    1.140   .     S
C84    C85     1.398   .     S
C84    N619    1.450   .     S
C85    C86     1.379   .     D
C85    H104    1.140   .     S
C86    H105    1.140   .     S
C87    N88     1.290   .     D
C87    H106    1.140   .     S
N88    C89     1.421   .     S
C89    C90     1.395   .     D
C89    C94     1.405   .     S
C90    C91     1.394   .     S
C90    H107    1.140   .     S
C91    C92     1.409   .     D
C91    H108    1.140   .     S
C92    C93     1.397   .     S
C93    C94     1.381   .     D
C93    H109    1.140   .     S
C94    H110    1.140   .     S
C95    C96     1.406   .     S
C95    C595    1.387   .     D
C96    C97     1.401   .     S
C96    C596    1.405   .     D
C97    H111    1.140   .     S
C97    C319    1.388   .     D
C112   C113    1.395   .     D
C112   C117    1.400   .     S
C112   C124    1.460   .     S
C113   C114    1.386   .     S
C113   H135    1.140   .     S
C114   C115    1.400   .     D
C114   H136    1.140   .     S
C115   C116    1.402   .     S
C115   C118    1.477   .     S
C116   C117    1.395   .     D
C116   H137    1.140   .     S
C117   H138    1.140   .     S
C118   C119    1.403   .     D
C118   C123    1.390   .     S
C119   C120    1.400   .     S
C119   H139    1.140   .     S
C120   C121    1.403   .     D
C120   H140    1.140   .     S
C121   C122    1.398   .     S
C121   N617    1.450   .     S
C122   C123    1.379   .     D
C122   H141    1.140   .     S
C123   H142    1.140   .     S
C124   N125    1.290   .     D
C124   H143    1.140   .     S
N125   C126    1.421   .     S
C126   C127    1.395   .     D
C126   C131    1.405   .     S
C127   C128    1.394   .     S
C127   H144    1.140   .     S
C128   C129    1.409   .     D
C128   H145    1.140   .     S
C129   C130    1.397   .     S
C130   C131    1.381   .     D
C130   H146    1.140   .     S
C131   H147    1.140   .     S
C132   C133    1.406   .     S
C132   C593    1.387   .     D
C133   C134    1.401   .     D
C133   C594    1.405   .     S
C134   H148    1.140   .     S
C134   C356    1.388   .     S
C149   C150    1.395   .     D
C149   C154    1.400   .     S
C149   C161    1.460   .     S
C150   C151    1.386   .     S
C150   H172    1.140   .     S
C151   C152    1.400   .     D
C151   H173    1.140   .     S
C152   C153    1.402   .     S
C152   C155    1.477   .     S
C153   C154    1.395   .     D
C153   H174    1.140   .     S
C154   H175    1.140   .     S
C155   C156    1.403   .     D
C155   C160    1.390   .     S
C156   C157    1.400   .     S
C156   H176    1.140   .     S
C157   C158    1.403   .     D
C157   H177    1.140   .     S
C158   C159    1.398   .     S
C158   N615    1.450   .     S
C159   C160    1.379   .     D
C159   H178    1.140   .     S
C160   H179    1.140   .     S
C161   N162    1.290   .     D
C161   H180    1.140   .     S
N162   C163    1.421   .     S
C163   C164    1.395   .     D
C163   C168    1.405   .     S
C164   C165    1.394   .     S
C164   H181    1.140   .     S
C165   C166    1.409   .     D
C165   H182    1.140   .     S
C166   C167    1.397   .     S
C166   C280    1.469   .     S
C167   C168    1.381   .     D
C167   H183    1.140   .     S
C168   H184    1.140   .     S
C169   C170    1.406   .     S
C169   C597    1.387   .     D
C169   C277    1.469   .     S
C170   C171    1.401   .     S
C170   C598    1.405   .     D
C171   H185    1.140   .     S
C171   C541    1.388   .     D
C186   C187    1.395   .     D
C186   C191    1.400   .     S
C186   C198    1.460   .     S
C187   C188    1.386   .     S
C187   H209    1.140   .     S
C188   C189    1.400   .     D
C188   H210    1.140   .     S
C189   C190    1.402   .     S
C189   C192    1.477   .     S
C190   C191    1.395   .     D
C190   H211    1.140   .     S
C191   H212    1.140   .     S
C192   C193    1.403   .     D
C192   C197    1.390   .     S
C193   C194    1.400   .     S
C193   H213    1.140   .     S
C194   C195    1.403   .     D
C194   H214    1.140   .     S
C195   C196    1.398   .     S
C195   N613    1.450   1_565 S
C196   C197    1.379   .     D
C196   H215    1.140   .     S
C197   H216    1.140   .     S
C198   N199    1.290   .     D
C198   H217    1.140   .     S
N199   C200    1.421   .     S
C200   C201    1.395   .     D
C200   C205    1.405   .     S
C201   C202    1.394   .     S
C201   H218    1.140   .     S
C202   C203    1.409   .     D
C202   H219    1.140   .     S
C203   C204    1.397   .     S
C203   C243    1.469   .     S
C204   C205    1.381   .     D
C204   H220    1.140   .     S
C205   H221    1.140   .     S
C206   C207    1.406   .     S
C206   C599    1.387   .     D
C206   C240    1.469   .     S
C207   C208    1.401   .     D
C207   C600    1.405   .     S
C208   H222    1.140   .     S
C208   C578    1.388   .     S
C223   C224    1.395   .     D
C223   C228    1.400   .     S
C223   C235    1.460   .     S
C224   C225    1.386   .     S
C224   H246    1.140   .     S
C225   C226    1.400   .     D
C225   H247    1.140   .     S
C226   C227    1.402   .     S
C226   C229    1.477   .     S
C227   C228    1.395   .     D
C227   H248    1.140   .     S
C228   H249    1.140   .     S
C229   C230    1.403   .     D
C229   C234    1.390   .     S
C230   C231    1.400   .     S
C230   H250    1.140   .     S
C231   C232    1.403   .     D
C231   H251    1.140   .     S
C232   C233    1.398   .     S
C232   N611    1.450   .     S
C233   C234    1.379   .     D
C233   H252    1.140   .     S
C234   H253    1.140   .     S
C235   N236    1.290   .     D
C235   H254    1.140   .     S
N236   C237    1.421   .     S
C237   C238    1.395   .     D
C237   C242    1.405   .     S
C238   C239    1.394   .     S
C238   H255    1.140   .     S
C239   C240    1.409   .     D
C239   H256    1.140   .     S
C240   C241    1.397   .     S
C241   C242    1.381   .     D
C241   H257    1.140   .     S
C242   H258    1.140   .     S
C243   C244    1.406   .     S
C243   C599    1.387   .     D
C244   C245    1.401   .     S
C244   C600    1.405   .     D
C245   H259    1.140   .     S
C245   C467    1.388   .     D
C260   C261    1.395   .     D
C260   C265    1.400   .     S
C260   C272    1.460   .     S
C261   C262    1.386   .     S
C261   H283    1.140   .     S
C262   C263    1.400   .     D
C262   H284    1.140   .     S
C263   C264    1.402   .     S
C263   C266    1.477   .     S
C264   C265    1.395   .     D
C264   H285    1.140   .     S
C265   H286    1.140   .     S
C266   C267    1.403   .     D
C266   C271    1.390   .     S
C267   C268    1.400   .     S
C267   H287    1.140   .     S
C268   C269    1.403   .     D
C268   H288    1.140   .     S
C269   C270    1.398   .     S
C269   N609    1.450   .     S
C270   C271    1.379   .     D
C270   H289    1.140   .     S
C271   H290    1.140   .     S
C272   N273    1.290   .     D
C272   H291    1.140   .     S
N273   C274    1.421   .     S
C274   C275    1.395   .     D
C274   C279    1.405   .     S
C275   C276    1.394   .     S
C275   H292    1.140   .     S
C276   C277    1.409   .     D
C276   H293    1.140   .     S
C277   C278    1.397   .     S
C278   C279    1.381   .     D
C278   H294    1.140   .     S
C279   H295    1.140   .     S
C280   C281    1.406   .     S
C280   C597    1.387   .     D
C281   C282    1.401   .     D
C281   C598    1.405   .     S
C282   H296    1.140   .     S
C282   C504    1.388   .     S
C297   C298    1.395   .     D
C297   C302    1.400   .     S
C297   C309    1.460   .     S
C298   C299    1.386   .     S
C298   H320    1.140   .     S
C299   C300    1.400   .     D
C299   H321    1.140   .     S
C300   C301    1.402   .     S
C300   C303    1.477   .     S
C301   C302    1.395   .     D
C301   H322    1.140   .     S
C302   H323    1.140   .     S
C303   C304    1.403   .     D
C303   C308    1.390   .     S
C304   C305    1.400   .     S
C304   H324    1.140   .     S
C305   C306    1.403   .     D
C305   H325    1.140   .     S
C306   C307    1.398   .     S
C306   N615    1.450   .     S
C307   C308    1.379   .     D
C307   H326    1.140   .     S
C308   H327    1.140   .     S
C309   N310    1.290   .     D
C309   H328    1.140   .     S
N310   C311    1.421   .     S
C311   C312    1.395   .     D
C311   C316    1.405   .     S
C312   C313    1.394   .     S
C312   H329    1.140   .     S
C313   C314    1.409   .     D
C313   H330    1.140   .     S
C314   C315    1.397   .     S
C314   C428    1.469   .     S
C315   C316    1.381   .     D
C315   H331    1.140   .     S
C316   H332    1.140   .     S
C317   C318    1.406   .     S
C317   C601    1.387   .     D
C317   C425    1.469   .     S
C318   C319    1.401   .     S
C318   C602    1.405   .     D
C319   H333    1.140   .     S
C334   C335    1.395   .     D
C334   C339    1.400   .     S
C334   C346    1.460   .     S
C335   C336    1.386   .     S
C335   H357    1.140   .     S
C336   C337    1.400   .     D
C336   H358    1.140   .     S
C337   C338    1.402   .     S
C337   C340    1.477   .     S
C338   C339    1.395   .     D
C338   H359    1.140   .     S
C339   H360    1.140   .     S
C340   C341    1.403   .     D
C340   C345    1.390   .     S
C341   C342    1.400   .     S
C341   H361    1.140   .     S
C342   C343    1.403   .     D
C342   H362    1.140   .     S
C343   C344    1.398   .     S
C343   N613    1.450   .     S
C344   C345    1.379   .     D
C344   H363    1.140   .     S
C345   H364    1.140   .     S
C346   N347    1.290   .     D
C346   H365    1.140   .     S
N347   C348    1.421   .     S
C348   C349    1.395   .     D
C348   C353    1.405   .     S
C349   C350    1.394   .     S
C349   H366    1.140   .     S
C350   C351    1.409   .     D
C350   H367    1.140   .     S
C351   C352    1.397   .     S
C351   C391    1.469   .     S
C352   C353    1.381   .     D
C352   H368    1.140   .     S
C353   H369    1.140   .     S
C354   C355    1.406   .     S
C354   C603    1.387   .     D
C354   C388    1.469   .     S
C355   C356    1.401   .     D
C355   C604    1.405   .     S
C356   H370    1.140   .     S
C371   C372    1.395   .     D
C371   C376    1.400   .     S
C371   C383    1.460   .     S
C372   C373    1.386   .     S
C372   H394    1.140   .     S
C373   C374    1.400   .     D
C373   H395    1.140   .     S
C374   C375    1.402   .     S
C374   C377    1.477   .     S
C375   C376    1.395   .     D
C375   H396    1.140   .     S
C376   H397    1.140   .     S
C377   C378    1.403   .     D
C377   C382    1.390   .     S
C378   C379    1.400   .     S
C378   H398    1.140   .     S
C379   C380    1.403   .     D
C379   H399    1.140   .     S
C380   C381    1.398   .     S
C380   N611    1.450   .     S
C381   C382    1.379   .     D
C381   H400    1.140   .     S
C382   H401    1.140   .     S
C383   N384    1.290   .     D
C383   H402    1.140   .     S
N384   C385    1.421   .     S
C385   C386    1.395   .     D
C385   C390    1.405   .     S
C386   C387    1.394   .     S
C386   H403    1.140   .     S
C387   C388    1.409   .     D
C387   H404    1.140   .     S
C388   C389    1.397   .     S
C389   C390    1.381   .     D
C389   H405    1.140   .     S
C390   H406    1.140   .     S
C391   C392    1.406   .     S
C391   C603    1.387   .     D
C392   C393    1.401   .     S
C392   C604    1.405   .     D
C393   H407    1.140   .     S
C408   C409    1.395   .     D
C408   C413    1.400   .     S
C408   C420    1.460   .     S
C409   C410    1.386   .     S
C409   H431    1.140   .     S
C410   C411    1.400   .     D
C410   H432    1.140   .     S
C411   C412    1.402   .     S
C411   C414    1.477   .     S
C412   C413    1.395   .     D
C412   H433    1.140   .     S
C413   H434    1.140   .     S
C414   C415    1.403   .     D
C414   C419    1.390   .     S
C415   C416    1.400   .     S
C415   H435    1.140   .     S
C416   C417    1.403   .     D
C416   H436    1.140   .     S
C417   C418    1.398   .     S
C417   N609    1.450   1_565 S
C418   C419    1.379   .     D
C418   H437    1.140   .     S
C419   H438    1.140   .     S
C420   N421    1.290   .     D
C420   H439    1.140   .     S
N421   C422    1.421   .     S
C422   C423    1.395   .     D
C422   C427    1.405   .     S
C423   C424    1.394   .     S
C423   H440    1.140   .     S
C424   C425    1.409   .     D
C424   H441    1.140   .     S
C425   C426    1.397   .     S
C426   C427    1.381   .     D
C426   H442    1.140   .     S
C427   H443    1.140   .     S
C428   C429    1.406   .     S
C428   C601    1.387   .     D
C429   C430    1.401   .     D
C429   C602    1.405   .     S
C430   H444    1.140   .     S
C445   C446    1.395   .     D
C445   C450    1.400   .     S
C445   C457    1.460   .     S
C446   C447    1.386   .     S
C446   H468    1.140   .     S
C447   C448    1.400   .     D
C447   H469    1.140   .     S
C448   C449    1.402   .     S
C448   C451    1.477   .     S
C449   C450    1.395   .     D
C449   H470    1.140   .     S
C450   H471    1.140   .     S
C451   C452    1.403   .     D
C451   C456    1.390   .     S
C452   C453    1.400   .     S
C452   H472    1.140   .     S
C453   C454    1.403   .     D
C453   H473    1.140   .     S
C454   C455    1.398   .     S
C454   N623    1.450   .     S
C455   C456    1.379   .     D
C455   H474    1.140   .     S
C456   H475    1.140   .     S
C457   N458    1.290   .     D
C457   H476    1.140   .     S
N458   C459    1.421   .     S
C459   C460    1.395   .     D
C459   C464    1.405   .     S
C460   C461    1.394   .     S
C460   H477    1.140   .     S
C461   C462    1.409   .     D
C461   H478    1.140   .     S
C462   C463    1.397   .     S
C462   C576    1.469   .     S
C463   C464    1.381   .     D
C463   H479    1.140   .     S
C464   H480    1.140   .     S
C465   C466    1.406   .     S
C465   C605    1.387   .     D
C465   C573    1.469   .     S
C466   C467    1.401   .     S
C466   C606    1.405   .     D
C467   H481    1.140   .     S
C482   C483    1.395   .     D
C482   C487    1.400   .     S
C482   C494    1.460   .     S
C483   C484    1.386   .     S
C483   H505    1.140   .     S
C484   C485    1.400   .     D
C484   H506    1.140   .     S
C485   C486    1.402   .     S
C485   C488    1.477   .     S
C486   C487    1.395   .     D
C486   H507    1.140   .     S
C487   H508    1.140   .     S
C488   C489    1.403   .     D
C488   C493    1.390   .     S
C489   C490    1.400   .     S
C489   H509    1.140   .     S
C490   C491    1.403   .     D
C490   H510    1.140   .     S
C491   C492    1.398   .     S
C491   N621    1.450   .     S
C492   C493    1.379   .     D
C492   H511    1.140   .     S
C493   H512    1.140   .     S
C494   N495    1.290   .     D
C494   H513    1.140   .     S
N495   C496    1.421   .     S
C496   C497    1.395   .     D
C496   C501    1.405   .     S
C497   C498    1.394   .     S
C497   H514    1.140   .     S
C498   C499    1.409   .     D
C498   H515    1.140   .     S
C499   C500    1.397   .     S
C499   C539    1.469   .     S
C500   C501    1.381   .     D
C500   H516    1.140   .     S
C501   H517    1.140   .     S
C502   C503    1.406   .     S
C502   C607    1.387   .     D
C502   C536    1.469   .     S
C503   C504    1.401   .     D
C503   C608    1.405   .     S
C504   H518    1.140   .     S
C519   C520    1.395   .     D
C519   C524    1.400   .     S
C519   C531    1.460   .     S
C520   C521    1.386   .     S
C520   H542    1.140   .     S
C521   C522    1.400   .     D
C521   H543    1.140   .     S
C522   C523    1.402   .     S
C522   C525    1.477   .     S
C523   C524    1.395   .     D
C523   H544    1.140   .     S
C524   H545    1.140   .     S
C525   C526    1.403   .     D
C525   C530    1.390   .     S
C526   C527    1.400   .     S
C526   H546    1.140   .     S
C527   C528    1.403   .     D
C527   H547    1.140   .     S
C528   C529    1.398   .     S
C528   N619    1.450   .     S
C529   C530    1.379   .     D
C529   H548    1.140   .     S
C530   H549    1.140   .     S
C531   N532    1.290   .     D
C531   H550    1.140   .     S
N532   C533    1.421   .     S
C533   C534    1.395   .     D
C533   C538    1.405   .     S
C534   C535    1.394   .     S
C534   H551    1.140   .     S
C535   C536    1.409   .     D
C535   H552    1.140   .     S
C536   C537    1.397   .     S
C537   C538    1.381   .     D
C537   H553    1.140   .     S
C538   H554    1.140   .     S
C539   C540    1.406   .     S
C539   C607    1.387   .     D
C540   C541    1.401   .     S
C540   C608    1.405   .     D
C541   H555    1.140   .     S
C556   C557    1.395   .     D
C556   C561    1.400   .     S
C556   C568    1.460   .     S
C557   C558    1.386   .     S
C557   H579    1.140   .     S
C558   C559    1.400   .     D
C558   H580    1.140   .     S
C559   C560    1.402   .     S
C559   C562    1.477   .     S
C560   C561    1.395   .     D
C560   H581    1.140   .     S
C561   H582    1.140   .     S
C562   C563    1.403   .     D
C562   C567    1.390   .     S
C563   C564    1.400   .     S
C563   H583    1.140   .     S
C564   C565    1.403   .     D
C564   H584    1.140   .     S
C565   C566    1.398   .     S
C565   N617    1.450   1_565 S
C566   C567    1.379   .     D
C566   H585    1.140   .     S
C567   H586    1.140   .     S
C568   N569    1.290   .     D
C568   H587    1.140   .     S
N569   C570    1.421   .     S
C570   C571    1.395   .     D
C570   C575    1.405   .     S
C571   C572    1.394   .     S
C571   H588    1.140   .     S
C572   C573    1.409   .     D
C572   H589    1.140   .     S
C573   C574    1.397   .     S
C574   C575    1.381   .     D
C574   H590    1.140   .     S
C575   H591    1.140   .     S
C576   C577    1.406   .     S
C576   C605    1.387   .     D
C577   C578    1.401   .     D
C577   C606    1.405   .     S
C578   H592    1.140   .     S
C594   C604    1.472   .     S
C596   C602    1.472   .     S
C598   C608    1.472   .     S
C600   C606    1.472   .     S
N609   C610    1.449   .     S
N609   C417    1.450   1_545 S
C610   C625    1.413   .     D
C610   C614    1.401   1_655 S
N611   C612    1.449   .     S
C612   C626    1.413   .     D
C612   C616    1.401   .     S
N613   C614    1.449   .     S
N613   C195    1.450   1_545 S
C614   C627    1.413   .     D
C614   C610    1.401   1_455 S
N615   C616    1.449   .     S
C616   C628    1.413   .     D
N617   C618    1.449   .     S
N617   C565    1.450   1_545 S
C618   C627    1.413   1_556 S
C618   C622    1.401   1_455 D
N619   C620    1.449   .     S
C620   C624    1.401   .     D
C620   C628    1.413   1_556 S
N621   C622    1.449   .     S
N621   C47     1.450   1_545 S
C622   C618    1.401   1_655 D
C622   C625    1.413   1_556 S
N623   C624    1.449   .     S
C624   C626    1.413   1_556 S
C625   F630    1.364   .     S
C625   C622    1.413   1_554 S
C626   F629    1.364   .     S
C626   C624    1.413   1_554 S
C627   F632    1.364   .     S
C627   C618    1.413   1_554 S
C628   F631    1.364   .     S
C628   C620    1.413   1_554 S
