data_860
_audit_creation_date              2023-09-08
_audit_creation_method            'Materials Studio'
_symmetry_space_group_name_H-M    'P1'
_symmetry_Int_Tables_number       1
_symmetry_cell_setting            triclinic
loop_
_symmetry_equiv_pos_as_xyz
  x,y,z
_cell_length_a                    39.9179
_cell_length_b                    18.7054
_cell_length_c                    23.6772
_cell_angle_alpha                 90.0000
_cell_angle_beta                  90.0000
_cell_angle_gamma                 90.0000
loop_
_atom_site_label
_atom_site_type_symbol
_atom_site_fract_x
_atom_site_fract_y
_atom_site_fract_z
_atom_site_U_iso_or_equiv
_atom_site_adp_type
_atom_site_occupancy
C1     C     0.18639   0.83862   0.04937   0.00000  Uiso   1.00
C2     C     0.15761   0.88063   0.03186   0.00000  Uiso   1.00
C3     C     0.18847   0.89333   0.21396   0.00000  Uiso   1.00
C4     C     0.17036   0.90292   0.26897   0.00000  Uiso   1.00
C5     C     0.37850   0.15972   0.27825   0.00000  Uiso   1.00
C6     C     0.35997   0.17128   0.33302   0.00000  Uiso   1.00
C7     C     0.84238   0.61937   0.46814   0.00000  Uiso   1.00
C8     C     0.76478   0.72959   0.31424   0.00000  Uiso   1.00
C9     C     0.22654   0.21679   0.12569   0.00000  Uiso   1.00
C10    C     0.23522   0.22959   0.18576   0.00000  Uiso   1.00
C11    C     0.14003   0.17128   0.16698   0.00000  Uiso   1.00
C12    C     0.12150   0.15972   0.22175   0.00000  Uiso   1.00
C13    C     0.82964   0.40292   0.23103   0.00000  Uiso   1.00
C14    C     0.81153   0.39333   0.28604   0.00000  Uiso   1.00
C15    C     0.19637   0.82537   0.11059   0.00000  Uiso   1.00
C16    C     0.13697   0.87460   0.27382   0.00000  Uiso   1.00
C17    C     0.17406   0.85350   0.16291   0.00000  Uiso   1.00
C18    C     0.13430   0.87742   0.38479   0.00000  Uiso   1.00
N19    N     0.11892   0.87771   0.33150   0.00000  Uiso   1.00
C20    C     0.08107   0.90410   0.44400   0.00000  Uiso   1.00
C21    C     0.11548   0.88289   0.44355   0.00000  Uiso   1.00
C22    C     0.38452   0.11712   0.05645   0.00000  Uiso   1.00
C23    C     0.41893   0.09590   0.05600   0.00000  Uiso   1.00
N24    N     0.38108   0.12230   0.16850   0.00000  Uiso   1.00
C25    C     0.36570   0.12259   0.11521   0.00000  Uiso   1.00
C26    C     0.32594   0.14650   0.33709   0.00000  Uiso   1.00
C27    C     0.36303   0.12540   0.22618   0.00000  Uiso   1.00
C28    C     0.30363   0.17463   0.38941   0.00000  Uiso   1.00
C29    C     0.27346   0.21679   0.37431   0.00000  Uiso   1.00
C30    C     0.31361   0.16138   0.45063   0.00000  Uiso   1.00
H31    H     0.13994   0.90644   0.06859   0.00000  Uiso   1.00
H32    H     0.21539   0.91795   0.20984   0.00000  Uiso   1.00
H33    H     0.18274   0.93392   0.31022   0.00000  Uiso   1.00
H34    H     0.40634   0.17830   0.27588   0.00000  Uiso   1.00
H35    H     0.37254   0.20098   0.37466   0.00000  Uiso   1.00
H36    H     0.86006   0.59356   0.43141   0.00000  Uiso   1.00
H37    H     0.77740   0.71279   0.26856   0.00000  Uiso   1.00
H38    H     0.21815   0.20654   0.22448   0.00000  Uiso   1.00
H39    H     0.12746   0.20098   0.12534   0.00000  Uiso   1.00
H40    H     0.09366   0.17830   0.22412   0.00000  Uiso   1.00
H41    H     0.81726   0.43392   0.18978   0.00000  Uiso   1.00
H42    H     0.78461   0.41795   0.29016   0.00000  Uiso   1.00
H43    H     0.16319   0.87277   0.38515   0.00000  Uiso   1.00
H44    H     0.06690   0.91294   0.39851   0.00000  Uiso   1.00
H45    H     0.43310   0.08706   0.10149   0.00000  Uiso   1.00
H46    H     0.33681   0.12725   0.11485   0.00000  Uiso   1.00
C47    C     0.68639   0.33862   0.04937   0.00000  Uiso   1.00
C48    C     0.65761   0.38063   0.03186   0.00000  Uiso   1.00
C49    C     0.68847   0.39333   0.21396   0.00000  Uiso   1.00
C50    C     0.67036   0.40292   0.26897   0.00000  Uiso   1.00
C51    C     0.87850   0.65972   0.27825   0.00000  Uiso   1.00
C52    C     0.85997   0.67128   0.33302   0.00000  Uiso   1.00
C53    C     0.34238   0.11937   0.46814   0.00000  Uiso   1.00
C54    C     0.26478   0.22959   0.31424   0.00000  Uiso   1.00
C55    C     0.72654   0.71679   0.12569   0.00000  Uiso   1.00
C56    C     0.73522   0.72959   0.18576   0.00000  Uiso   1.00
C57    C     0.64003   0.67128   0.16698   0.00000  Uiso   1.00
C58    C     0.62150   0.65972   0.22175   0.00000  Uiso   1.00
C59    C     0.32964   0.90292   0.23103   0.00000  Uiso   1.00
C60    C     0.31153   0.89333   0.28604   0.00000  Uiso   1.00
C61    C     0.69637   0.32537   0.11059   0.00000  Uiso   1.00
C62    C     0.63697   0.37460   0.27382   0.00000  Uiso   1.00
C63    C     0.67406   0.35350   0.16291   0.00000  Uiso   1.00
C64    C     0.63430   0.37742   0.38479   0.00000  Uiso   1.00
N65    N     0.61892   0.37771   0.33150   0.00000  Uiso   1.00
C66    C     0.58107   0.40410   0.44400   0.00000  Uiso   1.00
C67    C     0.61548   0.38289   0.44355   0.00000  Uiso   1.00
C68    C     0.88452   0.61712   0.05645   0.00000  Uiso   1.00
C69    C     0.91893   0.59590   0.05600   0.00000  Uiso   1.00
N70    N     0.88108   0.62230   0.16850   0.00000  Uiso   1.00
C71    C     0.86570   0.62259   0.11521   0.00000  Uiso   1.00
C72    C     0.82594   0.64650   0.33709   0.00000  Uiso   1.00
C73    C     0.86303   0.62540   0.22618   0.00000  Uiso   1.00
C74    C     0.80363   0.67463   0.38941   0.00000  Uiso   1.00
C75    C     0.77346   0.71679   0.37431   0.00000  Uiso   1.00
C76    C     0.81361   0.66138   0.45063   0.00000  Uiso   1.00
H77    H     0.63994   0.40644   0.06859   0.00000  Uiso   1.00
H78    H     0.71539   0.41795   0.20984   0.00000  Uiso   1.00
H79    H     0.68274   0.43392   0.31022   0.00000  Uiso   1.00
H80    H     0.90634   0.67830   0.27588   0.00000  Uiso   1.00
H81    H     0.87254   0.70098   0.37466   0.00000  Uiso   1.00
H82    H     0.36006   0.09356   0.43141   0.00000  Uiso   1.00
H83    H     0.27740   0.21279   0.26856   0.00000  Uiso   1.00
H84    H     0.71815   0.70654   0.22448   0.00000  Uiso   1.00
H85    H     0.62746   0.70098   0.12534   0.00000  Uiso   1.00
H86    H     0.59366   0.67830   0.22412   0.00000  Uiso   1.00
H87    H     0.31726   0.93392   0.18978   0.00000  Uiso   1.00
H88    H     0.28461   0.91795   0.29016   0.00000  Uiso   1.00
H89    H     0.66319   0.37277   0.38515   0.00000  Uiso   1.00
H90    H     0.56690   0.41294   0.39851   0.00000  Uiso   1.00
H91    H     0.93310   0.58706   0.10149   0.00000  Uiso   1.00
H92    H     0.83681   0.62725   0.11485   0.00000  Uiso   1.00
C93    C     0.81361   0.16138   0.04937   0.00000  Uiso   1.00
C94    C     0.84239   0.11937   0.03186   0.00000  Uiso   1.00
C95    C     0.81153   0.10667   0.21396   0.00000  Uiso   1.00
C96    C     0.82964   0.09708   0.26897   0.00000  Uiso   1.00
C97    C     0.62150   0.84028   0.27825   0.00000  Uiso   1.00
C98    C     0.64003   0.82872   0.33302   0.00000  Uiso   1.00
C99    C     0.15762   0.38063   0.46814   0.00000  Uiso   1.00
C100   C     0.23522   0.27041   0.31424   0.00000  Uiso   1.00
C101   C     0.77346   0.78321   0.12569   0.00000  Uiso   1.00
C102   C     0.76478   0.77041   0.18576   0.00000  Uiso   1.00
C103   C     0.85997   0.82872   0.16698   0.00000  Uiso   1.00
C104   C     0.87850   0.84028   0.22175   0.00000  Uiso   1.00
C105   C     0.17036   0.59708   0.23103   0.00000  Uiso   1.00
C106   C     0.18847   0.60667   0.28604   0.00000  Uiso   1.00
C107   C     0.80363   0.17463   0.11059   0.00000  Uiso   1.00
C108   C     0.86303   0.12540   0.27382   0.00000  Uiso   1.00
C109   C     0.82594   0.14650   0.16291   0.00000  Uiso   1.00
C110   C     0.86570   0.12258   0.38479   0.00000  Uiso   1.00
N111   N     0.88108   0.12229   0.33150   0.00000  Uiso   1.00
C112   C     0.91893   0.09590   0.44400   0.00000  Uiso   1.00
C113   C     0.88452   0.11711   0.44355   0.00000  Uiso   1.00
C114   C     0.61548   0.88288   0.05645   0.00000  Uiso   1.00
C115   C     0.58107   0.90410   0.05600   0.00000  Uiso   1.00
N116   N     0.61892   0.87770   0.16850   0.00000  Uiso   1.00
C117   C     0.63430   0.87741   0.11521   0.00000  Uiso   1.00
C118   C     0.67406   0.85350   0.33709   0.00000  Uiso   1.00
C119   C     0.63697   0.87460   0.22618   0.00000  Uiso   1.00
C120   C     0.69637   0.82537   0.38941   0.00000  Uiso   1.00
C121   C     0.72654   0.78321   0.37431   0.00000  Uiso   1.00
C122   C     0.68639   0.83862   0.45063   0.00000  Uiso   1.00
H123   H     0.86006   0.09356   0.06859   0.00000  Uiso   1.00
H124   H     0.78461   0.08205   0.20984   0.00000  Uiso   1.00
H125   H     0.81726   0.06608   0.31022   0.00000  Uiso   1.00
H126   H     0.59366   0.82170   0.27588   0.00000  Uiso   1.00
H127   H     0.62746   0.79902   0.37466   0.00000  Uiso   1.00
H128   H     0.13994   0.40644   0.43141   0.00000  Uiso   1.00
H129   H     0.22260   0.28721   0.26856   0.00000  Uiso   1.00
H130   H     0.78185   0.79346   0.22448   0.00000  Uiso   1.00
H131   H     0.87254   0.79902   0.12534   0.00000  Uiso   1.00
H132   H     0.90634   0.82170   0.22412   0.00000  Uiso   1.00
H133   H     0.18274   0.56608   0.18978   0.00000  Uiso   1.00
H134   H     0.21539   0.58205   0.29016   0.00000  Uiso   1.00
H135   H     0.83681   0.12723   0.38515   0.00000  Uiso   1.00
H136   H     0.93310   0.08706   0.39851   0.00000  Uiso   1.00
H137   H     0.56690   0.91294   0.10149   0.00000  Uiso   1.00
H138   H     0.66319   0.87275   0.11485   0.00000  Uiso   1.00
C139   C     0.31361   0.66138   0.04937   0.00000  Uiso   1.00
C140   C     0.34239   0.61937   0.03186   0.00000  Uiso   1.00
C141   C     0.31153   0.60667   0.21396   0.00000  Uiso   1.00
C142   C     0.32964   0.59708   0.26897   0.00000  Uiso   1.00
C143   C     0.12150   0.34028   0.27825   0.00000  Uiso   1.00
C144   C     0.14003   0.32872   0.33302   0.00000  Uiso   1.00
C145   C     0.65762   0.88063   0.46814   0.00000  Uiso   1.00
C146   C     0.73522   0.77041   0.31424   0.00000  Uiso   1.00
C147   C     0.27346   0.28321   0.12569   0.00000  Uiso   1.00
C148   C     0.26478   0.27041   0.18576   0.00000  Uiso   1.00
C149   C     0.35997   0.32872   0.16698   0.00000  Uiso   1.00
C150   C     0.37850   0.34028   0.22175   0.00000  Uiso   1.00
C151   C     0.67036   0.09708   0.23103   0.00000  Uiso   1.00
C152   C     0.68847   0.10667   0.28604   0.00000  Uiso   1.00
C153   C     0.30363   0.67463   0.11059   0.00000  Uiso   1.00
C154   C     0.36303   0.62540   0.27382   0.00000  Uiso   1.00
C155   C     0.32594   0.64650   0.16291   0.00000  Uiso   1.00
C156   C     0.36570   0.62258   0.38479   0.00000  Uiso   1.00
N157   N     0.38108   0.62229   0.33150   0.00000  Uiso   1.00
C158   C     0.41893   0.59590   0.44400   0.00000  Uiso   1.00
C159   C     0.38452   0.61711   0.44355   0.00000  Uiso   1.00
C160   C     0.11548   0.38288   0.05645   0.00000  Uiso   1.00
C161   C     0.08107   0.40410   0.05600   0.00000  Uiso   1.00
N162   N     0.11892   0.37770   0.16850   0.00000  Uiso   1.00
C163   C     0.13430   0.37741   0.11521   0.00000  Uiso   1.00
C164   C     0.17406   0.35350   0.33709   0.00000  Uiso   1.00
C165   C     0.13697   0.37460   0.22618   0.00000  Uiso   1.00
C166   C     0.19637   0.32537   0.38941   0.00000  Uiso   1.00
C167   C     0.22654   0.28321   0.37431   0.00000  Uiso   1.00
C168   C     0.18639   0.33862   0.45063   0.00000  Uiso   1.00
H169   H     0.36006   0.59356   0.06859   0.00000  Uiso   1.00
H170   H     0.28461   0.58205   0.20984   0.00000  Uiso   1.00
H171   H     0.31726   0.56608   0.31022   0.00000  Uiso   1.00
H172   H     0.09366   0.32170   0.27588   0.00000  Uiso   1.00
H173   H     0.12746   0.29902   0.37466   0.00000  Uiso   1.00
H174   H     0.63994   0.90644   0.43141   0.00000  Uiso   1.00
H175   H     0.72260   0.78721   0.26856   0.00000  Uiso   1.00
H176   H     0.28185   0.29346   0.22448   0.00000  Uiso   1.00
H177   H     0.37254   0.29902   0.12534   0.00000  Uiso   1.00
H178   H     0.40634   0.32170   0.22412   0.00000  Uiso   1.00
H179   H     0.68274   0.06608   0.18978   0.00000  Uiso   1.00
H180   H     0.71539   0.08205   0.29016   0.00000  Uiso   1.00
H181   H     0.33681   0.62723   0.38515   0.00000  Uiso   1.00
H182   H     0.43310   0.58706   0.39851   0.00000  Uiso   1.00
H183   H     0.06690   0.41294   0.10149   0.00000  Uiso   1.00
H184   H     0.16319   0.37275   0.11485   0.00000  Uiso   1.00
C185   C     0.81361   0.83862   0.95063   0.00000  Uiso   1.00
C186   C     0.84239   0.88063   0.96814   0.00000  Uiso   1.00
C187   C     0.81153   0.89333   0.78604   0.00000  Uiso   1.00
C188   C     0.82964   0.90292   0.73103   0.00000  Uiso   1.00
C189   C     0.62150   0.15972   0.72175   0.00000  Uiso   1.00
C190   C     0.64003   0.17128   0.66698   0.00000  Uiso   1.00
C191   C     0.15762   0.61937   0.53186   0.00000  Uiso   1.00
C192   C     0.23522   0.72959   0.68576   0.00000  Uiso   1.00
C193   C     0.77346   0.21679   0.87431   0.00000  Uiso   1.00
C194   C     0.76478   0.22959   0.81424   0.00000  Uiso   1.00
C195   C     0.85997   0.17128   0.83302   0.00000  Uiso   1.00
C196   C     0.87850   0.15972   0.77825   0.00000  Uiso   1.00
C197   C     0.17036   0.40292   0.76897   0.00000  Uiso   1.00
C198   C     0.18847   0.39333   0.71396   0.00000  Uiso   1.00
C199   C     0.80363   0.82537   0.88941   0.00000  Uiso   1.00
C200   C     0.86303   0.87460   0.72618   0.00000  Uiso   1.00
C201   C     0.82594   0.85350   0.83709   0.00000  Uiso   1.00
C202   C     0.86570   0.87742   0.61521   0.00000  Uiso   1.00
N203   N     0.88108   0.87771   0.66850   0.00000  Uiso   1.00
C204   C     0.91893   0.90410   0.55600   0.00000  Uiso   1.00
C205   C     0.88452   0.88289   0.55645   0.00000  Uiso   1.00
C206   C     0.61548   0.11712   0.94355   0.00000  Uiso   1.00
C207   C     0.58107   0.09590   0.94400   0.00000  Uiso   1.00
N208   N     0.61892   0.12230   0.83150   0.00000  Uiso   1.00
C209   C     0.63430   0.12259   0.88479   0.00000  Uiso   1.00
C210   C     0.67406   0.14650   0.66291   0.00000  Uiso   1.00
C211   C     0.63697   0.12540   0.77382   0.00000  Uiso   1.00
C212   C     0.69637   0.17463   0.61059   0.00000  Uiso   1.00
C213   C     0.72654   0.21679   0.62569   0.00000  Uiso   1.00
C214   C     0.68639   0.16138   0.54937   0.00000  Uiso   1.00
H215   H     0.86006   0.90644   0.93141   0.00000  Uiso   1.00
H216   H     0.78461   0.91795   0.79016   0.00000  Uiso   1.00
H217   H     0.81726   0.93392   0.68978   0.00000  Uiso   1.00
H218   H     0.59366   0.17830   0.72412   0.00000  Uiso   1.00
H219   H     0.62746   0.20098   0.62534   0.00000  Uiso   1.00
H220   H     0.13994   0.59356   0.56859   0.00000  Uiso   1.00
H221   H     0.22260   0.71279   0.73144   0.00000  Uiso   1.00
H222   H     0.78185   0.20654   0.77552   0.00000  Uiso   1.00
H223   H     0.87254   0.20098   0.87466   0.00000  Uiso   1.00
H224   H     0.90634   0.17830   0.77588   0.00000  Uiso   1.00
H225   H     0.18274   0.43392   0.81022   0.00000  Uiso   1.00
H226   H     0.21539   0.41795   0.70984   0.00000  Uiso   1.00
H227   H     0.83681   0.87277   0.61485   0.00000  Uiso   1.00
H228   H     0.93310   0.91294   0.60149   0.00000  Uiso   1.00
H229   H     0.56690   0.08706   0.89851   0.00000  Uiso   1.00
H230   H     0.66319   0.12725   0.88515   0.00000  Uiso   1.00
C231   C     0.31361   0.33862   0.95063   0.00000  Uiso   1.00
C232   C     0.34239   0.38063   0.96814   0.00000  Uiso   1.00
C233   C     0.31153   0.39333   0.78604   0.00000  Uiso   1.00
C234   C     0.32964   0.40292   0.73103   0.00000  Uiso   1.00
C235   C     0.12150   0.65972   0.72175   0.00000  Uiso   1.00
C236   C     0.14003   0.67128   0.66698   0.00000  Uiso   1.00
C237   C     0.65762   0.11937   0.53186   0.00000  Uiso   1.00
C238   C     0.73522   0.22959   0.68576   0.00000  Uiso   1.00
C239   C     0.27346   0.71679   0.87431   0.00000  Uiso   1.00
C240   C     0.26478   0.72959   0.81424   0.00000  Uiso   1.00
C241   C     0.35997   0.67128   0.83302   0.00000  Uiso   1.00
C242   C     0.37850   0.65972   0.77825   0.00000  Uiso   1.00
C243   C     0.67036   0.90292   0.76897   0.00000  Uiso   1.00
C244   C     0.68847   0.89333   0.71396   0.00000  Uiso   1.00
C245   C     0.30363   0.32537   0.88941   0.00000  Uiso   1.00
C246   C     0.36303   0.37460   0.72618   0.00000  Uiso   1.00
C247   C     0.32594   0.35350   0.83709   0.00000  Uiso   1.00
C248   C     0.36570   0.37742   0.61521   0.00000  Uiso   1.00
N249   N     0.38108   0.37771   0.66850   0.00000  Uiso   1.00
C250   C     0.41893   0.40410   0.55600   0.00000  Uiso   1.00
C251   C     0.38452   0.38289   0.55645   0.00000  Uiso   1.00
C252   C     0.11548   0.61712   0.94355   0.00000  Uiso   1.00
C253   C     0.08107   0.59590   0.94400   0.00000  Uiso   1.00
N254   N     0.11892   0.62230   0.83150   0.00000  Uiso   1.00
C255   C     0.13430   0.62259   0.88479   0.00000  Uiso   1.00
C256   C     0.17406   0.64650   0.66291   0.00000  Uiso   1.00
C257   C     0.13697   0.62540   0.77382   0.00000  Uiso   1.00
C258   C     0.19637   0.67463   0.61059   0.00000  Uiso   1.00
C259   C     0.22654   0.71679   0.62569   0.00000  Uiso   1.00
C260   C     0.18639   0.66138   0.54937   0.00000  Uiso   1.00
H261   H     0.36006   0.40644   0.93141   0.00000  Uiso   1.00
H262   H     0.28461   0.41795   0.79016   0.00000  Uiso   1.00
H263   H     0.31726   0.43392   0.68978   0.00000  Uiso   1.00
H264   H     0.09366   0.67830   0.72412   0.00000  Uiso   1.00
H265   H     0.12746   0.70098   0.62534   0.00000  Uiso   1.00
H266   H     0.63994   0.09356   0.56859   0.00000  Uiso   1.00
H267   H     0.72260   0.21279   0.73144   0.00000  Uiso   1.00
H268   H     0.28185   0.70654   0.77552   0.00000  Uiso   1.00
H269   H     0.37254   0.70098   0.87466   0.00000  Uiso   1.00
H270   H     0.40634   0.67830   0.77588   0.00000  Uiso   1.00
H271   H     0.68274   0.93392   0.81022   0.00000  Uiso   1.00
H272   H     0.71539   0.91795   0.70984   0.00000  Uiso   1.00
H273   H     0.33681   0.37277   0.61485   0.00000  Uiso   1.00
H274   H     0.43310   0.41294   0.60149   0.00000  Uiso   1.00
H275   H     0.06690   0.58706   0.89851   0.00000  Uiso   1.00
H276   H     0.16319   0.62725   0.88515   0.00000  Uiso   1.00
C277   C     0.18639   0.16138   0.95063   0.00000  Uiso   1.00
C278   C     0.15761   0.11937   0.96814   0.00000  Uiso   1.00
C279   C     0.18847   0.10667   0.78604   0.00000  Uiso   1.00
C280   C     0.17036   0.09708   0.73103   0.00000  Uiso   1.00
C281   C     0.37850   0.84028   0.72175   0.00000  Uiso   1.00
C282   C     0.35997   0.82872   0.66698   0.00000  Uiso   1.00
C283   C     0.84238   0.38063   0.53186   0.00000  Uiso   1.00
C284   C     0.76478   0.27041   0.68576   0.00000  Uiso   1.00
C285   C     0.22654   0.78321   0.87431   0.00000  Uiso   1.00
C286   C     0.23522   0.77041   0.81424   0.00000  Uiso   1.00
C287   C     0.14003   0.82872   0.83302   0.00000  Uiso   1.00
C288   C     0.12150   0.84028   0.77825   0.00000  Uiso   1.00
C289   C     0.82964   0.59708   0.76897   0.00000  Uiso   1.00
C290   C     0.81153   0.60667   0.71396   0.00000  Uiso   1.00
C291   C     0.19637   0.17463   0.88941   0.00000  Uiso   1.00
C292   C     0.13697   0.12540   0.72618   0.00000  Uiso   1.00
C293   C     0.17406   0.14650   0.83709   0.00000  Uiso   1.00
C294   C     0.13430   0.12258   0.61521   0.00000  Uiso   1.00
N295   N     0.11892   0.12229   0.66850   0.00000  Uiso   1.00
C296   C     0.08107   0.09590   0.55600   0.00000  Uiso   1.00
C297   C     0.11548   0.11711   0.55645   0.00000  Uiso   1.00
C298   C     0.38452   0.88288   0.94355   0.00000  Uiso   1.00
C299   C     0.41893   0.90410   0.94400   0.00000  Uiso   1.00
N300   N     0.38108   0.87770   0.83150   0.00000  Uiso   1.00
C301   C     0.36570   0.87741   0.88479   0.00000  Uiso   1.00
C302   C     0.32594   0.85350   0.66291   0.00000  Uiso   1.00
C303   C     0.36303   0.87460   0.77382   0.00000  Uiso   1.00
C304   C     0.30363   0.82537   0.61059   0.00000  Uiso   1.00
C305   C     0.27346   0.78321   0.62569   0.00000  Uiso   1.00
C306   C     0.31361   0.83862   0.54937   0.00000  Uiso   1.00
H307   H     0.13994   0.09356   0.93141   0.00000  Uiso   1.00
H308   H     0.21539   0.08205   0.79016   0.00000  Uiso   1.00
H309   H     0.18274   0.06608   0.68978   0.00000  Uiso   1.00
H310   H     0.40634   0.82170   0.72412   0.00000  Uiso   1.00
H311   H     0.37254   0.79902   0.62534   0.00000  Uiso   1.00
H312   H     0.86006   0.40644   0.56859   0.00000  Uiso   1.00
H313   H     0.77740   0.28721   0.73144   0.00000  Uiso   1.00
H314   H     0.21815   0.79346   0.77552   0.00000  Uiso   1.00
H315   H     0.12746   0.79902   0.87466   0.00000  Uiso   1.00
H316   H     0.09366   0.82170   0.77588   0.00000  Uiso   1.00
H317   H     0.81726   0.56608   0.81022   0.00000  Uiso   1.00
H318   H     0.78461   0.58205   0.70984   0.00000  Uiso   1.00
H319   H     0.16319   0.12723   0.61485   0.00000  Uiso   1.00
H320   H     0.06690   0.08706   0.60149   0.00000  Uiso   1.00
H321   H     0.43310   0.91294   0.89851   0.00000  Uiso   1.00
H322   H     0.33681   0.87275   0.88515   0.00000  Uiso   1.00
C323   C     0.68639   0.66138   0.95063   0.00000  Uiso   1.00
C324   C     0.65761   0.61937   0.96814   0.00000  Uiso   1.00
C325   C     0.68847   0.60667   0.78604   0.00000  Uiso   1.00
C326   C     0.67036   0.59708   0.73103   0.00000  Uiso   1.00
C327   C     0.87850   0.34028   0.72175   0.00000  Uiso   1.00
C328   C     0.85997   0.32872   0.66698   0.00000  Uiso   1.00
C329   C     0.34238   0.88063   0.53186   0.00000  Uiso   1.00
C330   C     0.26478   0.77041   0.68576   0.00000  Uiso   1.00
C331   C     0.72654   0.28321   0.87431   0.00000  Uiso   1.00
C332   C     0.73522   0.27041   0.81424   0.00000  Uiso   1.00
C333   C     0.64003   0.32872   0.83302   0.00000  Uiso   1.00
C334   C     0.62150   0.34028   0.77825   0.00000  Uiso   1.00
C335   C     0.32964   0.09708   0.76897   0.00000  Uiso   1.00
C336   C     0.31153   0.10667   0.71396   0.00000  Uiso   1.00
C337   C     0.69637   0.67463   0.88941   0.00000  Uiso   1.00
C338   C     0.63697   0.62540   0.72618   0.00000  Uiso   1.00
C339   C     0.67406   0.64650   0.83709   0.00000  Uiso   1.00
C340   C     0.63430   0.62258   0.61521   0.00000  Uiso   1.00
N341   N     0.61892   0.62229   0.66850   0.00000  Uiso   1.00
C342   C     0.58107   0.59590   0.55600   0.00000  Uiso   1.00
C343   C     0.61548   0.61711   0.55645   0.00000  Uiso   1.00
C344   C     0.88452   0.38288   0.94355   0.00000  Uiso   1.00
C345   C     0.91893   0.40410   0.94400   0.00000  Uiso   1.00
N346   N     0.88108   0.37770   0.83150   0.00000  Uiso   1.00
C347   C     0.86570   0.37741   0.88479   0.00000  Uiso   1.00
C348   C     0.82594   0.35350   0.66291   0.00000  Uiso   1.00
C349   C     0.86303   0.37460   0.77382   0.00000  Uiso   1.00
C350   C     0.80363   0.32537   0.61059   0.00000  Uiso   1.00
C351   C     0.77346   0.28321   0.62569   0.00000  Uiso   1.00
C352   C     0.81361   0.33862   0.54937   0.00000  Uiso   1.00
H353   H     0.63994   0.59356   0.93141   0.00000  Uiso   1.00
H354   H     0.71539   0.58205   0.79016   0.00000  Uiso   1.00
H355   H     0.68274   0.56608   0.68978   0.00000  Uiso   1.00
H356   H     0.90634   0.32170   0.72412   0.00000  Uiso   1.00
H357   H     0.87254   0.29902   0.62534   0.00000  Uiso   1.00
H358   H     0.36006   0.90644   0.56859   0.00000  Uiso   1.00
H359   H     0.27740   0.78721   0.73144   0.00000  Uiso   1.00
H360   H     0.71815   0.29346   0.77552   0.00000  Uiso   1.00
H361   H     0.62746   0.29902   0.87466   0.00000  Uiso   1.00
H362   H     0.59366   0.32170   0.77588   0.00000  Uiso   1.00
H363   H     0.31726   0.06608   0.81022   0.00000  Uiso   1.00
H364   H     0.28461   0.08205   0.70984   0.00000  Uiso   1.00
H365   H     0.66319   0.62723   0.61485   0.00000  Uiso   1.00
H366   H     0.56690   0.58706   0.60149   0.00000  Uiso   1.00
H367   H     0.93310   0.41294   0.89851   0.00000  Uiso   1.00
H368   H     0.83681   0.37275   0.88515   0.00000  Uiso   1.00
N369   N     0.29590   0.18684   0.50000   0.00000  Uiso   1.00
C370   C     0.36728   0.62653   0.50000   0.00000  Uiso   1.00
C371   C     0.43623   0.58536   0.50000   0.00000  Uiso   1.00
C372   C     0.46910   0.54252   0.50000   0.00000  Uiso   1.00
H373   H     0.27540   0.21208   0.50000   0.00000  Uiso   1.00
H374   H     0.48339   0.71025   0.48407   0.00000  Uiso   1.00
N375   N     0.79590   0.68684   0.50000   0.00000  Uiso   1.00
C376   C     0.86728   0.12653   0.50000   0.00000  Uiso   1.00
C377   C     0.93623   0.08536   0.50000   0.00000  Uiso   1.00
C378   C     0.96910   0.04252   0.50000   0.00000  Uiso   1.00
H379   H     0.77540   0.71208   0.50000   0.00000  Uiso   1.00
H380   H     0.98229   0.21388   0.52294   0.00000  Uiso   1.00
N381   N     0.70410   0.81316   0.50000   0.00000  Uiso   1.00
C382   C     0.63272   0.37347   0.50000   0.00000  Uiso   1.00
C383   C     0.56377   0.41464   0.50000   0.00000  Uiso   1.00
C384   C     0.53090   0.45748   0.50000   0.00000  Uiso   1.00
H385   H     0.72460   0.78792   0.50000   0.00000  Uiso   1.00
H386   H     0.51746   0.28975   0.48407   0.00000  Uiso   1.00
N387   N     0.20410   0.31316   0.50000   0.00000  Uiso   1.00
C388   C     0.13272   0.87347   0.50000   0.00000  Uiso   1.00
C389   C     0.06377   0.91464   0.50000   0.00000  Uiso   1.00
C390   C     0.03090   0.95748   0.50000   0.00000  Uiso   1.00
H391   H     0.22460   0.28792   0.50000   0.00000  Uiso   1.00
H392   H     0.01641   0.78609   0.52666   0.00000  Uiso   1.00
N393   N     0.25000   0.25000   0.41308   0.00000  Uiso   1.00
H394   H     0.25000   0.25000   0.05443   0.00000  Uiso   1.00
N395   N     0.75000   0.75000   0.41308   0.00000  Uiso   1.00
H396   H     0.75000   0.75000   0.05443   0.00000  Uiso   1.00
N397   N     0.75000   0.25000   0.58692   0.00000  Uiso   1.00
H398   H     0.75000   0.25000   0.94557   0.00000  Uiso   1.00
N399   N     0.25000   0.75000   0.58692   0.00000  Uiso   1.00
H400   H     0.25000   0.75000   0.94557   0.00000  Uiso   1.00
N401   N     0.79590   0.18684   0.00000   0.00000  Uiso   1.00
C402   C     0.36728   0.12655   0.00000   0.00000  Uiso   1.00
C403   C     0.46910   0.04252   0.00000   0.00000  Uiso   1.00
C404   C     0.43623   0.08535   0.00000   0.00000  Uiso   1.00
H405   H     0.51611   0.79604   0.01482   0.00000  Uiso   1.00
N406   N     0.29590   0.68684   0.00000   0.00000  Uiso   1.00
C407   C     0.86728   0.62655   0.00000   0.00000  Uiso   1.00
C408   C     0.96910   0.54252   0.00000   0.00000  Uiso   1.00
C409   C     0.93623   0.58535   0.00000   0.00000  Uiso   1.00
H410   H     0.01628   0.29178   0.01486   0.00000  Uiso   1.00
N411   N     0.20410   0.81316   0.00000   0.00000  Uiso   1.00
C412   C     0.63272   0.87345   0.00000   0.00000  Uiso   1.00
C413   C     0.53090   0.95748   0.00000   0.00000  Uiso   1.00
C414   C     0.56377   0.91465   0.00000   0.00000  Uiso   1.00
H415   H     0.48333   0.20299   0.02224   0.00000  Uiso   1.00
N416   N     0.70410   0.31316   0.00000   0.00000  Uiso   1.00
C417   C     0.13272   0.37345   0.00000   0.00000  Uiso   1.00
C418   C     0.03090   0.45748   0.00000   0.00000  Uiso   1.00
C419   C     0.06377   0.41465   0.00000   0.00000  Uiso   1.00
H420   H     0.98361   0.70822   0.01486   0.00000  Uiso   1.00
N421   N     0.75000   0.25000   0.91308   0.00000  Uiso   1.00
N422   N     0.25000   0.75000   0.91308   0.00000  Uiso   1.00
N423   N     0.25000   0.25000   0.08692   0.00000  Uiso   1.00
N424   N     0.75000   0.75000   0.08692   0.00000  Uiso   1.00
C425   C     0.50000   0.32522   0.50000   0.00000  Uiso   1.00
C426   C     0.50000   0.41511   0.50000   0.00000  Uiso   1.00
C427   C     0.00000   0.82522   0.50000   0.00000  Uiso   1.00
C428   C     0.00000   0.91511   0.50000   0.00000  Uiso   1.00
C429   C     0.50000   0.82522   0.00000   0.00000  Uiso   1.00
C430   C     0.50000   0.91511   0.00000   0.00000  Uiso   1.00
C431   C     0.00000   0.32522   0.00000   0.00000  Uiso   1.00
C432   C     0.00000   0.41511   0.00000   0.00000  Uiso   1.00
H433   H     0.49891   0.71359   0.52704   0.00000  Uiso   1.00
H434   H     0.00091   0.21637   0.46747   0.00000  Uiso   1.00
H435   H     0.50057   0.79391   0.97433   0.00000  Uiso   1.00
H436   H     0.00011   0.29475   0.97027   0.00000  Uiso   1.00
H437   H     0.66037   0.35836   0.49833   0.00000  Uiso   1.00
H438   H     0.83963   0.14164   0.49833   0.00000  Uiso   1.00
C439   C     0.18639   0.16138   0.04937   0.00000  Uiso   1.00
C440   C     0.15761   0.11937   0.03186   0.00000  Uiso   1.00
C441   C     0.18847   0.10667   0.21396   0.00000  Uiso   1.00
C442   C     0.17036   0.09708   0.26897   0.00000  Uiso   1.00
C443   C     0.37850   0.84028   0.27825   0.00000  Uiso   1.00
C444   C     0.35997   0.82872   0.33302   0.00000  Uiso   1.00
C445   C     0.84238   0.38063   0.46814   0.00000  Uiso   1.00
C446   C     0.76478   0.27041   0.31424   0.00000  Uiso   1.00
C447   C     0.22654   0.78321   0.12569   0.00000  Uiso   1.00
C448   C     0.23522   0.77041   0.18576   0.00000  Uiso   1.00
C449   C     0.14003   0.82872   0.16698   0.00000  Uiso   1.00
C450   C     0.12150   0.84028   0.22175   0.00000  Uiso   1.00
C451   C     0.82964   0.59708   0.23103   0.00000  Uiso   1.00
C452   C     0.81153   0.60667   0.28604   0.00000  Uiso   1.00
C453   C     0.19637   0.17463   0.11059   0.00000  Uiso   1.00
C454   C     0.13697   0.12540   0.27382   0.00000  Uiso   1.00
C455   C     0.17406   0.14650   0.16291   0.00000  Uiso   1.00
C456   C     0.13430   0.12258   0.38479   0.00000  Uiso   1.00
N457   N     0.11892   0.12229   0.33150   0.00000  Uiso   1.00
C458   C     0.08107   0.09590   0.44400   0.00000  Uiso   1.00
C459   C     0.11548   0.11711   0.44355   0.00000  Uiso   1.00
C460   C     0.38452   0.88288   0.05645   0.00000  Uiso   1.00
C461   C     0.41893   0.90410   0.05600   0.00000  Uiso   1.00
N462   N     0.38108   0.87770   0.16850   0.00000  Uiso   1.00
C463   C     0.36570   0.87741   0.11521   0.00000  Uiso   1.00
C464   C     0.32594   0.85350   0.33709   0.00000  Uiso   1.00
C465   C     0.36303   0.87460   0.22618   0.00000  Uiso   1.00
C466   C     0.30363   0.82537   0.38941   0.00000  Uiso   1.00
C467   C     0.27346   0.78321   0.37431   0.00000  Uiso   1.00
C468   C     0.31361   0.83862   0.45063   0.00000  Uiso   1.00
H469   H     0.13994   0.09356   0.06859   0.00000  Uiso   1.00
H470   H     0.21539   0.08205   0.20984   0.00000  Uiso   1.00
H471   H     0.18274   0.06608   0.31022   0.00000  Uiso   1.00
H472   H     0.40634   0.82170   0.27588   0.00000  Uiso   1.00
H473   H     0.37254   0.79902   0.37466   0.00000  Uiso   1.00
H474   H     0.86006   0.40644   0.43141   0.00000  Uiso   1.00
H475   H     0.77740   0.28721   0.26856   0.00000  Uiso   1.00
H476   H     0.21815   0.79346   0.22448   0.00000  Uiso   1.00
H477   H     0.12746   0.79902   0.12534   0.00000  Uiso   1.00
H478   H     0.09366   0.82170   0.22412   0.00000  Uiso   1.00
H479   H     0.81726   0.56608   0.18978   0.00000  Uiso   1.00
H480   H     0.78461   0.58205   0.29016   0.00000  Uiso   1.00
H481   H     0.16319   0.12723   0.38515   0.00000  Uiso   1.00
H482   H     0.06690   0.08706   0.39851   0.00000  Uiso   1.00
H483   H     0.43310   0.91294   0.10149   0.00000  Uiso   1.00
H484   H     0.33681   0.87275   0.11485   0.00000  Uiso   1.00
C485   C     0.68639   0.66138   0.04937   0.00000  Uiso   1.00
C486   C     0.65761   0.61937   0.03186   0.00000  Uiso   1.00
C487   C     0.68847   0.60667   0.21396   0.00000  Uiso   1.00
C488   C     0.67036   0.59708   0.26897   0.00000  Uiso   1.00
C489   C     0.87850   0.34028   0.27825   0.00000  Uiso   1.00
C490   C     0.85997   0.32872   0.33302   0.00000  Uiso   1.00
C491   C     0.34238   0.88063   0.46814   0.00000  Uiso   1.00
C492   C     0.26478   0.77041   0.31424   0.00000  Uiso   1.00
C493   C     0.72654   0.28321   0.12569   0.00000  Uiso   1.00
C494   C     0.73522   0.27041   0.18576   0.00000  Uiso   1.00
C495   C     0.64003   0.32872   0.16698   0.00000  Uiso   1.00
C496   C     0.62150   0.34028   0.22175   0.00000  Uiso   1.00
C497   C     0.32964   0.09708   0.23103   0.00000  Uiso   1.00
C498   C     0.31153   0.10667   0.28604   0.00000  Uiso   1.00
C499   C     0.69637   0.67463   0.11059   0.00000  Uiso   1.00
C500   C     0.63697   0.62540   0.27382   0.00000  Uiso   1.00
C501   C     0.67406   0.64650   0.16291   0.00000  Uiso   1.00
C502   C     0.63430   0.62258   0.38479   0.00000  Uiso   1.00
N503   N     0.61892   0.62229   0.33150   0.00000  Uiso   1.00
C504   C     0.58107   0.59590   0.44400   0.00000  Uiso   1.00
C505   C     0.61548   0.61711   0.44355   0.00000  Uiso   1.00
C506   C     0.88452   0.38288   0.05645   0.00000  Uiso   1.00
C507   C     0.91893   0.40410   0.05600   0.00000  Uiso   1.00
N508   N     0.88108   0.37770   0.16850   0.00000  Uiso   1.00
C509   C     0.86570   0.37741   0.11521   0.00000  Uiso   1.00
C510   C     0.82594   0.35350   0.33709   0.00000  Uiso   1.00
C511   C     0.86303   0.37460   0.22618   0.00000  Uiso   1.00
C512   C     0.80363   0.32537   0.38941   0.00000  Uiso   1.00
C513   C     0.77346   0.28321   0.37431   0.00000  Uiso   1.00
C514   C     0.81361   0.33862   0.45063   0.00000  Uiso   1.00
H515   H     0.63994   0.59356   0.06859   0.00000  Uiso   1.00
H516   H     0.71539   0.58205   0.20984   0.00000  Uiso   1.00
H517   H     0.68274   0.56608   0.31022   0.00000  Uiso   1.00
H518   H     0.90634   0.32170   0.27588   0.00000  Uiso   1.00
H519   H     0.87254   0.29902   0.37466   0.00000  Uiso   1.00
H520   H     0.36006   0.90644   0.43141   0.00000  Uiso   1.00
H521   H     0.27740   0.78721   0.26856   0.00000  Uiso   1.00
H522   H     0.71815   0.29346   0.22448   0.00000  Uiso   1.00
H523   H     0.62746   0.29902   0.12534   0.00000  Uiso   1.00
H524   H     0.59366   0.32170   0.22412   0.00000  Uiso   1.00
H525   H     0.31726   0.06608   0.18978   0.00000  Uiso   1.00
H526   H     0.28461   0.08205   0.29016   0.00000  Uiso   1.00
H527   H     0.66319   0.62723   0.38515   0.00000  Uiso   1.00
H528   H     0.56690   0.58706   0.39851   0.00000  Uiso   1.00
H529   H     0.93310   0.41294   0.10149   0.00000  Uiso   1.00
H530   H     0.83681   0.37275   0.11485   0.00000  Uiso   1.00
C531   C     0.81361   0.83862   0.04937   0.00000  Uiso   1.00
C532   C     0.84239   0.88063   0.03186   0.00000  Uiso   1.00
C533   C     0.81153   0.89333   0.21396   0.00000  Uiso   1.00
C534   C     0.82964   0.90292   0.26897   0.00000  Uiso   1.00
C535   C     0.62150   0.15972   0.27825   0.00000  Uiso   1.00
C536   C     0.64003   0.17128   0.33302   0.00000  Uiso   1.00
C537   C     0.15762   0.61937   0.46814   0.00000  Uiso   1.00
C538   C     0.23522   0.72959   0.31424   0.00000  Uiso   1.00
C539   C     0.77346   0.21679   0.12569   0.00000  Uiso   1.00
C540   C     0.76478   0.22959   0.18576   0.00000  Uiso   1.00
C541   C     0.85997   0.17128   0.16698   0.00000  Uiso   1.00
C542   C     0.87850   0.15972   0.22175   0.00000  Uiso   1.00
C543   C     0.17036   0.40292   0.23103   0.00000  Uiso   1.00
C544   C     0.18847   0.39333   0.28604   0.00000  Uiso   1.00
C545   C     0.80363   0.82537   0.11059   0.00000  Uiso   1.00
C546   C     0.86303   0.87460   0.27382   0.00000  Uiso   1.00
C547   C     0.82594   0.85350   0.16291   0.00000  Uiso   1.00
C548   C     0.86570   0.87742   0.38479   0.00000  Uiso   1.00
N549   N     0.88108   0.87771   0.33150   0.00000  Uiso   1.00
C550   C     0.91893   0.90410   0.44400   0.00000  Uiso   1.00
C551   C     0.88452   0.88289   0.44355   0.00000  Uiso   1.00
C552   C     0.61548   0.11712   0.05645   0.00000  Uiso   1.00
C553   C     0.58107   0.09590   0.05600   0.00000  Uiso   1.00
N554   N     0.61892   0.12230   0.16850   0.00000  Uiso   1.00
C555   C     0.63430   0.12259   0.11521   0.00000  Uiso   1.00
C556   C     0.67406   0.14650   0.33709   0.00000  Uiso   1.00
C557   C     0.63697   0.12540   0.22618   0.00000  Uiso   1.00
C558   C     0.69637   0.17463   0.38941   0.00000  Uiso   1.00
C559   C     0.72654   0.21679   0.37431   0.00000  Uiso   1.00
C560   C     0.68639   0.16138   0.45063   0.00000  Uiso   1.00
H561   H     0.86006   0.90644   0.06859   0.00000  Uiso   1.00
H562   H     0.78461   0.91795   0.20984   0.00000  Uiso   1.00
H563   H     0.81726   0.93392   0.31022   0.00000  Uiso   1.00
H564   H     0.59366   0.17830   0.27588   0.00000  Uiso   1.00
H565   H     0.62746   0.20098   0.37466   0.00000  Uiso   1.00
H566   H     0.13994   0.59356   0.43141   0.00000  Uiso   1.00
H567   H     0.22260   0.71279   0.26856   0.00000  Uiso   1.00
H568   H     0.78185   0.20654   0.22448   0.00000  Uiso   1.00
H569   H     0.87254   0.20098   0.12534   0.00000  Uiso   1.00
H570   H     0.90634   0.17830   0.22412   0.00000  Uiso   1.00
H571   H     0.18274   0.43392   0.18978   0.00000  Uiso   1.00
H572   H     0.21539   0.41795   0.29016   0.00000  Uiso   1.00
H573   H     0.83681   0.87277   0.38515   0.00000  Uiso   1.00
H574   H     0.93310   0.91294   0.39851   0.00000  Uiso   1.00
H575   H     0.56690   0.08706   0.10149   0.00000  Uiso   1.00
H576   H     0.66319   0.12725   0.11485   0.00000  Uiso   1.00
C577   C     0.31361   0.33862   0.04937   0.00000  Uiso   1.00
C578   C     0.34239   0.38063   0.03186   0.00000  Uiso   1.00
C579   C     0.31153   0.39333   0.21396   0.00000  Uiso   1.00
C580   C     0.32964   0.40292   0.26897   0.00000  Uiso   1.00
C581   C     0.12150   0.65972   0.27825   0.00000  Uiso   1.00
C582   C     0.14003   0.67128   0.33302   0.00000  Uiso   1.00
C583   C     0.65762   0.11937   0.46814   0.00000  Uiso   1.00
C584   C     0.73522   0.22959   0.31424   0.00000  Uiso   1.00
C585   C     0.27346   0.71679   0.12569   0.00000  Uiso   1.00
C586   C     0.26478   0.72959   0.18576   0.00000  Uiso   1.00
C587   C     0.35997   0.67128   0.16698   0.00000  Uiso   1.00
C588   C     0.37850   0.65972   0.22175   0.00000  Uiso   1.00
C589   C     0.67036   0.90292   0.23103   0.00000  Uiso   1.00
C590   C     0.68847   0.89333   0.28604   0.00000  Uiso   1.00
C591   C     0.30363   0.32537   0.11059   0.00000  Uiso   1.00
C592   C     0.36303   0.37460   0.27382   0.00000  Uiso   1.00
C593   C     0.32594   0.35350   0.16291   0.00000  Uiso   1.00
C594   C     0.36570   0.37742   0.38479   0.00000  Uiso   1.00
N595   N     0.38108   0.37771   0.33150   0.00000  Uiso   1.00
C596   C     0.41893   0.40410   0.44400   0.00000  Uiso   1.00
C597   C     0.38452   0.38289   0.44355   0.00000  Uiso   1.00
C598   C     0.11548   0.61712   0.05645   0.00000  Uiso   1.00
C599   C     0.08107   0.59590   0.05600   0.00000  Uiso   1.00
N600   N     0.11892   0.62230   0.16850   0.00000  Uiso   1.00
C601   C     0.13430   0.62259   0.11521   0.00000  Uiso   1.00
C602   C     0.17406   0.64650   0.33709   0.00000  Uiso   1.00
C603   C     0.13697   0.62540   0.22618   0.00000  Uiso   1.00
C604   C     0.19637   0.67463   0.38941   0.00000  Uiso   1.00
C605   C     0.22654   0.71679   0.37431   0.00000  Uiso   1.00
C606   C     0.18639   0.66138   0.45063   0.00000  Uiso   1.00
H607   H     0.36006   0.40644   0.06859   0.00000  Uiso   1.00
H608   H     0.28461   0.41795   0.20984   0.00000  Uiso   1.00
H609   H     0.31726   0.43392   0.31022   0.00000  Uiso   1.00
H610   H     0.09366   0.67830   0.27588   0.00000  Uiso   1.00
H611   H     0.12746   0.70098   0.37466   0.00000  Uiso   1.00
H612   H     0.63994   0.09356   0.43141   0.00000  Uiso   1.00
H613   H     0.72260   0.21279   0.26856   0.00000  Uiso   1.00
H614   H     0.28185   0.70654   0.22448   0.00000  Uiso   1.00
H615   H     0.37254   0.70098   0.12534   0.00000  Uiso   1.00
H616   H     0.40634   0.67830   0.22412   0.00000  Uiso   1.00
H617   H     0.68274   0.93392   0.18978   0.00000  Uiso   1.00
H618   H     0.71539   0.91795   0.29016   0.00000  Uiso   1.00
H619   H     0.33681   0.37277   0.38515   0.00000  Uiso   1.00
H620   H     0.43310   0.41294   0.39851   0.00000  Uiso   1.00
H621   H     0.06690   0.58706   0.10149   0.00000  Uiso   1.00
H622   H     0.16319   0.62725   0.11485   0.00000  Uiso   1.00
C623   C     0.81361   0.16138   0.95063   0.00000  Uiso   1.00
C624   C     0.84239   0.11937   0.96814   0.00000  Uiso   1.00
C625   C     0.81153   0.10667   0.78604   0.00000  Uiso   1.00
C626   C     0.82964   0.09708   0.73103   0.00000  Uiso   1.00
C627   C     0.62150   0.84028   0.72175   0.00000  Uiso   1.00
C628   C     0.64003   0.82872   0.66698   0.00000  Uiso   1.00
C629   C     0.15762   0.38063   0.53186   0.00000  Uiso   1.00
C630   C     0.23522   0.27041   0.68576   0.00000  Uiso   1.00
C631   C     0.77346   0.78321   0.87431   0.00000  Uiso   1.00
C632   C     0.76478   0.77041   0.81424   0.00000  Uiso   1.00
C633   C     0.85997   0.82872   0.83302   0.00000  Uiso   1.00
C634   C     0.87850   0.84028   0.77825   0.00000  Uiso   1.00
C635   C     0.17036   0.59708   0.76897   0.00000  Uiso   1.00
C636   C     0.18847   0.60667   0.71396   0.00000  Uiso   1.00
C637   C     0.80363   0.17463   0.88941   0.00000  Uiso   1.00
C638   C     0.86303   0.12540   0.72618   0.00000  Uiso   1.00
C639   C     0.82594   0.14650   0.83709   0.00000  Uiso   1.00
C640   C     0.86570   0.12258   0.61521   0.00000  Uiso   1.00
N641   N     0.88108   0.12229   0.66850   0.00000  Uiso   1.00
C642   C     0.91893   0.09590   0.55600   0.00000  Uiso   1.00
C643   C     0.88452   0.11711   0.55645   0.00000  Uiso   1.00
C644   C     0.61548   0.88288   0.94355   0.00000  Uiso   1.00
C645   C     0.58107   0.90410   0.94400   0.00000  Uiso   1.00
N646   N     0.61892   0.87770   0.83150   0.00000  Uiso   1.00
C647   C     0.63430   0.87741   0.88479   0.00000  Uiso   1.00
C648   C     0.67406   0.85350   0.66291   0.00000  Uiso   1.00
C649   C     0.63697   0.87460   0.77382   0.00000  Uiso   1.00
C650   C     0.69637   0.82537   0.61059   0.00000  Uiso   1.00
C651   C     0.72654   0.78321   0.62569   0.00000  Uiso   1.00
C652   C     0.68639   0.83862   0.54937   0.00000  Uiso   1.00
H653   H     0.86006   0.09356   0.93141   0.00000  Uiso   1.00
H654   H     0.78461   0.08205   0.79016   0.00000  Uiso   1.00
H655   H     0.81726   0.06608   0.68978   0.00000  Uiso   1.00
H656   H     0.59366   0.82170   0.72412   0.00000  Uiso   1.00
H657   H     0.62746   0.79902   0.62534   0.00000  Uiso   1.00
H658   H     0.13994   0.40644   0.56859   0.00000  Uiso   1.00
H659   H     0.22260   0.28721   0.73144   0.00000  Uiso   1.00
H660   H     0.78185   0.79346   0.77552   0.00000  Uiso   1.00
H661   H     0.87254   0.79902   0.87466   0.00000  Uiso   1.00
H662   H     0.90634   0.82170   0.77588   0.00000  Uiso   1.00
H663   H     0.18274   0.56608   0.81022   0.00000  Uiso   1.00
H664   H     0.21539   0.58205   0.70984   0.00000  Uiso   1.00
H665   H     0.83681   0.12723   0.61485   0.00000  Uiso   1.00
H666   H     0.93310   0.08706   0.60149   0.00000  Uiso   1.00
H667   H     0.56690   0.91294   0.89851   0.00000  Uiso   1.00
H668   H     0.66319   0.87275   0.88515   0.00000  Uiso   1.00
C669   C     0.31361   0.66138   0.95063   0.00000  Uiso   1.00
C670   C     0.34239   0.61937   0.96814   0.00000  Uiso   1.00
C671   C     0.31153   0.60667   0.78604   0.00000  Uiso   1.00
C672   C     0.32964   0.59708   0.73103   0.00000  Uiso   1.00
C673   C     0.12150   0.34028   0.72175   0.00000  Uiso   1.00
C674   C     0.14003   0.32872   0.66698   0.00000  Uiso   1.00
C675   C     0.65762   0.88063   0.53186   0.00000  Uiso   1.00
C676   C     0.73522   0.77041   0.68576   0.00000  Uiso   1.00
C677   C     0.27346   0.28321   0.87431   0.00000  Uiso   1.00
C678   C     0.26478   0.27041   0.81424   0.00000  Uiso   1.00
C679   C     0.35997   0.32872   0.83302   0.00000  Uiso   1.00
C680   C     0.37850   0.34028   0.77825   0.00000  Uiso   1.00
C681   C     0.67036   0.09708   0.76897   0.00000  Uiso   1.00
C682   C     0.68847   0.10667   0.71396   0.00000  Uiso   1.00
C683   C     0.30363   0.67463   0.88941   0.00000  Uiso   1.00
C684   C     0.36303   0.62540   0.72618   0.00000  Uiso   1.00
C685   C     0.32594   0.64650   0.83709   0.00000  Uiso   1.00
C686   C     0.36570   0.62258   0.61521   0.00000  Uiso   1.00
N687   N     0.38108   0.62229   0.66850   0.00000  Uiso   1.00
C688   C     0.41893   0.59590   0.55600   0.00000  Uiso   1.00
C689   C     0.38452   0.61711   0.55645   0.00000  Uiso   1.00
C690   C     0.11548   0.38288   0.94355   0.00000  Uiso   1.00
C691   C     0.08107   0.40410   0.94400   0.00000  Uiso   1.00
N692   N     0.11892   0.37770   0.83150   0.00000  Uiso   1.00
C693   C     0.13430   0.37741   0.88479   0.00000  Uiso   1.00
C694   C     0.17406   0.35350   0.66291   0.00000  Uiso   1.00
C695   C     0.13697   0.37460   0.77382   0.00000  Uiso   1.00
C696   C     0.19637   0.32537   0.61059   0.00000  Uiso   1.00
C697   C     0.22654   0.28321   0.62569   0.00000  Uiso   1.00
C698   C     0.18639   0.33862   0.54937   0.00000  Uiso   1.00
H699   H     0.36006   0.59356   0.93141   0.00000  Uiso   1.00
H700   H     0.28461   0.58205   0.79016   0.00000  Uiso   1.00
H701   H     0.31726   0.56608   0.68978   0.00000  Uiso   1.00
H702   H     0.09366   0.32170   0.72412   0.00000  Uiso   1.00
H703   H     0.12746   0.29902   0.62534   0.00000  Uiso   1.00
H704   H     0.63994   0.90644   0.56859   0.00000  Uiso   1.00
H705   H     0.72260   0.78721   0.73144   0.00000  Uiso   1.00
H706   H     0.28185   0.29346   0.77552   0.00000  Uiso   1.00
H707   H     0.37254   0.29902   0.87466   0.00000  Uiso   1.00
H708   H     0.40634   0.32170   0.77588   0.00000  Uiso   1.00
H709   H     0.68274   0.06608   0.81022   0.00000  Uiso   1.00
H710   H     0.71539   0.08205   0.70984   0.00000  Uiso   1.00
H711   H     0.33681   0.62723   0.61485   0.00000  Uiso   1.00
H712   H     0.43310   0.58706   0.60149   0.00000  Uiso   1.00
H713   H     0.06690   0.41294   0.89851   0.00000  Uiso   1.00
H714   H     0.16319   0.37275   0.88515   0.00000  Uiso   1.00
C715   C     0.18639   0.83862   0.95063   0.00000  Uiso   1.00
C716   C     0.15761   0.88063   0.96814   0.00000  Uiso   1.00
C717   C     0.18847   0.89333   0.78604   0.00000  Uiso   1.00
C718   C     0.17036   0.90292   0.73103   0.00000  Uiso   1.00
C719   C     0.37850   0.15972   0.72175   0.00000  Uiso   1.00
C720   C     0.35997   0.17128   0.66698   0.00000  Uiso   1.00
C721   C     0.84238   0.61937   0.53186   0.00000  Uiso   1.00
C722   C     0.76478   0.72959   0.68576   0.00000  Uiso   1.00
C723   C     0.22654   0.21679   0.87431   0.00000  Uiso   1.00
C724   C     0.23522   0.22959   0.81424   0.00000  Uiso   1.00
C725   C     0.14003   0.17128   0.83302   0.00000  Uiso   1.00
C726   C     0.12150   0.15972   0.77825   0.00000  Uiso   1.00
C727   C     0.82964   0.40292   0.76897   0.00000  Uiso   1.00
C728   C     0.81153   0.39333   0.71396   0.00000  Uiso   1.00
C729   C     0.19637   0.82537   0.88941   0.00000  Uiso   1.00
C730   C     0.13697   0.87460   0.72618   0.00000  Uiso   1.00
C731   C     0.17406   0.85350   0.83709   0.00000  Uiso   1.00
C732   C     0.13430   0.87742   0.61521   0.00000  Uiso   1.00
N733   N     0.11892   0.87771   0.66850   0.00000  Uiso   1.00
C734   C     0.08107   0.90410   0.55600   0.00000  Uiso   1.00
C735   C     0.11548   0.88289   0.55645   0.00000  Uiso   1.00
C736   C     0.38452   0.11712   0.94355   0.00000  Uiso   1.00
C737   C     0.41893   0.09590   0.94400   0.00000  Uiso   1.00
N738   N     0.38108   0.12230   0.83150   0.00000  Uiso   1.00
C739   C     0.36570   0.12259   0.88479   0.00000  Uiso   1.00
C740   C     0.32594   0.14650   0.66291   0.00000  Uiso   1.00
C741   C     0.36303   0.12540   0.77382   0.00000  Uiso   1.00
C742   C     0.30363   0.17463   0.61059   0.00000  Uiso   1.00
C743   C     0.27346   0.21679   0.62569   0.00000  Uiso   1.00
C744   C     0.31361   0.16138   0.54937   0.00000  Uiso   1.00
H745   H     0.13994   0.90644   0.93141   0.00000  Uiso   1.00
H746   H     0.21539   0.91795   0.79016   0.00000  Uiso   1.00
H747   H     0.18274   0.93392   0.68978   0.00000  Uiso   1.00
H748   H     0.40634   0.17830   0.72412   0.00000  Uiso   1.00
H749   H     0.37254   0.20098   0.62534   0.00000  Uiso   1.00
H750   H     0.86006   0.59356   0.56859   0.00000  Uiso   1.00
H751   H     0.77740   0.71279   0.73144   0.00000  Uiso   1.00
H752   H     0.21815   0.20654   0.77552   0.00000  Uiso   1.00
H753   H     0.12746   0.20098   0.87466   0.00000  Uiso   1.00
H754   H     0.09366   0.17830   0.77588   0.00000  Uiso   1.00
H755   H     0.81726   0.43392   0.81022   0.00000  Uiso   1.00
H756   H     0.78461   0.41795   0.70984   0.00000  Uiso   1.00
H757   H     0.16319   0.87277   0.61485   0.00000  Uiso   1.00
H758   H     0.06690   0.91294   0.60149   0.00000  Uiso   1.00
H759   H     0.43310   0.08706   0.89851   0.00000  Uiso   1.00
H760   H     0.33681   0.12725   0.88515   0.00000  Uiso   1.00
C761   C     0.68639   0.33862   0.95063   0.00000  Uiso   1.00
C762   C     0.65761   0.38063   0.96814   0.00000  Uiso   1.00
C763   C     0.68847   0.39333   0.78604   0.00000  Uiso   1.00
C764   C     0.67036   0.40292   0.73103   0.00000  Uiso   1.00
C765   C     0.87850   0.65972   0.72175   0.00000  Uiso   1.00
C766   C     0.85997   0.67128   0.66698   0.00000  Uiso   1.00
C767   C     0.34238   0.11937   0.53186   0.00000  Uiso   1.00
C768   C     0.26478   0.22959   0.68576   0.00000  Uiso   1.00
C769   C     0.72654   0.71679   0.87431   0.00000  Uiso   1.00
C770   C     0.73522   0.72959   0.81424   0.00000  Uiso   1.00
C771   C     0.64003   0.67128   0.83302   0.00000  Uiso   1.00
C772   C     0.62150   0.65972   0.77825   0.00000  Uiso   1.00
C773   C     0.32964   0.90292   0.76897   0.00000  Uiso   1.00
C774   C     0.31153   0.89333   0.71396   0.00000  Uiso   1.00
C775   C     0.69637   0.32537   0.88941   0.00000  Uiso   1.00
C776   C     0.63697   0.37460   0.72618   0.00000  Uiso   1.00
C777   C     0.67406   0.35350   0.83709   0.00000  Uiso   1.00
C778   C     0.63430   0.37742   0.61521   0.00000  Uiso   1.00
N779   N     0.61892   0.37771   0.66850   0.00000  Uiso   1.00
C780   C     0.58107   0.40410   0.55600   0.00000  Uiso   1.00
C781   C     0.61548   0.38289   0.55645   0.00000  Uiso   1.00
C782   C     0.88452   0.61712   0.94355   0.00000  Uiso   1.00
C783   C     0.91893   0.59590   0.94400   0.00000  Uiso   1.00
N784   N     0.88108   0.62230   0.83150   0.00000  Uiso   1.00
C785   C     0.86570   0.62259   0.88479   0.00000  Uiso   1.00
C786   C     0.82594   0.64650   0.66291   0.00000  Uiso   1.00
C787   C     0.86303   0.62540   0.77382   0.00000  Uiso   1.00
C788   C     0.80363   0.67463   0.61059   0.00000  Uiso   1.00
C789   C     0.77346   0.71679   0.62569   0.00000  Uiso   1.00
C790   C     0.81361   0.66138   0.54937   0.00000  Uiso   1.00
H791   H     0.63994   0.40644   0.93141   0.00000  Uiso   1.00
H792   H     0.71539   0.41795   0.79016   0.00000  Uiso   1.00
H793   H     0.68274   0.43392   0.68978   0.00000  Uiso   1.00
H794   H     0.90634   0.67830   0.72412   0.00000  Uiso   1.00
H795   H     0.87254   0.70098   0.62534   0.00000  Uiso   1.00
H796   H     0.36006   0.09356   0.56859   0.00000  Uiso   1.00
H797   H     0.27740   0.21279   0.73144   0.00000  Uiso   1.00
H798   H     0.71815   0.70654   0.77552   0.00000  Uiso   1.00
H799   H     0.62746   0.70098   0.87466   0.00000  Uiso   1.00
H800   H     0.59366   0.67830   0.77588   0.00000  Uiso   1.00
H801   H     0.31726   0.93392   0.81022   0.00000  Uiso   1.00
H802   H     0.28461   0.91795   0.70984   0.00000  Uiso   1.00
H803   H     0.66319   0.37277   0.61485   0.00000  Uiso   1.00
H804   H     0.56690   0.41294   0.60149   0.00000  Uiso   1.00
H805   H     0.93310   0.58706   0.89851   0.00000  Uiso   1.00
H806   H     0.83681   0.62725   0.88515   0.00000  Uiso   1.00
N807   N     0.29590   0.81316   0.50000   0.00000  Uiso   1.00
C808   C     0.36728   0.37347   0.50000   0.00000  Uiso   1.00
C809   C     0.43623   0.41464   0.50000   0.00000  Uiso   1.00
C810   C     0.46910   0.45748   0.50000   0.00000  Uiso   1.00
H811   H     0.27540   0.78792   0.50000   0.00000  Uiso   1.00
H812   H     0.48339   0.28975   0.48407   0.00000  Uiso   1.00
N813   N     0.79590   0.31316   0.50000   0.00000  Uiso   1.00
C814   C     0.86728   0.87347   0.50000   0.00000  Uiso   1.00
C815   C     0.93623   0.91464   0.50000   0.00000  Uiso   1.00
C816   C     0.96910   0.95748   0.50000   0.00000  Uiso   1.00
H817   H     0.77540   0.28792   0.50000   0.00000  Uiso   1.00
H818   H     0.98229   0.78612   0.52294   0.00000  Uiso   1.00
N819   N     0.70410   0.18684   0.50000   0.00000  Uiso   1.00
C820   C     0.63272   0.62653   0.50000   0.00000  Uiso   1.00
C821   C     0.56377   0.58536   0.50000   0.00000  Uiso   1.00
C822   C     0.53090   0.54252   0.50000   0.00000  Uiso   1.00
H823   H     0.72460   0.21208   0.50000   0.00000  Uiso   1.00
H824   H     0.51746   0.71025   0.48407   0.00000  Uiso   1.00
N825   N     0.20410   0.68684   0.50000   0.00000  Uiso   1.00
C826   C     0.13272   0.12653   0.50000   0.00000  Uiso   1.00
C827   C     0.06377   0.08536   0.50000   0.00000  Uiso   1.00
C828   C     0.03090   0.04252   0.50000   0.00000  Uiso   1.00
H829   H     0.22460   0.71208   0.50000   0.00000  Uiso   1.00
H830   H     0.01641   0.21391   0.52666   0.00000  Uiso   1.00
N831   N     0.25000   0.75000   0.41308   0.00000  Uiso   1.00
H832   H     0.25000   0.75000   0.05443   0.00000  Uiso   1.00
N833   N     0.75000   0.25000   0.41308   0.00000  Uiso   1.00
H834   H     0.75000   0.25000   0.05443   0.00000  Uiso   1.00
N835   N     0.75000   0.75000   0.58692   0.00000  Uiso   1.00
H836   H     0.75000   0.75000   0.94557   0.00000  Uiso   1.00
N837   N     0.25000   0.25000   0.58692   0.00000  Uiso   1.00
H838   H     0.25000   0.25000   0.94557   0.00000  Uiso   1.00
N839   N     0.79590   0.81316   0.00000   0.00000  Uiso   1.00
C840   C     0.36728   0.87345   0.00000   0.00000  Uiso   1.00
C841   C     0.46910   0.95748   0.00000   0.00000  Uiso   1.00
C842   C     0.43623   0.91465   0.00000   0.00000  Uiso   1.00
H843   H     0.51611   0.20396   0.01482   0.00000  Uiso   1.00
N844   N     0.29590   0.31316   0.00000   0.00000  Uiso   1.00
C845   C     0.86728   0.37345   0.00000   0.00000  Uiso   1.00
C846   C     0.96910   0.45748   0.00000   0.00000  Uiso   1.00
C847   C     0.93623   0.41465   0.00000   0.00000  Uiso   1.00
H848   H     0.01628   0.70822   0.01486   0.00000  Uiso   1.00
N849   N     0.20410   0.18684   0.00000   0.00000  Uiso   1.00
C850   C     0.63272   0.12655   0.00000   0.00000  Uiso   1.00
C851   C     0.53090   0.04252   0.00000   0.00000  Uiso   1.00
C852   C     0.56377   0.08535   0.00000   0.00000  Uiso   1.00
H853   H     0.48333   0.79701   0.02224   0.00000  Uiso   1.00
N854   N     0.70410   0.68684   0.00000   0.00000  Uiso   1.00
C855   C     0.13272   0.62655   0.00000   0.00000  Uiso   1.00
C856   C     0.03090   0.54252   0.00000   0.00000  Uiso   1.00
C857   C     0.06377   0.58535   0.00000   0.00000  Uiso   1.00
H858   H     0.98361   0.29178   0.01486   0.00000  Uiso   1.00
N859   N     0.75000   0.75000   0.91308   0.00000  Uiso   1.00
N860   N     0.25000   0.25000   0.91308   0.00000  Uiso   1.00
N861   N     0.25000   0.75000   0.08692   0.00000  Uiso   1.00
N862   N     0.75000   0.25000   0.08692   0.00000  Uiso   1.00
C863   C     0.50000   0.67478   0.50000   0.00000  Uiso   1.00
C864   C     0.50000   0.58489   0.50000   0.00000  Uiso   1.00
C865   C     0.00000   0.17478   0.50000   0.00000  Uiso   1.00
C866   C     0.00000   0.08489   0.50000   0.00000  Uiso   1.00
C867   C     0.50000   0.17478   0.00000   0.00000  Uiso   1.00
C868   C     0.50000   0.08489   0.00000   0.00000  Uiso   1.00
C869   C     0.00000   0.67478   0.00000   0.00000  Uiso   1.00
C870   C     0.00000   0.58489   0.00000   0.00000  Uiso   1.00
H871   H     0.49891   0.28641   0.52704   0.00000  Uiso   1.00
H872   H     0.00091   0.78363   0.46747   0.00000  Uiso   1.00
H873   H     0.50057   0.20609   0.97433   0.00000  Uiso   1.00
H874   H     0.00011   0.70525   0.97027   0.00000  Uiso   1.00
H875   H     0.66037   0.64164   0.49833   0.00000  Uiso   1.00
H876   H     0.83963   0.85836   0.49833   0.00000  Uiso   1.00
loop_
_geom_bond_atom_site_label_1
_geom_bond_atom_site_label_2
_geom_bond_distance
_geom_bond_site_symmetry_2
_ccdc_geom_bond_type
C1     N411    1.447   .     S
C1     C2      1.452   .     S
C1     C15     1.524   .     D
C2     H31     1.219   .     S
C2     C716    1.509   1_554 D
C3     H32     1.173   .     S
C3     C17     1.532   .     D
C3     C4      1.500   .     S
C4     C16     1.439   .     D
C4     H33     1.239   .     S
C5     C27     1.521   .     S
C5     H34     1.166   .     S
C5     C6      1.509   .     D
C6     C26     1.439   .     S
C6     H35     1.238   .     S
C7     C76     1.452   .     D
C7     H36     1.220   .     S
C7     C721    1.509   .     S
C8     C146    1.405   .     D
C8     H37     1.234   .     S
C8     C75     1.483   .     S
C9     N423    1.451   .     S
C9     C10     1.483   .     D
C9     C453    1.483   .     S
C10    C148    1.405   .     S
C10    H38     1.221   .     S
C11    C12     1.509   .     S
C11    H39     1.238   .     S
C11    C455    1.439   .     D
C12    H40     1.166   .     S
C12    C454    1.521   .     D
C13    C14     1.500   .     S
C13    H41     1.239   .     S
C13    C511    1.439   .     D
C14    H42     1.173   .     S
C14    C510    1.532   .     D
C15    C17     1.614   .     S
C15    C447    1.483   .     S
C16    N19     1.545   .     S
C16    C450    1.521   .     S
C17    C449    1.439   .     S
C18    H43     1.157   .     S
C18    C21     1.584   .     S
C18    N19     1.403   .     D
C20    H44     1.228   .     S
C20    C21     1.430   .     D
C20    C389    1.508   .     S
C21    C388    1.514   .     S
C22    C402    1.514   .     D
C22    C23     1.430   .     S
C22    C25     1.584   .     S
C23    C404    1.508   .     D
C23    H45     1.228   .     S
N24    C25     1.403   .     D
N24    C27     1.545   .     S
C25    H46     1.157   .     S
C26    C28     1.614   .     S
C26    C498    1.532   .     D
C27    C497    1.439   .     D
C28    C29     1.483   .     S
C28    C30     1.524   .     D
C29    N393    1.451   .     D
C29    C54     1.483   .     S
C30    C53     1.452   .     S
C30    N369    1.447   .     S
C47    N416    1.447   .     D
C47    C48     1.452   .     S
C47    C61     1.524   .     S
C48    H77     1.219   .     S
C48    C762    1.509   1_554 D
C49    H78     1.173   .     S
C49    C63     1.532   .     D
C49    C50     1.500   .     S
C50    C62     1.439   .     D
C50    H79     1.239   .     S
C51    C73     1.521   .     D
C51    H80     1.166   .     S
C51    C52     1.509   .     S
C52    C72     1.439   .     D
C52    H81     1.238   .     S
C53    H82     1.220   .     S
C53    C767    1.509   .     D
C54    C100    1.405   .     D
C54    H83     1.234   .     S
C55    N424    1.451   .     S
C55    C56     1.483   .     S
C55    C499    1.483   .     D
C56    C102    1.405   .     D
C56    H84     1.221   .     S
C57    C58     1.509   .     S
C57    H85     1.238   .     S
C57    C501    1.439   .     D
C58    H86     1.166   .     S
C58    C500    1.521   .     D
C59    C60     1.500   .     D
C59    H87     1.239   .     S
C59    C465    1.439   .     S
C60    H88     1.173   .     S
C60    C464    1.532   .     S
C61    C63     1.614   .     S
C61    C493    1.483   .     D
C62    N65     1.545   .     S
C62    C496    1.521   .     S
C63    C495    1.439   .     S
C64    H89     1.157   .     S
C64    C67     1.584   .     S
C64    N65     1.403   .     D
C66    C67     1.430   .     D
C66    H90     1.228   .     S
C66    C383    1.508   .     S
C67    C382    1.514   .     S
C68    C407    1.514   .     S
C68    C69     1.430   .     D
C68    C71     1.584   .     S
C69    C409    1.508   .     S
C69    H91     1.228   .     S
N70    C71     1.403   .     D
N70    C73     1.545   .     S
C71    H92     1.157   .     S
C72    C74     1.614   .     S
C72    C452    1.532   .     S
C73    C451    1.439   .     S
C74    C75     1.483   .     D
C74    C76     1.524   .     S
C75    N395    1.451   .     S
C76    N375    1.447   .     S
C93    C94     1.452   .     S
C93    N401    1.447   .     D
C93    C107    1.524   .     S
C94    H123    1.219   .     S
C94    C624    1.509   1_554 D
C95    C109    1.532   .     D
C95    H124    1.173   .     S
C95    C96     1.500   .     S
C96    C108    1.439   .     D
C96    H125    1.239   .     S
C97    H126    1.166   .     S
C97    C119    1.521   .     S
C97    C98     1.509   .     D
C98    C118    1.439   .     S
C98    H127    1.238   .     S
C99    C168    1.452   .     D
C99    H128    1.220   .     S
C99    C629    1.509   .     S
C100   H129    1.234   .     S
C100   C167    1.483   .     S
C101   N424    1.451   .     S
C101   C102    1.483   .     S
C101   C545    1.483   .     D
C102   H130    1.221   .     S
C103   C104    1.509   .     S
C103   H131    1.238   .     S
C103   C547    1.439   .     D
C104   H132    1.166   .     S
C104   C546    1.521   .     D
C105   C106    1.500   .     S
C105   H133    1.239   .     S
C105   C603    1.439   .     D
C106   H134    1.173   .     S
C106   C602    1.532   .     D
C107   C109    1.614   .     S
C107   C539    1.483   .     D
C108   N111    1.545   .     S
C108   C542    1.521   .     S
C109   C541    1.439   .     S
C110   C113    1.584   .     S
C110   H135    1.157   .     S
C110   N111    1.403   .     D
C112   C113    1.430   .     D
C112   H136    1.228   .     S
C112   C377    1.508   .     S
C113   C376    1.514   .     S
C114   C115    1.430   .     S
C114   C412    1.514   .     D
C114   C117    1.584   .     S
C115   C414    1.508   .     D
C115   H137    1.228   .     S
N116   C117    1.403   .     D
N116   C119    1.545   .     S
C117   H138    1.157   .     S
C118   C120    1.614   .     S
C118   C590    1.532   .     D
C119   C589    1.439   .     D
C120   C121    1.483   .     S
C120   C122    1.524   .     D
C121   N395    1.451   .     D
C121   C146    1.483   .     S
C122   N381    1.447   .     S
C122   C145    1.452   .     S
C139   C140    1.452   .     S
C139   N406    1.447   .     S
C139   C153    1.524   .     D
C140   H169    1.219   .     S
C140   C670    1.509   1_554 D
C141   C155    1.532   .     D
C141   H170    1.173   .     S
C141   C142    1.500   .     S
C142   C154    1.439   .     D
C142   H171    1.239   .     S
C143   H172    1.166   .     S
C143   C165    1.521   .     D
C143   C144    1.509   .     S
C144   C164    1.439   .     D
C144   H173    1.238   .     S
C145   H174    1.220   .     S
C145   C675    1.509   .     D
C146   H175    1.234   .     S
C147   N423    1.451   .     S
C147   C148    1.483   .     D
C147   C591    1.483   .     S
C148   H176    1.221   .     S
C149   C150    1.509   .     D
C149   H177    1.238   .     S
C149   C593    1.439   .     S
C150   H178    1.166   .     S
C150   C592    1.521   .     S
C151   C152    1.500   .     D
C151   H179    1.239   .     S
C151   C557    1.439   .     S
C152   H180    1.173   .     S
C152   C556    1.532   .     S
C153   C155    1.614   .     S
C153   C585    1.483   .     S
C154   N157    1.545   .     S
C154   C588    1.521   .     S
C155   C587    1.439   .     S
C156   C159    1.584   .     S
C156   H181    1.157   .     S
C156   N157    1.403   .     D
C158   H182    1.228   .     S
C158   C159    1.430   .     D
C158   C371    1.508   .     S
C159   C370    1.514   .     S
C160   C161    1.430   .     S
C160   C417    1.514   .     D
C160   C163    1.584   .     S
C161   C419    1.508   .     D
C161   H183    1.228   .     S
N162   C163    1.403   .     D
N162   C165    1.545   .     S
C163   H184    1.157   .     S
C164   C166    1.614   .     S
C164   C544    1.532   .     S
C165   C543    1.439   .     S
C166   C167    1.483   .     D
C166   C168    1.524   .     S
C167   N393    1.451   .     S
C168   N387    1.447   .     S
C185   C186    1.452   .     S
C185   C199    1.524   .     D
C185   N839    1.447   1_556 S
C186   H215    1.219   .     S
C186   C532    1.509   1_556 D
C187   H216    1.173   .     S
C187   C188    1.500   .     S
C187   C201    1.532   .     D
C188   H217    1.239   .     S
C188   C200    1.439   .     D
C189   H218    1.166   .     S
C189   C190    1.509   .     D
C189   C211    1.521   .     S
C190   C210    1.439   .     S
C190   H219    1.238   .     S
C191   H220    1.220   .     S
C191   C260    1.452   .     D
C191   C537    1.509   .     S
C192   H221    1.234   .     S
C192   C330    1.405   .     D
C192   C259    1.483   .     S
C193   C194    1.483   .     D
C193   N421    1.451   .     S
C193   C637    1.483   .     S
C194   H222    1.221   .     S
C194   C332    1.405   .     S
C195   H223    1.238   .     S
C195   C196    1.509   .     S
C195   C639    1.439   .     D
C196   H224    1.166   .     S
C196   C638    1.521   .     D
C197   H225    1.239   .     S
C197   C198    1.500   .     S
C197   C695    1.439   .     D
C198   H226    1.173   .     S
C198   C694    1.532   .     D
C199   C201    1.614   .     S
C199   C631    1.483   .     S
C200   N203    1.545   .     S
C200   C634    1.521   .     S
C201   C633    1.439   .     S
C202   N203    1.403   .     D
C202   H227    1.157   .     S
C202   C205    1.584   .     S
C204   C205    1.430   .     D
C204   H228    1.228   .     S
C204   C815    1.508   .     S
C205   C814    1.514   .     S
C206   C207    1.430   .     S
C206   C209    1.584   .     S
C206   C850    1.514   1_556 D
C207   H229    1.228   .     S
C207   C852    1.508   1_556 S
N208   C209    1.403   .     D
N208   C211    1.545   .     S
C209   H230    1.157   .     S
C210   C212    1.614   .     S
C210   C682    1.532   .     D
C211   C681    1.439   .     D
C212   C213    1.483   .     S
C212   C214    1.524   .     D
C213   N397    1.451   .     D
C213   C238    1.483   .     S
C214   C237    1.452   .     S
C214   N819    1.447   .     S
C231   C232    1.452   .     S
C231   C245    1.524   .     S
C231   N844    1.447   1_556 D
C232   H261    1.219   .     S
C232   C578    1.509   1_556 D
C233   H262    1.173   .     S
C233   C234    1.500   .     S
C233   C247    1.532   .     D
C234   H263    1.239   .     S
C234   C246    1.439   .     D
C235   H264    1.166   .     S
C235   C236    1.509   .     S
C235   C257    1.521   .     D
C236   H265    1.238   .     S
C236   C256    1.439   .     D
C237   H266    1.220   .     S
C237   C583    1.509   .     D
C238   H267    1.234   .     S
C238   C284    1.405   .     D
C239   C240    1.483   .     S
C239   N422    1.451   .     S
C239   C683    1.483   .     D
C240   H268    1.221   .     S
C240   C286    1.405   .     D
C241   H269    1.238   .     S
C241   C242    1.509   .     S
C241   C685    1.439   .     D
C242   H270    1.166   .     S
C242   C684    1.521   .     D
C243   H271    1.239   .     S
C243   C244    1.500   .     D
C243   C649    1.439   .     S
C244   H272    1.173   .     S
C244   C648    1.532   .     S
C245   C247    1.614   .     S
C245   C677    1.483   .     D
C246   N249    1.545   .     S
C246   C680    1.521   .     S
C247   C679    1.439   .     S
C248   N249    1.403   .     D
C248   H273    1.157   .     S
C248   C251    1.584   .     S
C250   C251    1.430   .     D
C250   H274    1.228   .     S
C250   C809    1.508   .     S
C251   C808    1.514   .     S
C252   C253    1.430   .     D
C252   C255    1.584   .     S
C252   C855    1.514   1_556 S
C253   H275    1.228   .     S
C253   C857    1.508   1_556 S
N254   C255    1.403   .     D
N254   C257    1.545   .     S
C255   H276    1.157   .     S
C256   C258    1.614   .     S
C256   C636    1.532   .     S
C257   C635    1.439   .     S
C258   C259    1.483   .     D
C258   C260    1.524   .     S
C259   N399    1.451   .     S
C260   N825    1.447   .     S
C277   C278    1.452   .     S
C277   C291    1.524   .     S
C277   N849    1.447   1_556 D
C278   H307    1.219   .     S
C278   C440    1.509   1_556 D
C279   H308    1.173   .     S
C279   C280    1.500   .     D
C279   C293    1.532   .     S
C280   C292    1.439   .     S
C280   H309    1.239   .     S
C281   H310    1.166   .     S
C281   C282    1.509   .     D
C281   C303    1.521   .     S
C282   H311    1.238   .     S
C282   C302    1.439   .     S
C283   H312    1.220   .     S
C283   C352    1.452   .     D
C283   C445    1.509   .     S
C284   H313    1.234   .     S
C284   C351    1.483   .     S
C285   C286    1.483   .     S
C285   N422    1.451   .     S
C285   C729    1.483   .     D
C286   H314    1.221   .     S
C287   H315    1.238   .     S
C287   C288    1.509   .     S
C287   C731    1.439   .     D
C288   H316    1.166   .     S
C288   C730    1.521   .     D
C289   H317    1.239   .     S
C289   C290    1.500   .     S
C289   C787    1.439   .     D
C290   H318    1.173   .     S
C290   C786    1.532   .     D
C291   C293    1.614   .     S
C291   C723    1.483   .     D
C292   N295    1.545   .     S
C292   C726    1.521   .     D
C293   C725    1.439   .     D
C294   H319    1.157   .     S
C294   N295    1.403   .     D
C294   C297    1.584   .     S
C296   C297    1.430   .     D
C296   H320    1.228   .     S
C296   C827    1.508   .     S
C297   C826    1.514   .     S
C298   C299    1.430   .     S
C298   C301    1.584   .     S
C298   C840    1.514   1_556 D
C299   H321    1.228   .     S
C299   C842    1.508   1_556 S
N300   C301    1.403   .     D
N300   C303    1.545   .     S
C301   H322    1.157   .     S
C302   C304    1.614   .     S
C302   C774    1.532   .     D
C303   C773    1.439   .     D
C304   C305    1.483   .     S
C304   C306    1.524   .     D
C305   N399    1.451   .     D
C305   C330    1.483   .     S
C306   C329    1.452   .     S
C306   N807    1.447   .     S
C323   C324    1.452   .     S
C323   C337    1.524   .     D
C323   N854    1.447   1_556 S
C324   H353    1.219   .     S
C324   C486    1.509   1_556 D
C325   H354    1.173   .     S
C325   C326    1.500   .     S
C325   C339    1.532   .     D
C326   C338    1.439   .     D
C326   H355    1.239   .     S
C327   H356    1.166   .     S
C327   C328    1.509   .     S
C327   C349    1.521   .     D
C328   H357    1.238   .     S
C328   C348    1.439   .     D
C329   H358    1.220   .     S
C329   C491    1.509   .     D
C330   H359    1.234   .     S
C331   C332    1.483   .     D
C331   N421    1.451   .     S
C331   C775    1.483   .     S
C332   H360    1.221   .     S
C333   H361    1.238   .     S
C333   C334    1.509   .     S
C333   C777    1.439   .     D
C334   H362    1.166   .     S
C334   C776    1.521   .     D
C335   H363    1.239   .     S
C335   C336    1.500   .     D
C335   C741    1.439   .     S
C336   H364    1.173   .     S
C336   C740    1.532   .     S
C337   C339    1.614   .     S
C337   C769    1.483   .     S
C338   N341    1.545   .     S
C338   C772    1.521   .     S
C339   C771    1.439   .     S
C340   H365    1.157   .     S
C340   N341    1.403   .     D
C340   C343    1.584   .     S
C342   C343    1.430   .     D
C342   H366    1.228   .     S
C342   C821    1.508   .     S
C343   C820    1.514   .     S
C344   C345    1.430   .     S
C344   C347    1.584   .     S
C344   C845    1.514   1_556 D
C345   H367    1.228   .     S
C345   C847    1.508   1_556 D
N346   C347    1.403   .     D
N346   C349    1.545   .     S
C347   H368    1.157   .     S
C348   C350    1.614   .     S
C348   C728    1.532   .     S
C349   C727    1.439   .     S
C350   C351    1.483   .     D
C350   C352    1.524   .     S
C351   N397    1.451   .     S
C352   N813    1.447   .     S
N369   H373    0.945   .     S
N369   C744    1.447   .     S
C370   C689    1.514   .     D
C371   C372    1.537   .     S
C371   C688    1.508   .     D
C372   C864    1.466   .     D
C372   C810    1.591   .     S
H374   C863    1.011   .     S
N375   H379    0.945   .     S
N375   C790    1.447   .     S
C376   H438    1.140   .     S
C376   C643    1.514   .     D
C377   C378    1.537   .     S
C377   C642    1.508   .     D
C378   C866    1.466   1_655 S
C378   C816    1.591   1_545 D
H380   C865    1.153   1_655 S
N381   H385    0.945   .     S
N381   C652    1.447   .     S
C382   H437    1.140   .     S
C382   C781    1.514   .     D
C383   C384    1.537   .     S
C383   C780    1.508   .     D
C384   C426    1.466   .     S
C384   C822    1.591   .     D
H386   C425    1.034   .     S
N387   H391    0.945   .     S
N387   C698    1.447   .     S
C388   C735    1.514   .     D
C389   C390    1.537   .     S
C389   C734    1.508   .     D
C390   C428    1.466   .     D
C390   C828    1.591   1_565 S
H392   C427    1.168   .     S
H394   N423    0.769   .     S
H396   N424    0.769   .     S
H398   N421    0.769   .     S
H400   N422    0.769   .     S
N401   C623    1.447   1_554 S
C402   C736    1.514   1_554 D
C403   C404    1.537   .     S
C403   C868    1.466   .     D
C403   C841    1.591   1_545 S
C404   C737    1.508   1_554 S
H405   C429    0.914   .     S
N406   C669    1.447   1_554 D
C407   C782    1.514   1_554 D
C408   C409    1.537   .     S
C408   C846    1.591   .     S
C408   C870    1.466   1_655 D
C409   C783    1.508   1_554 D
H410   C431    0.968   .     S
N411   C715    1.447   1_554 D
C412   C644    1.514   1_554 D
C413   C430    1.466   .     S
C413   C414    1.537   .     S
C413   C851    1.591   1_565 D
C414   C645    1.508   1_554 S
H415   C867    0.999   .     S
N416   C761    1.447   1_554 S
C417   C690    1.514   1_554 S
C418   C432    1.466   .     S
C418   C419    1.537   .     S
C418   C856    1.591   .     D
C419   C691    1.508   1_554 S
H420   C869    0.971   1_655 S
C425   C426    1.681   .     S
C425   H812    1.011   .     S
C425   H871    0.969   .     S
C426   C810    1.466   .     D
C427   C428    1.681   .     S
C427   H872    1.095   .     S
C427   H818    1.153   1_455 S
C428   C816    1.466   1_455 S
C429   C430    1.681   .     S
C429   H853    0.999   .     S
C429   H435    0.844   1_554 S
C430   C841    1.466   .     D
C431   C432    1.681   .     S
C431   H436    0.906   1_554 S
C431   H858    0.971   1_455 S
C432   C846    1.466   1_455 D
H433   C863    0.969   .     S
H434   C865    1.095   .     S
H435   C429    0.844   1_556 S
H436   C431    0.906   1_556 S
C439   N849    1.447   .     S
C439   C440    1.452   .     S
C439   C453    1.524   .     D
C440   H469    1.219   .     S
C440   C278    1.509   1_554 D
C441   H470    1.173   .     S
C441   C455    1.532   .     S
C441   C442    1.500   .     D
C442   C454    1.439   .     S
C442   H471    1.239   .     S
C443   C465    1.521   .     D
C443   H472    1.166   .     S
C443   C444    1.509   .     S
C444   C464    1.439   .     D
C444   H473    1.238   .     S
C445   C514    1.452   .     D
C445   H474    1.220   .     S
C446   C584    1.405   .     D
C446   H475    1.234   .     S
C446   C513    1.483   .     S
C447   N861    1.451   .     S
C447   C448    1.483   .     D
C448   C586    1.405   .     S
C448   H476    1.221   .     S
C449   C450    1.509   .     D
C449   H477    1.238   .     S
C450   H478    1.166   .     S
C451   C452    1.500   .     D
C451   H479    1.239   .     S
C452   H480    1.173   .     S
C453   C455    1.614   .     S
C454   N457    1.545   .     S
C456   H481    1.157   .     S
C456   C459    1.584   .     S
C456   N457    1.403   .     D
C458   H482    1.228   .     S
C458   C459    1.430   .     S
C458   C827    1.508   .     D
C459   C826    1.514   .     D
C460   C840    1.514   .     D
C460   C461    1.430   .     S
C460   C463    1.584   .     S
C461   C842    1.508   .     D
C461   H483    1.228   .     S
N462   C463    1.403   .     D
N462   C465    1.545   .     S
C463   H484    1.157   .     S
C464   C466    1.614   .     S
C466   C467    1.483   .     S
C466   C468    1.524   .     D
C467   N831    1.451   .     D
C467   C492    1.483   .     S
C468   C491    1.452   .     S
C468   N807    1.447   .     S
C485   N854    1.447   .     D
C485   C486    1.452   .     S
C485   C499    1.524   .     S
C486   H515    1.219   .     S
C486   C324    1.509   1_554 D
C487   H516    1.173   .     S
C487   C501    1.532   .     S
C487   C488    1.500   .     D
C488   C500    1.439   .     S
C488   H517    1.239   .     S
C489   C511    1.521   .     S
C489   H518    1.166   .     S
C489   C490    1.509   .     D
C490   C510    1.439   .     S
C490   H519    1.238   .     S
C491   H520    1.220   .     S
C492   C538    1.405   .     D
C492   H521    1.234   .     S
C493   N862    1.451   .     S
C493   C494    1.483   .     S
C494   C540    1.405   .     D
C494   H522    1.221   .     S
C495   C496    1.509   .     D
C495   H523    1.238   .     S
C496   H524    1.166   .     S
C497   C498    1.500   .     S
C497   H525    1.239   .     S
C498   H526    1.173   .     S
C499   C501    1.614   .     S
C500   N503    1.545   .     S
C502   H527    1.157   .     S
C502   C505    1.584   .     S
C502   N503    1.403   .     D
C504   C505    1.430   .     S
C504   H528    1.228   .     S
C504   C821    1.508   .     D
C505   C820    1.514   .     D
C506   C845    1.514   .     S
C506   C507    1.430   .     D
C506   C509    1.584   .     S
C507   C847    1.508   .     S
C507   H529    1.228   .     S
N508   C509    1.403   .     D
N508   C511    1.545   .     S
C509   H530    1.157   .     S
C510   C512    1.614   .     S
C512   C513    1.483   .     D
C512   C514    1.524   .     S
C513   N833    1.451   .     S
C514   N813    1.447   .     S
C531   C532    1.452   .     S
C531   N839    1.447   .     D
C531   C545    1.524   .     S
C532   H561    1.219   .     S
C532   C186    1.509   1_554 D
C533   C547    1.532   .     S
C533   H562    1.173   .     S
C533   C534    1.500   .     D
C534   C546    1.439   .     S
C534   H563    1.239   .     S
C535   H564    1.166   .     S
C535   C557    1.521   .     D
C535   C536    1.509   .     S
C536   C556    1.439   .     D
C536   H565    1.238   .     S
C537   C606    1.452   .     D
C537   H566    1.220   .     S
C538   H567    1.234   .     S
C538   C605    1.483   .     S
C539   N862    1.451   .     S
C539   C540    1.483   .     S
C540   H568    1.221   .     S
C541   C542    1.509   .     D
C541   H569    1.238   .     S
C542   H570    1.166   .     S
C543   C544    1.500   .     D
C543   H571    1.239   .     S
C544   H572    1.173   .     S
C545   C547    1.614   .     S
C546   N549    1.545   .     S
C548   C551    1.584   .     S
C548   H573    1.157   .     S
C548   N549    1.403   .     D
C550   C551    1.430   .     S
C550   H574    1.228   .     S
C550   C815    1.508   .     D
C551   C814    1.514   .     D
C552   C553    1.430   .     S
C552   C850    1.514   .     D
C552   C555    1.584   .     S
C553   C852    1.508   .     D
C553   H575    1.228   .     S
N554   C555    1.403   .     D
N554   C557    1.545   .     S
C555   H576    1.157   .     S
C556   C558    1.614   .     S
C558   C559    1.483   .     S
C558   C560    1.524   .     D
C559   N833    1.451   .     D
C559   C584    1.483   .     S
C560   N819    1.447   .     S
C560   C583    1.452   .     S
C577   C578    1.452   .     S
C577   N844    1.447   .     S
C577   C591    1.524   .     D
C578   H607    1.219   .     S
C578   C232    1.509   1_554 D
C579   C593    1.532   .     D
C579   H608    1.173   .     S
C579   C580    1.500   .     S
C580   C592    1.439   .     D
C580   H609    1.239   .     S
C581   H610    1.166   .     S
C581   C603    1.521   .     S
C581   C582    1.509   .     D
C582   C602    1.439   .     S
C582   H611    1.238   .     S
C583   H612    1.220   .     S
C584   H613    1.234   .     S
C585   N861    1.451   .     S
C585   C586    1.483   .     D
C586   H614    1.221   .     S
C587   C588    1.509   .     D
C587   H615    1.238   .     S
C588   H616    1.166   .     S
C589   C590    1.500   .     S
C589   H617    1.239   .     S
C590   H618    1.173   .     S
C591   C593    1.614   .     S
C592   N595    1.545   .     S
C594   C597    1.584   .     S
C594   H619    1.157   .     S
C594   N595    1.403   .     D
C596   H620    1.228   .     S
C596   C597    1.430   .     S
C596   C809    1.508   .     D
C597   C808    1.514   .     D
C598   C599    1.430   .     S
C598   C855    1.514   .     D
C598   C601    1.584   .     S
C599   C857    1.508   .     D
C599   H621    1.228   .     S
N600   C601    1.403   .     D
N600   C603    1.545   .     S
C601   H622    1.157   .     S
C602   C604    1.614   .     S
C604   C605    1.483   .     D
C604   C606    1.524   .     S
C605   N831    1.451   .     S
C606   N825    1.447   .     S
C623   C624    1.452   .     S
C623   C637    1.524   .     D
C623   N401    1.447   1_556 S
C624   H653    1.219   .     S
C624   C94     1.509   1_556 D
C625   H654    1.173   .     S
C625   C626    1.500   .     D
C625   C639    1.532   .     S
C626   H655    1.239   .     S
C626   C638    1.439   .     S
C627   H656    1.166   .     S
C627   C628    1.509   .     S
C627   C649    1.521   .     D
C628   C648    1.439   .     D
C628   H657    1.238   .     S
C629   H658    1.220   .     S
C629   C698    1.452   .     D
C630   H659    1.234   .     S
C630   C768    1.405   .     D
C630   C697    1.483   .     S
C631   C632    1.483   .     D
C631   N859    1.451   .     S
C632   H660    1.221   .     S
C632   C770    1.405   .     S
C633   H661    1.238   .     S
C633   C634    1.509   .     D
C634   H662    1.166   .     S
C635   H663    1.239   .     S
C635   C636    1.500   .     D
C636   H664    1.173   .     S
C637   C639    1.614   .     S
C638   N641    1.545   .     S
C640   N641    1.403   .     D
C640   H665    1.157   .     S
C640   C643    1.584   .     S
C642   C643    1.430   .     S
C642   H666    1.228   .     S
C644   C645    1.430   .     S
C644   C647    1.584   .     S
C644   C412    1.514   1_556 D
C645   H667    1.228   .     S
C645   C414    1.508   1_556 S
N646   C647    1.403   .     D
N646   C649    1.545   .     S
C647   H668    1.157   .     S
C648   C650    1.614   .     S
C650   C651    1.483   .     S
C650   C652    1.524   .     D
C651   N835    1.451   .     D
C651   C676    1.483   .     S
C652   C675    1.452   .     S
C669   C670    1.452   .     S
C669   C683    1.524   .     S
C669   N406    1.447   1_556 D
C670   H699    1.219   .     S
C670   C140    1.509   1_556 D
C671   H700    1.173   .     S
C671   C672    1.500   .     D
C671   C685    1.532   .     S
C672   H701    1.239   .     S
C672   C684    1.439   .     S
C673   H702    1.166   .     S
C673   C674    1.509   .     D
C673   C695    1.521   .     S
C674   H703    1.238   .     S
C674   C694    1.439   .     S
C675   H704    1.220   .     S
C676   H705    1.234   .     S
C676   C722    1.405   .     D
C677   C678    1.483   .     S
C677   N860    1.451   .     S
C678   H706    1.221   .     S
C678   C724    1.405   .     D
C679   H707    1.238   .     S
C679   C680    1.509   .     D
C680   H708    1.166   .     S
C681   H709    1.239   .     S
C681   C682    1.500   .     S
C682   H710    1.173   .     S
C683   C685    1.614   .     S
C684   N687    1.545   .     S
C686   N687    1.403   .     D
C686   H711    1.157   .     S
C686   C689    1.584   .     S
C688   C689    1.430   .     S
C688   H712    1.228   .     S
C690   C691    1.430   .     D
C690   C693    1.584   .     S
C690   C417    1.514   1_556 S
C691   H713    1.228   .     S
C691   C419    1.508   1_556 S
N692   C693    1.403   .     D
N692   C695    1.545   .     S
C693   H714    1.157   .     S
C694   C696    1.614   .     S
C696   C697    1.483   .     D
C696   C698    1.524   .     S
C697   N837    1.451   .     S
C715   C716    1.452   .     S
C715   C729    1.524   .     S
C715   N411    1.447   1_556 D
C716   H745    1.219   .     S
C716   C2      1.509   1_556 D
C717   H746    1.173   .     S
C717   C718    1.500   .     D
C717   C731    1.532   .     S
C718   C730    1.439   .     S
C718   H747    1.239   .     S
C719   H748    1.166   .     S
C719   C720    1.509   .     S
C719   C741    1.521   .     D
C720   H749    1.238   .     S
C720   C740    1.439   .     D
C721   H750    1.220   .     S
C721   C790    1.452   .     D
C722   H751    1.234   .     S
C722   C789    1.483   .     S
C723   C724    1.483   .     S
C723   N860    1.451   .     S
C724   H752    1.221   .     S
C725   H753    1.238   .     S
C725   C726    1.509   .     S
C726   H754    1.166   .     S
C727   H755    1.239   .     S
C727   C728    1.500   .     D
C728   H756    1.173   .     S
C729   C731    1.614   .     S
C730   N733    1.545   .     S
C732   H757    1.157   .     S
C732   N733    1.403   .     D
C732   C735    1.584   .     S
C734   C735    1.430   .     S
C734   H758    1.228   .     S
C736   C737    1.430   .     S
C736   C739    1.584   .     S
C736   C402    1.514   1_556 D
C737   H759    1.228   .     S
C737   C404    1.508   1_556 S
N738   C739    1.403   .     D
N738   C741    1.545   .     S
C739   H760    1.157   .     S
C740   C742    1.614   .     S
C742   C743    1.483   .     S
C742   C744    1.524   .     D
C743   N837    1.451   .     D
C743   C768    1.483   .     S
C744   C767    1.452   .     S
C761   C762    1.452   .     S
C761   C775    1.524   .     D
C761   N416    1.447   1_556 S
C762   H791    1.219   .     S
C762   C48     1.509   1_556 D
C763   H792    1.173   .     S
C763   C764    1.500   .     D
C763   C777    1.532   .     S
C764   C776    1.439   .     S
C764   H793    1.239   .     S
C765   H794    1.166   .     S
C765   C766    1.509   .     D
C765   C787    1.521   .     S
C766   H795    1.238   .     S
C766   C786    1.439   .     S
C767   H796    1.220   .     S
C768   H797    1.234   .     S
C769   C770    1.483   .     D
C769   N859    1.451   .     S
C770   H798    1.221   .     S
C771   H799    1.238   .     S
C771   C772    1.509   .     D
C772   H800    1.166   .     S
C773   H801    1.239   .     S
C773   C774    1.500   .     S
C774   H802    1.173   .     S
C775   C777    1.614   .     S
C776   N779    1.545   .     S
C778   H803    1.157   .     S
C778   N779    1.403   .     D
C778   C781    1.584   .     S
C780   C781    1.430   .     S
C780   H804    1.228   .     S
C782   C783    1.430   .     S
C782   C785    1.584   .     S
C782   C407    1.514   1_556 D
C783   H805    1.228   .     S
C783   C409    1.508   1_556 D
N784   C785    1.403   .     D
N784   C787    1.545   .     S
C785   H806    1.157   .     S
C786   C788    1.614   .     S
C788   C789    1.483   .     D
C788   C790    1.524   .     S
C789   N835    1.451   .     S
N807   H811    0.945   .     S
C809   C810    1.537   .     S
N813   H817    0.945   .     S
C814   H876    1.140   .     S
C815   C816    1.537   .     S
C816   C378    1.591   1_565 D
C816   C428    1.466   1_655 S
H818   C427    1.153   1_655 S
N819   H823    0.945   .     S
C820   H875    1.140   .     S
C821   C822    1.537   .     S
C822   C864    1.466   .     S
H824   C863    1.034   .     S
N825   H829    0.945   .     S
C827   C828    1.537   .     S
C828   C866    1.466   .     D
C828   C390    1.591   1_545 S
H830   C865    1.168   .     S
H832   N861    0.769   .     S
H834   N862    0.769   .     S
H836   N859    0.769   .     S
H838   N860    0.769   .     S
N839   C185    1.447   1_554 S
C840   C298    1.514   1_554 D
C841   C842    1.537   .     S
C841   C403    1.591   1_565 S
C842   C299    1.508   1_554 S
H843   C867    0.914   .     S
N844   C231    1.447   1_554 D
C845   C344    1.514   1_554 D
C846   C847    1.537   .     S
C846   C432    1.466   1_655 D
C847   C345    1.508   1_554 D
H848   C869    0.968   .     S
N849   C277    1.447   1_554 D
C850   C206    1.514   1_554 D
C851   C868    1.466   .     S
C851   C852    1.537   .     S
C851   C413    1.591   1_545 D
C852   C207    1.508   1_554 S
N854   C323    1.447   1_554 S
C855   C252    1.514   1_554 S
C856   C870    1.466   .     S
C856   C857    1.537   .     S
C857   C253    1.508   1_554 S
H858   C431    0.971   1_655 S
C863   C864    1.681   .     S
C865   C866    1.681   .     S
C865   H380    1.153   1_455 S
C866   C378    1.466   1_455 S
C867   C868    1.681   .     S
C867   H873    0.844   1_554 S
C869   C870    1.681   .     S
C869   H420    0.971   1_455 S
C869   H874    0.906   1_554 S
C870   C408    1.466   1_455 D
H873   C867    0.844   1_556 S
H874   C869    0.906   1_556 S
