data_861
_audit_creation_date              2023-09-08
_audit_creation_method            'Materials Studio'
_symmetry_space_group_name_H-M    'P1'
_symmetry_Int_Tables_number       1
_symmetry_cell_setting            triclinic
loop_
_symmetry_equiv_pos_as_xyz
  x,y,z
_cell_length_a                    18.3743
_cell_length_b                    50.3638
_cell_length_c                    12.5042
_cell_angle_alpha                 90.0000
_cell_angle_beta                  90.0000
_cell_angle_gamma                 90.0000
loop_
_atom_site_label
_atom_site_type_symbol
_atom_site_fract_x
_atom_site_fract_y
_atom_site_fract_z
_atom_site_U_iso_or_equiv
_atom_site_adp_type
_atom_site_occupancy
C1     C     0.55004   0.26350   0.26580   0.00000  Uiso   1.00
C2     C     0.73967   0.33240   0.29249   0.00000  Uiso   1.00
C3     C     0.53782   0.82149   0.85637   0.00000  Uiso   1.00
C4     C     0.48140   0.84006   0.85190   0.00000  Uiso   1.00
C5     C     0.58171   0.33664   0.84708   0.00000  Uiso   1.00
C6     C     0.52639   0.35567   0.85026   0.00000  Uiso   1.00
C7     C     0.64462   0.29825   0.27255   0.00000  Uiso   1.00
C8     C     0.47537   0.35735   0.26474   0.00000  Uiso   1.00
C9     C     0.58753   0.31928   0.27167   0.00000  Uiso   1.00
C10    C     0.41199   0.39727   0.20926   0.00000  Uiso   1.00
N1     N     0.41325   0.37454   0.25828   0.00000  Uiso   1.00
C11    C     0.34280   0.43740   0.15233   0.00000  Uiso   1.00
C12    C     0.34306   0.41180   0.19626   0.00000  Uiso   1.00
C13    C     0.93122   0.22856   0.76772   0.00000  Uiso   1.00
C14    C     0.83541   0.19371   0.77803   0.00000  Uiso   1.00
H1     H     0.50173   0.27576   0.26516   0.00000  Uiso   1.00
H2     H     0.70564   0.34973   0.30325   0.00000  Uiso   1.00
H3     H     0.54129   0.80809   0.92368   0.00000  Uiso   1.00
H4     H     0.44176   0.84081   0.91584   0.00000  Uiso   1.00
H5     H     0.61943   0.33516   0.91335   0.00000  Uiso   1.00
H6     H     0.52195   0.36832   0.91975   0.00000  Uiso   1.00
H7     H     0.46125   0.40549   0.17498   0.00000  Uiso   1.00
H8     H     0.39370   0.44700   0.13171   0.00000  Uiso   1.00
C15    C     0.55004   0.76350   0.76580   0.00000  Uiso   1.00
C16    C     0.73967   0.83240   0.79249   0.00000  Uiso   1.00
C17    C     0.53782   0.32149   0.35637   0.00000  Uiso   1.00
C18    C     0.48140   0.34006   0.35190   0.00000  Uiso   1.00
C19    C     0.58171   0.83664   0.34708   0.00000  Uiso   1.00
C20    C     0.52639   0.85567   0.35026   0.00000  Uiso   1.00
C21    C     0.64462   0.79825   0.77255   0.00000  Uiso   1.00
C22    C     0.47537   0.85735   0.76474   0.00000  Uiso   1.00
C23    C     0.58753   0.81928   0.77167   0.00000  Uiso   1.00
C24    C     0.41199   0.89727   0.70926   0.00000  Uiso   1.00
N2     N     0.41325   0.87454   0.75828   0.00000  Uiso   1.00
C25    C     0.34280   0.93740   0.65233   0.00000  Uiso   1.00
C26    C     0.34306   0.91180   0.69626   0.00000  Uiso   1.00
C27    C     0.93122   0.72856   0.26772   0.00000  Uiso   1.00
C28    C     0.83541   0.69371   0.27803   0.00000  Uiso   1.00
H9     H     0.50173   0.77576   0.76516   0.00000  Uiso   1.00
H10    H     0.70564   0.84973   0.80325   0.00000  Uiso   1.00
H11    H     0.54129   0.30809   0.42368   0.00000  Uiso   1.00
H12    H     0.44176   0.34081   0.41584   0.00000  Uiso   1.00
H13    H     0.61943   0.83516   0.41335   0.00000  Uiso   1.00
H14    H     0.52195   0.86832   0.41975   0.00000  Uiso   1.00
H15    H     0.46125   0.90549   0.67498   0.00000  Uiso   1.00
H16    H     0.39370   0.94700   0.63171   0.00000  Uiso   1.00
C29    C     0.55004   0.73650   0.76558   0.00000  Uiso   1.00
C30    C     0.73967   0.66760   0.73889   0.00000  Uiso   1.00
C31    C     0.53782   0.17851   0.17501   0.00000  Uiso   1.00
C32    C     0.48140   0.15994   0.17948   0.00000  Uiso   1.00
C33    C     0.58171   0.66336   0.18430   0.00000  Uiso   1.00
C34    C     0.52639   0.64433   0.18112   0.00000  Uiso   1.00
C35    C     0.64462   0.70175   0.75883   0.00000  Uiso   1.00
C36    C     0.47537   0.64265   0.76664   0.00000  Uiso   1.00
C37    C     0.58753   0.68072   0.75971   0.00000  Uiso   1.00
C38    C     0.41199   0.60273   0.82212   0.00000  Uiso   1.00
N3     N     0.41325   0.62546   0.77310   0.00000  Uiso   1.00
C39    C     0.34280   0.56260   0.87905   0.00000  Uiso   1.00
C40    C     0.34306   0.58820   0.83512   0.00000  Uiso   1.00
C41    C     0.93122   0.77144   0.26366   0.00000  Uiso   1.00
C42    C     0.83541   0.80629   0.25335   0.00000  Uiso   1.00
H17    H     0.50173   0.72424   0.76622   0.00000  Uiso   1.00
H18    H     0.70564   0.65027   0.72813   0.00000  Uiso   1.00
H19    H     0.54129   0.19191   0.10770   0.00000  Uiso   1.00
H20    H     0.44176   0.15919   0.11554   0.00000  Uiso   1.00
H21    H     0.61943   0.66484   0.11803   0.00000  Uiso   1.00
H22    H     0.52195   0.63168   0.11163   0.00000  Uiso   1.00
H23    H     0.46125   0.59451   0.85640   0.00000  Uiso   1.00
H24    H     0.39370   0.55300   0.89967   0.00000  Uiso   1.00
C43    C     0.55004   0.23650   0.26558   0.00000  Uiso   1.00
C44    C     0.73967   0.16760   0.23889   0.00000  Uiso   1.00
C45    C     0.53782   0.67851   0.67501   0.00000  Uiso   1.00
C46    C     0.48140   0.65994   0.67948   0.00000  Uiso   1.00
C47    C     0.58171   0.16336   0.68430   0.00000  Uiso   1.00
C48    C     0.52639   0.14433   0.68112   0.00000  Uiso   1.00
C49    C     0.64462   0.20175   0.25883   0.00000  Uiso   1.00
C50    C     0.47537   0.14265   0.26664   0.00000  Uiso   1.00
C51    C     0.58753   0.18072   0.25971   0.00000  Uiso   1.00
C52    C     0.41199   0.10273   0.32212   0.00000  Uiso   1.00
N4     N     0.41325   0.12546   0.27310   0.00000  Uiso   1.00
C53    C     0.34280   0.06260   0.37905   0.00000  Uiso   1.00
C54    C     0.34306   0.08820   0.33512   0.00000  Uiso   1.00
C55    C     0.93122   0.27144   0.76366   0.00000  Uiso   1.00
C56    C     0.83541   0.30629   0.75335   0.00000  Uiso   1.00
H25    H     0.50173   0.22424   0.26622   0.00000  Uiso   1.00
H26    H     0.70564   0.15027   0.22813   0.00000  Uiso   1.00
H27    H     0.54129   0.69191   0.60770   0.00000  Uiso   1.00
H28    H     0.44176   0.65919   0.61554   0.00000  Uiso   1.00
H29    H     0.61943   0.16484   0.61803   0.00000  Uiso   1.00
H30    H     0.52195   0.13168   0.61163   0.00000  Uiso   1.00
H31    H     0.46125   0.09451   0.35640   0.00000  Uiso   1.00
H32    H     0.39370   0.05300   0.39967   0.00000  Uiso   1.00
C57    C     0.00342   0.73650   0.26580   0.00000  Uiso   1.00
C58    C     0.81379   0.66760   0.29249   0.00000  Uiso   1.00
C59    C     0.01564   0.17851   0.85637   0.00000  Uiso   1.00
C60    C     0.07206   0.15994   0.85190   0.00000  Uiso   1.00
C61    C     0.97175   0.66336   0.84708   0.00000  Uiso   1.00
C62    C     0.02706   0.64433   0.85026   0.00000  Uiso   1.00
C63    C     0.90884   0.70175   0.27255   0.00000  Uiso   1.00
C64    C     0.07809   0.64265   0.26474   0.00000  Uiso   1.00
C65    C     0.96593   0.68072   0.27167   0.00000  Uiso   1.00
C66    C     0.14146   0.60273   0.20926   0.00000  Uiso   1.00
N5     N     0.14021   0.62546   0.25828   0.00000  Uiso   1.00
C67    C     0.21065   0.56260   0.15233   0.00000  Uiso   1.00
C68    C     0.21040   0.58820   0.19626   0.00000  Uiso   1.00
C69    C     0.62223   0.77144   0.76772   0.00000  Uiso   1.00
C70    C     0.71805   0.80629   0.77803   0.00000  Uiso   1.00
H33    H     0.05173   0.72424   0.26516   0.00000  Uiso   1.00
H34    H     0.84782   0.65027   0.30325   0.00000  Uiso   1.00
H35    H     0.01217   0.19191   0.92368   0.00000  Uiso   1.00
H36    H     0.11170   0.15919   0.91584   0.00000  Uiso   1.00
H37    H     0.93403   0.66484   0.91335   0.00000  Uiso   1.00
H38    H     0.03151   0.63168   0.91975   0.00000  Uiso   1.00
H39    H     0.09221   0.59451   0.17498   0.00000  Uiso   1.00
H40    H     0.15975   0.55300   0.13171   0.00000  Uiso   1.00
C71    C     0.00342   0.23650   0.76580   0.00000  Uiso   1.00
C72    C     0.81379   0.16760   0.79249   0.00000  Uiso   1.00
C73    C     0.01564   0.67851   0.35637   0.00000  Uiso   1.00
C74    C     0.07206   0.65994   0.35190   0.00000  Uiso   1.00
C75    C     0.97175   0.16336   0.34708   0.00000  Uiso   1.00
C76    C     0.02706   0.14433   0.35026   0.00000  Uiso   1.00
C77    C     0.90884   0.20175   0.77255   0.00000  Uiso   1.00
C78    C     0.07809   0.14265   0.76474   0.00000  Uiso   1.00
C79    C     0.96593   0.18072   0.77167   0.00000  Uiso   1.00
C80    C     0.14146   0.10273   0.70926   0.00000  Uiso   1.00
N6     N     0.14021   0.12546   0.75828   0.00000  Uiso   1.00
C81    C     0.21065   0.06260   0.65233   0.00000  Uiso   1.00
C82    C     0.21040   0.08820   0.69626   0.00000  Uiso   1.00
C83    C     0.62223   0.27144   0.26772   0.00000  Uiso   1.00
C84    C     0.71805   0.30629   0.27803   0.00000  Uiso   1.00
H41    H     0.05173   0.22424   0.76516   0.00000  Uiso   1.00
H42    H     0.84782   0.15027   0.80325   0.00000  Uiso   1.00
H43    H     0.01217   0.69191   0.42368   0.00000  Uiso   1.00
H44    H     0.11170   0.65919   0.41584   0.00000  Uiso   1.00
H45    H     0.93403   0.16484   0.41335   0.00000  Uiso   1.00
H46    H     0.03151   0.13168   0.41975   0.00000  Uiso   1.00
H47    H     0.09221   0.09451   0.67498   0.00000  Uiso   1.00
H48    H     0.15975   0.05300   0.63171   0.00000  Uiso   1.00
C85    C     0.00342   0.26350   0.76558   0.00000  Uiso   1.00
C86    C     0.81379   0.33240   0.73889   0.00000  Uiso   1.00
C87    C     0.01564   0.82149   0.17501   0.00000  Uiso   1.00
C88    C     0.07206   0.84006   0.17948   0.00000  Uiso   1.00
C89    C     0.97175   0.33664   0.18430   0.00000  Uiso   1.00
C90    C     0.02706   0.35567   0.18112   0.00000  Uiso   1.00
C91    C     0.90884   0.29825   0.75883   0.00000  Uiso   1.00
C92    C     0.07809   0.35735   0.76664   0.00000  Uiso   1.00
C93    C     0.96593   0.31928   0.75971   0.00000  Uiso   1.00
C94    C     0.14146   0.39727   0.82212   0.00000  Uiso   1.00
N7     N     0.14021   0.37454   0.77310   0.00000  Uiso   1.00
C95    C     0.21065   0.43740   0.87905   0.00000  Uiso   1.00
C96    C     0.21040   0.41180   0.83512   0.00000  Uiso   1.00
C97    C     0.62223   0.22856   0.26366   0.00000  Uiso   1.00
C98    C     0.71805   0.19371   0.25335   0.00000  Uiso   1.00
H49    H     0.05173   0.27576   0.76622   0.00000  Uiso   1.00
H50    H     0.84782   0.34973   0.72813   0.00000  Uiso   1.00
H51    H     0.01217   0.80809   0.10770   0.00000  Uiso   1.00
H52    H     0.11170   0.84081   0.11554   0.00000  Uiso   1.00
H53    H     0.93403   0.33516   0.11803   0.00000  Uiso   1.00
H54    H     0.03151   0.36832   0.11163   0.00000  Uiso   1.00
H55    H     0.09221   0.40549   0.85640   0.00000  Uiso   1.00
H56    H     0.15975   0.44700   0.89967   0.00000  Uiso   1.00
C99    C     0.00342   0.76350   0.26558   0.00000  Uiso   1.00
C100   C     0.81379   0.83240   0.23889   0.00000  Uiso   1.00
C101   C     0.01564   0.32149   0.67501   0.00000  Uiso   1.00
C102   C     0.07206   0.34006   0.67948   0.00000  Uiso   1.00
C103   C     0.97175   0.83664   0.68430   0.00000  Uiso   1.00
C104   C     0.02706   0.85567   0.68112   0.00000  Uiso   1.00
C105   C     0.90884   0.79825   0.25883   0.00000  Uiso   1.00
C106   C     0.07809   0.85735   0.26664   0.00000  Uiso   1.00
C107   C     0.96593   0.81928   0.25971   0.00000  Uiso   1.00
C108   C     0.14146   0.89727   0.32212   0.00000  Uiso   1.00
N8     N     0.14021   0.87454   0.27310   0.00000  Uiso   1.00
C109   C     0.21065   0.93740   0.37905   0.00000  Uiso   1.00
C110   C     0.21040   0.91180   0.33512   0.00000  Uiso   1.00
C111   C     0.62223   0.72856   0.76366   0.00000  Uiso   1.00
C112   C     0.71805   0.69371   0.75335   0.00000  Uiso   1.00
H57    H     0.05173   0.77576   0.26622   0.00000  Uiso   1.00
H58    H     0.84782   0.84973   0.22813   0.00000  Uiso   1.00
H59    H     0.01217   0.30809   0.60770   0.00000  Uiso   1.00
H60    H     0.11170   0.34081   0.61554   0.00000  Uiso   1.00
H61    H     0.93403   0.83516   0.61803   0.00000  Uiso   1.00
H62    H     0.03151   0.86832   0.61163   0.00000  Uiso   1.00
H63    H     0.09221   0.90549   0.35640   0.00000  Uiso   1.00
H64    H     0.15975   0.94700   0.39967   0.00000  Uiso   1.00
N9     N     0.77673   0.20993   0.77016   0.00000  Uiso   1.00
N10    N     0.77673   0.70993   0.27016   0.00000  Uiso   1.00
N11    N     0.77673   0.79007   0.26122   0.00000  Uiso   1.00
N12    N     0.77673   0.29007   0.76122   0.00000  Uiso   1.00
N13    N     0.88648   0.25000   0.76569   0.00000  Uiso   1.00
N14    N     0.88648   0.75000   0.26569   0.00000  Uiso   1.00
N15    N     0.66698   0.75000   0.76569   0.00000  Uiso   1.00
N16    N     0.66698   0.25000   0.26569   0.00000  Uiso   1.00
C113   C     0.27673   0.60079   0.81336   0.00000  Uiso   1.00
C114   C     0.27673   0.52419   0.95919   0.00000  Uiso   1.00
C115   C     0.27673   0.54976   0.90094   0.00000  Uiso   1.00
C116   C     0.27673   0.10079   0.31336   0.00000  Uiso   1.00
C117   C     0.27673   0.02419   0.45919   0.00000  Uiso   1.00
C118   C     0.27673   0.04976   0.40094   0.00000  Uiso   1.00
C119   C     0.27673   0.39921   0.21802   0.00000  Uiso   1.00
C120   C     0.27673   0.47581   0.07219   0.00000  Uiso   1.00
C121   C     0.27673   0.45024   0.13044   0.00000  Uiso   1.00
C122   C     0.27673   0.89921   0.71802   0.00000  Uiso   1.00
C123   C     0.27673   0.97581   0.57219   0.00000  Uiso   1.00
C124   C     0.27673   0.95024   0.63044   0.00000  Uiso   1.00
H65    H     0.71363   0.75000   0.26569   0.00000  Uiso   1.00
H66    H     0.71363   0.25000   0.76569   0.00000  Uiso   1.00
H67    H     0.83983   0.25000   0.26569   0.00000  Uiso   1.00
H68    H     0.83983   0.75000   0.76569   0.00000  Uiso   1.00
H69    H     0.24621   0.47954   0.78790   0.00000  Uiso   1.00
H70    H     0.27673   0.61973   0.78163   0.00000  Uiso   1.00
H71    H     0.23470   0.97924   0.28690   0.00000  Uiso   1.00
H72    H     0.27673   0.11973   0.28163   0.00000  Uiso   1.00
H73    H     0.24059   0.52004   0.28551   0.00000  Uiso   1.00
H74    H     0.27673   0.38027   0.24975   0.00000  Uiso   1.00
H75    H     0.24175   0.02065   0.77210   0.00000  Uiso   1.00
H76    H     0.27673   0.88027   0.74975   0.00000  Uiso   1.00
C125   C     0.55004   0.73650   0.26580   0.00000  Uiso   1.00
C126   C     0.73967   0.66760   0.29249   0.00000  Uiso   1.00
C127   C     0.53782   0.17851   0.85637   0.00000  Uiso   1.00
C128   C     0.48140   0.15994   0.85190   0.00000  Uiso   1.00
C129   C     0.58171   0.66336   0.84708   0.00000  Uiso   1.00
C130   C     0.52639   0.64433   0.85026   0.00000  Uiso   1.00
C131   C     0.64462   0.70175   0.27255   0.00000  Uiso   1.00
C132   C     0.47537   0.64265   0.26474   0.00000  Uiso   1.00
C133   C     0.58753   0.68072   0.27167   0.00000  Uiso   1.00
C134   C     0.41199   0.60273   0.20926   0.00000  Uiso   1.00
N17    N     0.41325   0.62546   0.25828   0.00000  Uiso   1.00
C135   C     0.34280   0.56260   0.15233   0.00000  Uiso   1.00
C136   C     0.34306   0.58820   0.19626   0.00000  Uiso   1.00
C137   C     0.93122   0.77144   0.76772   0.00000  Uiso   1.00
C138   C     0.83541   0.80629   0.77803   0.00000  Uiso   1.00
H77    H     0.50173   0.72424   0.26516   0.00000  Uiso   1.00
H78    H     0.70564   0.65027   0.30325   0.00000  Uiso   1.00
H79    H     0.54129   0.19191   0.92368   0.00000  Uiso   1.00
H80    H     0.44176   0.15919   0.91584   0.00000  Uiso   1.00
H81    H     0.61943   0.66484   0.91335   0.00000  Uiso   1.00
H82    H     0.52195   0.63168   0.91975   0.00000  Uiso   1.00
H83    H     0.46125   0.59451   0.17498   0.00000  Uiso   1.00
H84    H     0.39370   0.55300   0.13171   0.00000  Uiso   1.00
C139   C     0.55004   0.23650   0.76580   0.00000  Uiso   1.00
C140   C     0.73967   0.16760   0.79249   0.00000  Uiso   1.00
C141   C     0.53782   0.67851   0.35637   0.00000  Uiso   1.00
C142   C     0.48140   0.65994   0.35190   0.00000  Uiso   1.00
C143   C     0.58171   0.16336   0.34708   0.00000  Uiso   1.00
C144   C     0.52639   0.14433   0.35026   0.00000  Uiso   1.00
C145   C     0.64462   0.20175   0.77255   0.00000  Uiso   1.00
C146   C     0.47537   0.14265   0.76474   0.00000  Uiso   1.00
C147   C     0.58753   0.18072   0.77167   0.00000  Uiso   1.00
C148   C     0.41199   0.10273   0.70926   0.00000  Uiso   1.00
N18    N     0.41325   0.12546   0.75828   0.00000  Uiso   1.00
C149   C     0.34280   0.06260   0.65233   0.00000  Uiso   1.00
C150   C     0.34306   0.08820   0.69626   0.00000  Uiso   1.00
C151   C     0.93122   0.27144   0.26772   0.00000  Uiso   1.00
C152   C     0.83541   0.30629   0.27803   0.00000  Uiso   1.00
H85    H     0.50173   0.22424   0.76516   0.00000  Uiso   1.00
H86    H     0.70564   0.15027   0.80325   0.00000  Uiso   1.00
H87    H     0.54129   0.69191   0.42368   0.00000  Uiso   1.00
H88    H     0.44176   0.65919   0.41584   0.00000  Uiso   1.00
H89    H     0.61943   0.16484   0.41335   0.00000  Uiso   1.00
H90    H     0.52195   0.13168   0.41975   0.00000  Uiso   1.00
H91    H     0.46125   0.09451   0.67498   0.00000  Uiso   1.00
H92    H     0.39370   0.05300   0.63171   0.00000  Uiso   1.00
C153   C     0.55004   0.26350   0.76558   0.00000  Uiso   1.00
C154   C     0.73967   0.33240   0.73889   0.00000  Uiso   1.00
C155   C     0.53782   0.82149   0.17501   0.00000  Uiso   1.00
C156   C     0.48140   0.84006   0.17948   0.00000  Uiso   1.00
C157   C     0.58171   0.33664   0.18430   0.00000  Uiso   1.00
C158   C     0.52639   0.35567   0.18112   0.00000  Uiso   1.00
C159   C     0.64462   0.29825   0.75883   0.00000  Uiso   1.00
C160   C     0.47537   0.35735   0.76664   0.00000  Uiso   1.00
C161   C     0.58753   0.31928   0.75971   0.00000  Uiso   1.00
C162   C     0.41199   0.39727   0.82212   0.00000  Uiso   1.00
N19    N     0.41325   0.37454   0.77310   0.00000  Uiso   1.00
C163   C     0.34280   0.43740   0.87905   0.00000  Uiso   1.00
C164   C     0.34306   0.41180   0.83512   0.00000  Uiso   1.00
C165   C     0.93122   0.22856   0.26366   0.00000  Uiso   1.00
C166   C     0.83541   0.19371   0.25335   0.00000  Uiso   1.00
H93    H     0.50173   0.27576   0.76622   0.00000  Uiso   1.00
H94    H     0.70564   0.34973   0.72813   0.00000  Uiso   1.00
H95    H     0.54129   0.80809   0.10770   0.00000  Uiso   1.00
H96    H     0.44176   0.84081   0.11554   0.00000  Uiso   1.00
H97    H     0.61943   0.33516   0.11803   0.00000  Uiso   1.00
H98    H     0.52195   0.36832   0.11163   0.00000  Uiso   1.00
H99    H     0.46125   0.40549   0.85640   0.00000  Uiso   1.00
H100   H     0.39370   0.44700   0.89967   0.00000  Uiso   1.00
C167   C     0.55004   0.76350   0.26558   0.00000  Uiso   1.00
C168   C     0.73967   0.83240   0.23889   0.00000  Uiso   1.00
C169   C     0.53782   0.32149   0.67501   0.00000  Uiso   1.00
C170   C     0.48140   0.34006   0.67948   0.00000  Uiso   1.00
C171   C     0.58171   0.83664   0.68430   0.00000  Uiso   1.00
C172   C     0.52639   0.85567   0.68112   0.00000  Uiso   1.00
C173   C     0.64462   0.79825   0.25883   0.00000  Uiso   1.00
C174   C     0.47537   0.85735   0.26664   0.00000  Uiso   1.00
C175   C     0.58753   0.81928   0.25971   0.00000  Uiso   1.00
C176   C     0.41199   0.89727   0.32212   0.00000  Uiso   1.00
N20    N     0.41325   0.87454   0.27310   0.00000  Uiso   1.00
C177   C     0.34280   0.93740   0.37905   0.00000  Uiso   1.00
C178   C     0.34306   0.91180   0.33512   0.00000  Uiso   1.00
C179   C     0.93122   0.72856   0.76366   0.00000  Uiso   1.00
C180   C     0.83541   0.69371   0.75335   0.00000  Uiso   1.00
H101   H     0.50173   0.77576   0.26622   0.00000  Uiso   1.00
H102   H     0.70564   0.84973   0.22813   0.00000  Uiso   1.00
H103   H     0.54129   0.30809   0.60770   0.00000  Uiso   1.00
H104   H     0.44176   0.34081   0.61554   0.00000  Uiso   1.00
H105   H     0.61943   0.83516   0.61803   0.00000  Uiso   1.00
H106   H     0.52195   0.86832   0.61163   0.00000  Uiso   1.00
H107   H     0.46125   0.90549   0.35640   0.00000  Uiso   1.00
H108   H     0.39370   0.94700   0.39967   0.00000  Uiso   1.00
C181   C     0.00342   0.26350   0.26580   0.00000  Uiso   1.00
C182   C     0.81379   0.33240   0.29249   0.00000  Uiso   1.00
C183   C     0.01564   0.82149   0.85637   0.00000  Uiso   1.00
C184   C     0.07206   0.84006   0.85190   0.00000  Uiso   1.00
C185   C     0.97175   0.33664   0.84708   0.00000  Uiso   1.00
C186   C     0.02706   0.35567   0.85026   0.00000  Uiso   1.00
C187   C     0.90884   0.29825   0.27255   0.00000  Uiso   1.00
C188   C     0.07809   0.35735   0.26474   0.00000  Uiso   1.00
C189   C     0.96593   0.31928   0.27167   0.00000  Uiso   1.00
C190   C     0.14146   0.39727   0.20926   0.00000  Uiso   1.00
N21    N     0.14021   0.37454   0.25828   0.00000  Uiso   1.00
C191   C     0.21065   0.43740   0.15233   0.00000  Uiso   1.00
C192   C     0.21040   0.41180   0.19626   0.00000  Uiso   1.00
C193   C     0.62223   0.22856   0.76772   0.00000  Uiso   1.00
C194   C     0.71805   0.19371   0.77803   0.00000  Uiso   1.00
H109   H     0.05173   0.27576   0.26516   0.00000  Uiso   1.00
H110   H     0.84782   0.34973   0.30325   0.00000  Uiso   1.00
H111   H     0.01217   0.80809   0.92368   0.00000  Uiso   1.00
H112   H     0.11170   0.84081   0.91584   0.00000  Uiso   1.00
H113   H     0.93403   0.33516   0.91335   0.00000  Uiso   1.00
H114   H     0.03151   0.36832   0.91975   0.00000  Uiso   1.00
H115   H     0.09221   0.40549   0.17498   0.00000  Uiso   1.00
H116   H     0.15975   0.44700   0.13171   0.00000  Uiso   1.00
C195   C     0.00342   0.76350   0.76580   0.00000  Uiso   1.00
C196   C     0.81379   0.83240   0.79249   0.00000  Uiso   1.00
C197   C     0.01564   0.32149   0.35637   0.00000  Uiso   1.00
C198   C     0.07206   0.34006   0.35190   0.00000  Uiso   1.00
C199   C     0.97175   0.83664   0.34708   0.00000  Uiso   1.00
C200   C     0.02706   0.85567   0.35026   0.00000  Uiso   1.00
C201   C     0.90884   0.79825   0.77255   0.00000  Uiso   1.00
C202   C     0.07809   0.85735   0.76474   0.00000  Uiso   1.00
C203   C     0.96593   0.81928   0.77167   0.00000  Uiso   1.00
C204   C     0.14146   0.89727   0.70926   0.00000  Uiso   1.00
N22    N     0.14021   0.87454   0.75828   0.00000  Uiso   1.00
C205   C     0.21065   0.93740   0.65233   0.00000  Uiso   1.00
C206   C     0.21040   0.91180   0.69626   0.00000  Uiso   1.00
C207   C     0.62223   0.72856   0.26772   0.00000  Uiso   1.00
C208   C     0.71805   0.69371   0.27803   0.00000  Uiso   1.00
H117   H     0.05173   0.77576   0.76516   0.00000  Uiso   1.00
H118   H     0.84782   0.84973   0.80325   0.00000  Uiso   1.00
H119   H     0.01217   0.30809   0.42368   0.00000  Uiso   1.00
H120   H     0.11170   0.34081   0.41584   0.00000  Uiso   1.00
H121   H     0.93403   0.83516   0.41335   0.00000  Uiso   1.00
H122   H     0.03151   0.86832   0.41975   0.00000  Uiso   1.00
H123   H     0.09221   0.90549   0.67498   0.00000  Uiso   1.00
H124   H     0.15975   0.94700   0.63171   0.00000  Uiso   1.00
C209   C     0.00342   0.73650   0.76558   0.00000  Uiso   1.00
C210   C     0.81379   0.66760   0.73889   0.00000  Uiso   1.00
C211   C     0.01564   0.17851   0.17501   0.00000  Uiso   1.00
C212   C     0.07206   0.15994   0.17948   0.00000  Uiso   1.00
C213   C     0.97175   0.66336   0.18430   0.00000  Uiso   1.00
C214   C     0.02706   0.64433   0.18112   0.00000  Uiso   1.00
C215   C     0.90884   0.70175   0.75883   0.00000  Uiso   1.00
C216   C     0.07809   0.64265   0.76664   0.00000  Uiso   1.00
C217   C     0.96593   0.68072   0.75971   0.00000  Uiso   1.00
C218   C     0.14146   0.60273   0.82212   0.00000  Uiso   1.00
N23    N     0.14021   0.62546   0.77310   0.00000  Uiso   1.00
C219   C     0.21065   0.56260   0.87905   0.00000  Uiso   1.00
C220   C     0.21040   0.58820   0.83512   0.00000  Uiso   1.00
C221   C     0.62223   0.77144   0.26366   0.00000  Uiso   1.00
C222   C     0.71805   0.80629   0.25335   0.00000  Uiso   1.00
H125   H     0.05173   0.72424   0.76622   0.00000  Uiso   1.00
H126   H     0.84782   0.65027   0.72813   0.00000  Uiso   1.00
H127   H     0.01217   0.19191   0.10770   0.00000  Uiso   1.00
H128   H     0.11170   0.15919   0.11554   0.00000  Uiso   1.00
H129   H     0.93403   0.66484   0.11803   0.00000  Uiso   1.00
H130   H     0.03151   0.63168   0.11163   0.00000  Uiso   1.00
H131   H     0.09221   0.59451   0.85640   0.00000  Uiso   1.00
H132   H     0.15975   0.55300   0.89967   0.00000  Uiso   1.00
C223   C     0.00342   0.23650   0.26558   0.00000  Uiso   1.00
C224   C     0.81379   0.16760   0.23889   0.00000  Uiso   1.00
C225   C     0.01564   0.67851   0.67501   0.00000  Uiso   1.00
C226   C     0.07206   0.65994   0.67948   0.00000  Uiso   1.00
C227   C     0.97175   0.16336   0.68430   0.00000  Uiso   1.00
C228   C     0.02706   0.14433   0.68112   0.00000  Uiso   1.00
C229   C     0.90884   0.20175   0.25883   0.00000  Uiso   1.00
C230   C     0.07809   0.14265   0.26664   0.00000  Uiso   1.00
C231   C     0.96593   0.18072   0.25971   0.00000  Uiso   1.00
C232   C     0.14146   0.10273   0.32212   0.00000  Uiso   1.00
N24    N     0.14021   0.12546   0.27310   0.00000  Uiso   1.00
C233   C     0.21065   0.06260   0.37905   0.00000  Uiso   1.00
C234   C     0.21040   0.08820   0.33512   0.00000  Uiso   1.00
C235   C     0.62223   0.27144   0.76366   0.00000  Uiso   1.00
C236   C     0.71805   0.30629   0.75335   0.00000  Uiso   1.00
H133   H     0.05173   0.22424   0.26622   0.00000  Uiso   1.00
H134   H     0.84782   0.15027   0.22813   0.00000  Uiso   1.00
H135   H     0.01217   0.69191   0.60770   0.00000  Uiso   1.00
H136   H     0.11170   0.65919   0.61554   0.00000  Uiso   1.00
H137   H     0.93403   0.16484   0.61803   0.00000  Uiso   1.00
H138   H     0.03151   0.13168   0.61163   0.00000  Uiso   1.00
H139   H     0.09221   0.09451   0.35640   0.00000  Uiso   1.00
H140   H     0.15975   0.05300   0.39967   0.00000  Uiso   1.00
N25    N     0.77673   0.79007   0.77016   0.00000  Uiso   1.00
N26    N     0.77673   0.29007   0.27016   0.00000  Uiso   1.00
N27    N     0.77673   0.20993   0.26122   0.00000  Uiso   1.00
N28    N     0.77673   0.70993   0.76122   0.00000  Uiso   1.00
N29    N     0.88648   0.75000   0.76569   0.00000  Uiso   1.00
N30    N     0.88648   0.25000   0.26569   0.00000  Uiso   1.00
N31    N     0.66698   0.25000   0.76569   0.00000  Uiso   1.00
N32    N     0.66698   0.75000   0.26569   0.00000  Uiso   1.00
C237   C     0.27673   0.39921   0.81336   0.00000  Uiso   1.00
C238   C     0.27673   0.47581   0.95919   0.00000  Uiso   1.00
C239   C     0.27673   0.45024   0.90094   0.00000  Uiso   1.00
C240   C     0.27673   0.89921   0.31336   0.00000  Uiso   1.00
C241   C     0.27673   0.97581   0.45919   0.00000  Uiso   1.00
C242   C     0.27673   0.95024   0.40094   0.00000  Uiso   1.00
C243   C     0.27673   0.60079   0.21802   0.00000  Uiso   1.00
C244   C     0.27673   0.52419   0.07219   0.00000  Uiso   1.00
C245   C     0.27673   0.54976   0.13044   0.00000  Uiso   1.00
C246   C     0.27673   0.10079   0.71802   0.00000  Uiso   1.00
C247   C     0.27673   0.02419   0.57219   0.00000  Uiso   1.00
C248   C     0.27673   0.04976   0.63044   0.00000  Uiso   1.00
H141   H     0.71363   0.25000   0.26569   0.00000  Uiso   1.00
H142   H     0.71363   0.75000   0.76569   0.00000  Uiso   1.00
H143   H     0.83983   0.75000   0.26569   0.00000  Uiso   1.00
H144   H     0.83983   0.25000   0.76569   0.00000  Uiso   1.00
H145   H     0.24621   0.52046   0.78790   0.00000  Uiso   1.00
H146   H     0.27673   0.38027   0.78163   0.00000  Uiso   1.00
H147   H     0.23470   0.02076   0.28690   0.00000  Uiso   1.00
H148   H     0.27673   0.88027   0.28163   0.00000  Uiso   1.00
H149   H     0.24059   0.47996   0.28551   0.00000  Uiso   1.00
H150   H     0.27673   0.61973   0.24975   0.00000  Uiso   1.00
H151   H     0.24175   0.97935   0.77210   0.00000  Uiso   1.00
H152   H     0.27673   0.11973   0.74975   0.00000  Uiso   1.00
C249   C     0.27673   0.50000   0.78284   0.00000  Uiso   1.00
C250   C     0.27673   0.50000   0.90280   0.00000  Uiso   1.00
C251   C     0.27673   0.50000   0.24854   0.00000  Uiso   1.00
C252   C     0.27673   0.50000   0.12858   0.00000  Uiso   1.00
H153   H     0.32547   0.50000   0.69049   0.00000  Uiso   1.00
H154   H     0.33039   0.50000   0.29261   0.00000  Uiso   1.00
C253   C     0.27673   0.00000   0.28284   0.00000  Uiso   1.00
C254   C     0.27673   0.00000   0.40280   0.00000  Uiso   1.00
C255   C     0.27673   0.00000   0.74854   0.00000  Uiso   1.00
C256   C     0.27673   0.00000   0.62858   0.00000  Uiso   1.00
H155   H     0.31876   0.00000   0.19476   0.00000  Uiso   1.00
H156   H     0.32919   0.00000   0.80275   0.00000  Uiso   1.00
loop_
_geom_bond_atom_site_label_1
_geom_bond_atom_site_label_2
_geom_bond_distance
_geom_bond_site_symmetry_2
_ccdc_geom_bond_type
C1     H1      1.081   .     S
C1     C83     1.386   .     D
C1     C43     1.360   .     S
C2     H2      1.082   .     S
C2     C182    1.362   .     D
C2     C84     1.386   .     S
C3     C4      1.397   .     D
C3     H3      1.081   .     S
C3     C23     1.403   .     S
C4     H4      1.082   .     S
C4     C22     1.399   .     S
C5     C161    1.403   .     D
C5     C6      1.398   .     S
C5     H5      1.083   .     S
C6     H6      1.081   .     S
C6     C160    1.407   .     D
C7     C84     1.410   .     D
C7     C9      1.491   .     S
C7     C83     1.413   .     S
C8     N1      1.435   .     S
C8     C158    1.407   .     D
C8     C18     1.399   .     S
C9     C157    1.403   .     D
C9     C17     1.403   .     S
C10    H7      1.084   .     S
C10    C12     1.472   .     S
C10    N1      1.299   .     D
C11    C12     1.401   .     D
C11    C121    1.402   .     S
C11    H8      1.084   .     S
C12    C119    1.401   .     S
C13    N13     1.357   .     S
C13    C77     1.413   .     S
C13    C71     1.386   1_655 D
C14    N9      1.356   .     S
C14    C77     1.410   .     D
C14    C72     1.386   .     S
C15    C69     1.386   .     S
C15    H9      1.081   .     S
C15    C29     1.360   .     D
C16    C196    1.362   .     D
C16    H10     1.082   .     S
C16    C70     1.386   .     S
C17    C18     1.397   .     D
C17    H11     1.081   .     S
C18    H12     1.082   .     S
C19    H13     1.083   .     S
C19    C20     1.398   .     S
C19    C175    1.403   .     D
C20    H14     1.081   .     S
C20    C174    1.407   .     D
C21    C70     1.410   .     S
C21    C23     1.491   .     S
C21    C69     1.413   .     D
C22    N2      1.435   .     S
C22    C172    1.407   .     D
C23    C171    1.403   .     D
C24    N2      1.299   .     D
C24    H15     1.084   .     S
C24    C26     1.472   .     S
C25    H16     1.084   .     S
C25    C124    1.402   .     S
C25    C26     1.401   .     D
C26    C122    1.401   .     S
C27    N14     1.357   .     S
C27    C63     1.413   .     S
C27    C57     1.386   1_655 D
C28    C63     1.410   .     D
C28    N10     1.356   .     S
C28    C58     1.386   .     S
C29    H17     1.081   .     S
C29    C111    1.386   .     S
C30    H18     1.082   .     S
C30    C210    1.362   .     D
C30    C112    1.386   .     S
C31    C51     1.403   .     D
C31    C32     1.397   .     S
C31    H19     1.081   .     S
C32    C50     1.399   .     D
C32    H20     1.082   .     S
C33    C34     1.398   .     D
C33    C133    1.403   .     S
C33    H21     1.083   .     S
C34    C132    1.407   .     S
C34    H22     1.081   .     S
C35    C37     1.491   .     S
C35    C112    1.410   .     S
C35    C111    1.413   .     D
C36    N3      1.435   .     S
C36    C46     1.399   .     D
C36    C130    1.407   .     S
C37    C129    1.403   .     S
C37    C45     1.403   .     D
C38    N3      1.299   .     D
C38    C40     1.472   .     S
C38    H23     1.084   .     S
C39    C115    1.402   .     D
C39    H24     1.084   .     S
C39    C40     1.401   .     S
C40    C113    1.401   .     D
C41    N14     1.357   .     S
C41    C105    1.413   .     S
C41    C99     1.386   1_655 D
C42    N11     1.356   .     S
C42    C105    1.410   .     D
C42    C100    1.386   .     S
C43    H25     1.081   .     S
C43    C97     1.386   .     D
C44    H26     1.082   .     S
C44    C224    1.362   .     D
C44    C98     1.386   .     S
C45    H27     1.081   .     S
C45    C46     1.397   .     S
C46    H28     1.082   .     S
C47    H29     1.083   .     S
C47    C48     1.398   .     S
C47    C147    1.403   .     D
C48    H30     1.081   .     S
C48    C146    1.407   .     D
C49    C51     1.491   .     S
C49    C98     1.410   .     D
C49    C97     1.413   .     S
C50    N4      1.435   .     S
C50    C144    1.407   .     S
C51    C143    1.403   .     S
C52    H31     1.084   .     S
C52    C54     1.472   .     S
C52    N4      1.299   .     D
C53    C118    1.402   .     S
C53    H32     1.084   .     S
C53    C54     1.401   .     D
C54    C116    1.401   .     S
C55    N13     1.357   .     S
C55    C91     1.413   .     S
C55    C85     1.386   1_655 D
C56    N12     1.356   .     S
C56    C91     1.410   .     D
C56    C86     1.386   .     S
C57    H33     1.081   .     S
C57    C99     1.360   .     S
C57    C27     1.386   1_455 D
C58    H34     1.082   .     S
C58    C126    1.362   .     D
C59    H35     1.081   .     S
C59    C60     1.397   .     D
C59    C79     1.403   1_455 S
C60    H36     1.082   .     S
C60    C78     1.399   .     S
C61    C217    1.403   .     D
C61    H37     1.083   .     S
C61    C62     1.397   1_655 S
C62    H38     1.081   .     S
C62    C216    1.407   .     D
C62    C61     1.397   1_455 S
C63    C65     1.491   .     S
C64    C214    1.407   .     D
C64    N5      1.435   .     S
C64    C74     1.399   .     S
C65    C213    1.403   .     D
C65    C73     1.403   1_655 S
C66    N5      1.299   .     D
C66    H39     1.084   .     S
C66    C68     1.472   .     S
C67    C68     1.401   .     D
C67    C245    1.403   .     S
C67    H40     1.084   .     S
C68    C243    1.401   .     S
C69    N15     1.357   .     S
C70    N25     1.356   .     D
C71    H41     1.081   .     S
C71    C85     1.360   .     S
C71    C13     1.386   1_455 D
C72    H42     1.082   .     S
C72    C140    1.362   .     D
C73    H43     1.081   .     S
C73    C74     1.397   .     D
C73    C65     1.403   1_455 S
C74    H44     1.082   .     S
C75    H45     1.083   .     S
C75    C231    1.403   .     D
C75    C76     1.397   1_655 S
C76    H46     1.081   .     S
C76    C230    1.407   .     D
C76    C75     1.397   1_455 S
C77    C79     1.491   .     S
C78    N6      1.435   .     S
C78    C228    1.407   .     D
C79    C227    1.403   .     D
C79    C59     1.403   1_655 S
C80    N6      1.299   .     D
C80    H47     1.084   .     S
C80    C82     1.472   .     S
C81    C248    1.403   .     S
C81    H48     1.084   .     S
C81    C82     1.401   .     D
C82    C246    1.401   .     S
C83    N16     1.357   .     S
C84    N26     1.356   .     S
C85    H49     1.081   .     S
C85    C55     1.386   1_455 D
C86    H50     1.082   .     S
C86    C154    1.362   .     D
C87    C88     1.397   .     D
C87    H51     1.081   .     S
C87    C107    1.403   1_455 S
C88    C106    1.399   .     S
C88    H52     1.082   .     S
C89    C189    1.403   .     D
C89    H53     1.083   .     S
C89    C90     1.397   1_655 S
C90    C188    1.407   .     D
C90    H54     1.081   .     S
C90    C89     1.397   1_455 S
C91    C93     1.491   .     S
C92    N7      1.435   .     S
C92    C102    1.399   .     S
C92    C186    1.407   .     D
C93    C185    1.403   .     D
C93    C101    1.403   1_655 S
C94    C96     1.472   .     S
C94    N7      1.299   .     D
C94    H55     1.084   .     S
C95    C239    1.403   .     S
C95    H56     1.084   .     S
C95    C96     1.401   .     D
C96    C237    1.401   .     S
C97    N16     1.357   .     S
C98    N27     1.356   .     S
C99    H57     1.081   .     S
C99    C41     1.386   1_455 D
C100   C168    1.362   .     D
C100   H58     1.082   .     S
C101   C102    1.397   .     D
C101   H59     1.081   .     S
C101   C93     1.403   1_455 S
C102   H60     1.082   .     S
C103   H61     1.083   .     S
C103   C203    1.403   .     D
C103   C104    1.397   1_655 S
C104   H62     1.081   .     S
C104   C202    1.407   .     D
C104   C103    1.397   1_455 S
C105   C107    1.491   .     S
C106   N8      1.435   .     S
C106   C200    1.407   .     D
C107   C199    1.403   .     D
C107   C87     1.403   1_655 S
C108   H63     1.084   .     S
C108   C110    1.472   .     S
C108   N8      1.299   .     D
C109   H64     1.084   .     S
C109   C242    1.403   .     S
C109   C110    1.401   .     D
C110   C240    1.401   .     S
C111   N15     1.357   .     S
C112   N28     1.356   .     D
N9     C194    1.356   .     D
N10    C208    1.356   .     D
N11    C222    1.356   .     D
N12    C236    1.356   .     D
N13    H144    0.857   .     S
N14    H143    0.857   .     S
N15    H142    0.857   .     S
N16    H141    0.857   .     S
C113   H70     1.033   .     S
C113   C220    1.401   .     S
C114   C250    1.408   .     S
C114   C115    1.480   .     S
C114   C244    1.413   1_556 D
C115   C219    1.403   .     S
C116   C234    1.401   .     D
C116   H72     1.033   .     S
C117   C118    1.480   .     S
C117   C254    1.408   .     S
C117   C247    1.413   .     D
C118   C233    1.403   .     D
C119   C192    1.401   .     D
C119   H74     1.033   .     S
C120   C252    1.408   .     D
C120   C121    1.480   .     S
C120   C238    1.413   1_554 S
C121   C191    1.403   .     D
C122   H76     1.033   .     S
C122   C206    1.401   .     D
C123   C124    1.480   .     S
C123   C241    1.413   .     S
C123   C256    1.408   1_565 D
C124   C205    1.403   .     D
H65    N32     0.857   .     S
H66    N31     0.857   .     S
H67    N30     0.857   .     S
H68    N29     0.857   .     S
H69    C249    1.175   .     S
H71    C253    1.301   1_565 S
H73    C251    1.294   .     S
H75    C255    1.258   .     S
C125   H77     1.081   .     S
C125   C207    1.386   .     S
C125   C167    1.360   .     D
C126   H78     1.082   .     S
C126   C208    1.386   .     S
C127   H79     1.081   .     S
C127   C128    1.397   .     D
C127   C147    1.403   .     S
C128   H80     1.082   .     S
C128   C146    1.399   .     S
C129   H81     1.083   .     S
C129   C130    1.398   .     D
C130   H82     1.081   .     S
C131   C133    1.491   .     S
C131   C208    1.410   .     S
C131   C207    1.413   .     D
C132   N17     1.435   .     S
C132   C142    1.399   .     D
C133   C141    1.403   .     D
C134   N17     1.299   .     D
C134   H83     1.084   .     S
C134   C136    1.472   .     S
C135   C136    1.401   .     S
C135   C245    1.402   .     D
C135   H84     1.084   .     S
C136   C243    1.401   .     D
C137   N29     1.357   .     S
C137   C201    1.413   .     S
C137   C195    1.386   1_655 D
C138   N25     1.356   .     S
C138   C201    1.410   .     D
C138   C196    1.386   .     S
C139   H85     1.081   .     S
C139   C193    1.386   .     S
C139   C153    1.360   .     D
C140   H86     1.082   .     S
C140   C194    1.386   .     S
C141   H87     1.081   .     S
C141   C142    1.397   .     S
C142   H88     1.082   .     S
C143   H89     1.083   .     S
C143   C144    1.398   .     D
C144   H90     1.081   .     S
C145   C147    1.491   .     S
C145   C194    1.410   .     S
C145   C193    1.413   .     D
C146   N18     1.435   .     S
C148   N18     1.299   .     D
C148   H91     1.084   .     S
C148   C150    1.472   .     S
C149   C248    1.402   .     D
C149   H92     1.084   .     S
C149   C150    1.401   .     S
C150   C246    1.401   .     D
C151   N30     1.357   .     S
C151   C187    1.413   .     D
C151   C181    1.386   1_655 S
C152   N26     1.356   .     D
C152   C187    1.410   .     S
C152   C182    1.386   .     S
C153   H93     1.081   .     S
C153   C235    1.386   .     S
C154   H94     1.082   .     S
C154   C236    1.386   .     S
C155   C156    1.397   .     D
C155   C175    1.403   .     S
C155   H95     1.081   .     S
C156   C174    1.399   .     S
C156   H96     1.082   .     S
C157   C158    1.398   .     S
C157   H97     1.083   .     S
C158   H98     1.081   .     S
C159   C236    1.410   .     S
C159   C161    1.491   .     S
C159   C235    1.413   .     D
C160   N19     1.435   .     S
C160   C170    1.399   .     S
C161   C169    1.403   .     S
C162   C164    1.472   .     S
C162   N19     1.299   .     D
C162   H99     1.084   .     S
C163   C239    1.402   .     S
C163   H100    1.084   .     S
C163   C164    1.401   .     D
C164   C237    1.401   .     S
C165   N30     1.357   .     S
C165   C229    1.413   .     D
C165   C223    1.386   1_655 S
C166   N27     1.356   .     D
C166   C229    1.410   .     S
C166   C224    1.386   .     S
C167   C221    1.386   .     S
C167   H101    1.081   .     S
C168   H102    1.082   .     S
C168   C222    1.386   .     S
C169   C170    1.397   .     D
C169   H103    1.081   .     S
C170   H104    1.082   .     S
C171   H105    1.083   .     S
C171   C172    1.398   .     S
C172   H106    1.081   .     S
C173   C222    1.410   .     S
C173   C175    1.491   .     S
C173   C221    1.413   .     D
C174   N20     1.435   .     S
C176   H107    1.084   .     S
C176   C178    1.472   .     S
C176   N20     1.299   .     D
C177   H108    1.084   .     S
C177   C242    1.402   .     S
C177   C178    1.401   .     D
C178   C240    1.401   .     S
C179   N29     1.357   .     S
C179   C215    1.413   .     S
C179   C209    1.386   1_655 D
C180   C215    1.410   .     D
C180   N28     1.356   .     S
C180   C210    1.386   .     S
C181   H109    1.081   .     S
C181   C223    1.360   .     D
C181   C151    1.386   1_455 S
C182   H110    1.082   .     S
C183   C184    1.397   .     D
C183   H111    1.081   .     S
C183   C203    1.403   1_455 S
C184   H112    1.082   .     S
C184   C202    1.399   .     S
C185   H113    1.083   .     S
C185   C186    1.397   1_655 S
C186   H114    1.081   .     S
C186   C185    1.397   1_455 S
C187   C189    1.491   .     S
C188   N21     1.435   .     S
C188   C198    1.399   .     S
C189   C197    1.403   1_655 S
C190   H115    1.084   .     S
C190   C192    1.472   .     S
C190   N21     1.299   .     D
C191   C192    1.401   .     S
C191   H116    1.084   .     S
C193   N31     1.357   .     S
C195   H117    1.081   .     S
C195   C209    1.360   .     S
C195   C137    1.386   1_455 D
C196   H118    1.082   .     S
C197   C198    1.397   .     D
C197   H119    1.081   .     S
C197   C189    1.403   1_455 S
C198   H120    1.082   .     S
C199   H121    1.083   .     S
C199   C200    1.397   1_655 S
C200   H122    1.081   .     S
C200   C199    1.397   1_455 S
C201   C203    1.491   .     S
C202   N22     1.435   .     S
C203   C183    1.403   1_655 S
C204   N22     1.299   .     D
C204   H123    1.084   .     S
C204   C206    1.472   .     S
C205   H124    1.084   .     S
C205   C206    1.401   .     S
C207   N32     1.357   .     S
C209   H125    1.081   .     S
C209   C179    1.386   1_455 D
C210   H126    1.082   .     S
C211   C212    1.397   .     D
C211   H127    1.081   .     S
C211   C231    1.403   1_455 S
C212   C230    1.399   .     S
C212   H128    1.082   .     S
C213   H129    1.083   .     S
C213   C214    1.397   1_655 S
C214   H130    1.081   .     S
C214   C213    1.397   1_455 S
C215   C217    1.491   .     S
C216   N23     1.435   .     S
C216   C226    1.399   .     S
C217   C225    1.403   1_655 S
C218   N23     1.299   .     D
C218   C220    1.472   .     S
C218   H131    1.084   .     S
C219   H132    1.084   .     S
C219   C220    1.401   .     D
C221   N32     1.357   .     S
C223   H133    1.081   .     S
C223   C165    1.386   1_455 S
C224   H134    1.082   .     S
C225   H135    1.081   .     S
C225   C226    1.397   .     D
C225   C217    1.403   1_455 S
C226   H136    1.082   .     S
C227   H137    1.083   .     S
C227   C228    1.397   1_655 S
C228   H138    1.081   .     S
C228   C227    1.397   1_455 S
C229   C231    1.491   .     S
C230   N24     1.435   .     S
C231   C211    1.403   1_655 S
C232   H139    1.084   .     S
C232   C234    1.472   .     S
C232   N24     1.299   .     D
C233   H140    1.084   .     S
C233   C234    1.401   .     S
C235   N31     1.357   .     S
C237   H146    1.033   .     S
C238   C250    1.408   .     S
C238   C239    1.480   .     D
C238   C120    1.413   1_556 S
C240   H148    1.033   .     S
C241   C242    1.480   .     D
C241   C254    1.408   1_565 S
C243   H150    1.033   .     S
C244   C252    1.408   .     S
C244   C245    1.480   .     S
C244   C114    1.413   1_554 D
C246   H152    1.033   .     S
C247   C256    1.408   .     S
C247   C248    1.480   .     S
H145   C249    1.175   .     S
H147   C253    1.301   .     S
H149   C251    1.294   .     S
H151   C255    1.258   1_565 S
C249   C250    1.500   .     D
C251   C252    1.500   .     S
C251   H154    1.130   .     S
C253   C254    1.500   .     D
C253   H71     1.301   1_545 S
C254   C241    1.408   1_545 S
C255   H156    1.178   .     S
C255   C256    1.500   .     S
C255   H151    1.258   1_545 S
C256   C123    1.408   1_545 D
