data_871
_audit_creation_date              2023-09-08
_audit_creation_method            'Materials Studio'
_symmetry_space_group_name_H-M    'P1'
_symmetry_Int_Tables_number       1
_symmetry_cell_setting            triclinic
loop_
_symmetry_equiv_pos_as_xyz
  x,y,z
_cell_length_a                    39.1815
_cell_length_b                    38.3688
_cell_length_c                    27.0927
_cell_angle_alpha                 90.0000
_cell_angle_beta                  90.0000
_cell_angle_gamma                 90.0000
loop_
_atom_site_label
_atom_site_type_symbol
_atom_site_fract_x
_atom_site_fract_y
_atom_site_fract_z
_atom_site_U_iso_or_equiv
_atom_site_adp_type
_atom_site_occupancy
C1     C     0.48206   0.59580   0.48690   0.00000  Uiso   1.00
C2     C     0.46447   0.56427   0.49095   0.00000  Uiso   1.00
C3     C     0.48199   0.53214   0.49667   0.00000  Uiso   1.00
C4     C     0.53572   0.37256   0.51775   0.00000  Uiso   1.00
C5     C     0.51782   0.34121   0.52219   0.00000  Uiso   1.00
C6     C     0.57352   0.51428   0.58839   0.00000  Uiso   1.00
C7     C     0.58890   0.51403   0.54117   0.00000  Uiso   1.00
C8     C     0.62039   0.46903   0.46520   0.00000  Uiso   1.00
C9     C     0.63560   0.45178   0.42615   0.00000  Uiso   1.00
C10    C     0.61972   0.45085   0.37979   0.00000  Uiso   1.00
C11    C     0.58912   0.46866   0.37222   0.00000  Uiso   1.00
C12    C     0.63454   0.42960   0.34074   0.00000  Uiso   1.00
C13    C     0.66513   0.23171   0.18542   0.00000  Uiso   1.00
C14    C     0.69262   0.21385   0.20623   0.00000  Uiso   1.00
C15    C     0.71959   0.23164   0.23054   0.00000  Uiso   1.00
C16    C     0.86196   0.28647   0.33679   0.00000  Uiso   1.00
C17    C     0.88894   0.26820   0.35845   0.00000  Uiso   1.00
C18    C     0.70951   0.37310   0.25258   0.00000  Uiso   1.00
C19    C     0.72188   0.34214   0.27362   0.00000  Uiso   1.00
C20    C     0.79180   0.33007   0.18173   0.00000  Uiso   1.00
C21    C     0.81627   0.34962   0.15721   0.00000  Uiso   1.00
C22    C     0.82758   0.38111   0.17711   0.00000  Uiso   1.00
C23    C     0.81513   0.39257   0.22289   0.00000  Uiso   1.00
N24    N     0.84737   0.40302   0.14612   0.00000  Uiso   1.00
H25    H     0.43693   0.56522   0.48878   0.00000  Uiso   1.00
H26    H     0.56337   0.37208   0.51791   0.00000  Uiso   1.00
H27    H     0.53161   0.31689   0.52569   0.00000  Uiso   1.00
H28    H     0.54933   0.50141   0.59491   0.00000  Uiso   1.00
H29    H     0.63241   0.46715   0.50108   0.00000  Uiso   1.00
H30    H     0.65948   0.43830   0.43267   0.00000  Uiso   1.00
H31    H     0.57669   0.46820   0.33650   0.00000  Uiso   1.00
H32    H     0.63012   0.43591   0.30232   0.00000  Uiso   1.00
H33    H     0.69313   0.18599   0.20135   0.00000  Uiso   1.00
H34    H     0.86228   0.31471   0.33734   0.00000  Uiso   1.00
H35    H     0.90981   0.28228   0.37539   0.00000  Uiso   1.00
H36    H     0.82546   0.34100   0.12153   0.00000  Uiso   1.00
H37    H     0.82289   0.41727   0.23850   0.00000  Uiso   1.00
H38    H     0.71945   0.38253   0.21775   0.00000  Uiso   1.00
H39    H     0.78253   0.30628   0.16487   0.00000  Uiso   1.00
C40    C     0.98206   0.09580   0.98690   0.00000  Uiso   1.00
C41    C     0.96447   0.06427   0.99095   0.00000  Uiso   1.00
C42    C     0.98199   0.03214   0.99667   0.00000  Uiso   1.00
C43    C     0.03572   0.87256   0.01775   0.00000  Uiso   1.00
C44    C     0.01782   0.84121   0.02219   0.00000  Uiso   1.00
C45    C     0.07352   0.01428   0.08839   0.00000  Uiso   1.00
C46    C     0.08890   0.01403   0.04117   0.00000  Uiso   1.00
C47    C     0.12039   0.96903   0.96520   0.00000  Uiso   1.00
C48    C     0.13560   0.95178   0.92615   0.00000  Uiso   1.00
C49    C     0.11972   0.95085   0.87979   0.00000  Uiso   1.00
C50    C     0.08912   0.96866   0.87222   0.00000  Uiso   1.00
C51    C     0.13454   0.92960   0.84074   0.00000  Uiso   1.00
C52    C     0.16513   0.73171   0.68542   0.00000  Uiso   1.00
C53    C     0.19262   0.71385   0.70623   0.00000  Uiso   1.00
C54    C     0.21959   0.73164   0.73054   0.00000  Uiso   1.00
C55    C     0.36196   0.78647   0.83679   0.00000  Uiso   1.00
C56    C     0.38894   0.76820   0.85845   0.00000  Uiso   1.00
C57    C     0.20951   0.87310   0.75258   0.00000  Uiso   1.00
C58    C     0.22188   0.84214   0.77362   0.00000  Uiso   1.00
C59    C     0.29180   0.83007   0.68173   0.00000  Uiso   1.00
C60    C     0.31627   0.84962   0.65721   0.00000  Uiso   1.00
C61    C     0.32758   0.88111   0.67711   0.00000  Uiso   1.00
C62    C     0.31513   0.89257   0.72289   0.00000  Uiso   1.00
N63    N     0.34737   0.90302   0.64612   0.00000  Uiso   1.00
H64    H     0.93693   0.06522   0.98878   0.00000  Uiso   1.00
H65    H     0.06337   0.87208   0.01791   0.00000  Uiso   1.00
H66    H     0.03161   0.81689   0.02569   0.00000  Uiso   1.00
H67    H     0.04933   0.00141   0.09491   0.00000  Uiso   1.00
H68    H     0.13241   0.96715   0.00108   0.00000  Uiso   1.00
H69    H     0.15948   0.93830   0.93267   0.00000  Uiso   1.00
H70    H     0.07669   0.96820   0.83650   0.00000  Uiso   1.00
H71    H     0.13012   0.93591   0.80232   0.00000  Uiso   1.00
H72    H     0.19313   0.68599   0.70135   0.00000  Uiso   1.00
H73    H     0.36228   0.81471   0.83734   0.00000  Uiso   1.00
H74    H     0.40981   0.78228   0.87539   0.00000  Uiso   1.00
H75    H     0.32546   0.84100   0.62153   0.00000  Uiso   1.00
H76    H     0.32289   0.91727   0.73850   0.00000  Uiso   1.00
H77    H     0.21945   0.88253   0.71775   0.00000  Uiso   1.00
H78    H     0.28253   0.80628   0.66487   0.00000  Uiso   1.00
C79    C     0.51794   0.90420   0.48690   0.00000  Uiso   1.00
C80    C     0.53553   0.93573   0.49095   0.00000  Uiso   1.00
C81    C     0.51801   0.96786   0.49667   0.00000  Uiso   1.00
C82    C     0.46428   0.12744   0.51775   0.00000  Uiso   1.00
C83    C     0.48218   0.15879   0.52219   0.00000  Uiso   1.00
C84    C     0.42648   0.98572   0.58839   0.00000  Uiso   1.00
C85    C     0.41110   0.98597   0.54117   0.00000  Uiso   1.00
C86    C     0.37961   0.03097   0.46520   0.00000  Uiso   1.00
C87    C     0.36440   0.04822   0.42615   0.00000  Uiso   1.00
C88    C     0.38028   0.04915   0.37979   0.00000  Uiso   1.00
C89    C     0.41088   0.03134   0.37222   0.00000  Uiso   1.00
C90    C     0.36546   0.07040   0.34074   0.00000  Uiso   1.00
C91    C     0.33487   0.26829   0.18542   0.00000  Uiso   1.00
C92    C     0.30738   0.28615   0.20623   0.00000  Uiso   1.00
C93    C     0.28041   0.26836   0.23054   0.00000  Uiso   1.00
C94    C     0.13804   0.21353   0.33679   0.00000  Uiso   1.00
C95    C     0.11106   0.23180   0.35845   0.00000  Uiso   1.00
C96    C     0.29049   0.12690   0.25258   0.00000  Uiso   1.00
C97    C     0.27812   0.15786   0.27362   0.00000  Uiso   1.00
C98    C     0.20820   0.16993   0.18173   0.00000  Uiso   1.00
C99    C     0.18373   0.15038   0.15721   0.00000  Uiso   1.00
C100   C     0.17242   0.11889   0.17711   0.00000  Uiso   1.00
C101   C     0.18487   0.10743   0.22289   0.00000  Uiso   1.00
N102   N     0.15263   0.09698   0.14612   0.00000  Uiso   1.00
H103   H     0.56307   0.93478   0.48878   0.00000  Uiso   1.00
H104   H     0.43663   0.12792   0.51791   0.00000  Uiso   1.00
H105   H     0.46839   0.18311   0.52569   0.00000  Uiso   1.00
H106   H     0.45067   0.99859   0.59491   0.00000  Uiso   1.00
H107   H     0.36759   0.03285   0.50108   0.00000  Uiso   1.00
H108   H     0.34052   0.06170   0.43267   0.00000  Uiso   1.00
H109   H     0.42331   0.03180   0.33650   0.00000  Uiso   1.00
H110   H     0.36988   0.06409   0.30232   0.00000  Uiso   1.00
H111   H     0.30687   0.31401   0.20135   0.00000  Uiso   1.00
H112   H     0.13772   0.18529   0.33734   0.00000  Uiso   1.00
H113   H     0.09019   0.21772   0.37539   0.00000  Uiso   1.00
H114   H     0.17454   0.15900   0.12153   0.00000  Uiso   1.00
H115   H     0.17711   0.08273   0.23850   0.00000  Uiso   1.00
H116   H     0.28055   0.11747   0.21775   0.00000  Uiso   1.00
H117   H     0.21747   0.19372   0.16487   0.00000  Uiso   1.00
C118   C     0.01794   0.40420   0.98690   0.00000  Uiso   1.00
C119   C     0.03553   0.43573   0.99095   0.00000  Uiso   1.00
C120   C     0.01801   0.46786   0.99667   0.00000  Uiso   1.00
C121   C     0.96428   0.62744   0.01775   0.00000  Uiso   1.00
C122   C     0.98218   0.65879   0.02219   0.00000  Uiso   1.00
C123   C     0.92648   0.48572   0.08839   0.00000  Uiso   1.00
C124   C     0.91110   0.48597   0.04117   0.00000  Uiso   1.00
C125   C     0.87961   0.53097   0.96520   0.00000  Uiso   1.00
C126   C     0.86440   0.54822   0.92615   0.00000  Uiso   1.00
C127   C     0.88028   0.54915   0.87979   0.00000  Uiso   1.00
C128   C     0.91088   0.53134   0.87222   0.00000  Uiso   1.00
C129   C     0.86546   0.57040   0.84074   0.00000  Uiso   1.00
C130   C     0.83487   0.76829   0.68542   0.00000  Uiso   1.00
C131   C     0.80738   0.78615   0.70623   0.00000  Uiso   1.00
C132   C     0.78041   0.76836   0.73054   0.00000  Uiso   1.00
C133   C     0.63804   0.71353   0.83679   0.00000  Uiso   1.00
C134   C     0.61106   0.73180   0.85845   0.00000  Uiso   1.00
C135   C     0.79049   0.62690   0.75258   0.00000  Uiso   1.00
C136   C     0.77812   0.65786   0.77362   0.00000  Uiso   1.00
C137   C     0.70820   0.66993   0.68173   0.00000  Uiso   1.00
C138   C     0.68373   0.65038   0.65721   0.00000  Uiso   1.00
C139   C     0.67242   0.61889   0.67711   0.00000  Uiso   1.00
C140   C     0.68487   0.60743   0.72289   0.00000  Uiso   1.00
N141   N     0.65263   0.59698   0.64612   0.00000  Uiso   1.00
H142   H     0.06307   0.43478   0.98878   0.00000  Uiso   1.00
H143   H     0.93663   0.62792   0.01791   0.00000  Uiso   1.00
H144   H     0.96839   0.68311   0.02569   0.00000  Uiso   1.00
H145   H     0.95067   0.49859   0.09491   0.00000  Uiso   1.00
H146   H     0.86759   0.53285   0.00108   0.00000  Uiso   1.00
H147   H     0.84052   0.56170   0.93267   0.00000  Uiso   1.00
H148   H     0.92331   0.53180   0.83650   0.00000  Uiso   1.00
H149   H     0.86988   0.56409   0.80232   0.00000  Uiso   1.00
H150   H     0.80687   0.81401   0.70135   0.00000  Uiso   1.00
H151   H     0.63772   0.68529   0.83734   0.00000  Uiso   1.00
H152   H     0.59019   0.71772   0.87539   0.00000  Uiso   1.00
H153   H     0.67454   0.65900   0.62153   0.00000  Uiso   1.00
H154   H     0.67711   0.58273   0.73850   0.00000  Uiso   1.00
H155   H     0.78055   0.61747   0.71775   0.00000  Uiso   1.00
H156   H     0.71747   0.69372   0.66487   0.00000  Uiso   1.00
C157   C     0.51794   0.09580   0.51310   0.00000  Uiso   1.00
C158   C     0.53553   0.06427   0.50905   0.00000  Uiso   1.00
C159   C     0.51801   0.03214   0.50333   0.00000  Uiso   1.00
C160   C     0.46428   0.87256   0.48225   0.00000  Uiso   1.00
C161   C     0.48218   0.84121   0.47781   0.00000  Uiso   1.00
C162   C     0.42648   0.01428   0.41161   0.00000  Uiso   1.00
C163   C     0.41110   0.01403   0.45883   0.00000  Uiso   1.00
C164   C     0.37961   0.96903   0.53480   0.00000  Uiso   1.00
C165   C     0.36440   0.95178   0.57385   0.00000  Uiso   1.00
C166   C     0.38028   0.95085   0.62021   0.00000  Uiso   1.00
C167   C     0.41088   0.96866   0.62778   0.00000  Uiso   1.00
C168   C     0.36546   0.92960   0.65926   0.00000  Uiso   1.00
C169   C     0.33487   0.73171   0.81458   0.00000  Uiso   1.00
C170   C     0.30738   0.71385   0.79377   0.00000  Uiso   1.00
C171   C     0.28041   0.73164   0.76946   0.00000  Uiso   1.00
C172   C     0.13804   0.78647   0.66321   0.00000  Uiso   1.00
C173   C     0.11106   0.76820   0.64155   0.00000  Uiso   1.00
C174   C     0.29049   0.87310   0.74742   0.00000  Uiso   1.00
C175   C     0.27812   0.84214   0.72638   0.00000  Uiso   1.00
C176   C     0.20820   0.83007   0.81827   0.00000  Uiso   1.00
C177   C     0.18373   0.84962   0.84279   0.00000  Uiso   1.00
C178   C     0.17242   0.88111   0.82289   0.00000  Uiso   1.00
C179   C     0.18487   0.89257   0.77711   0.00000  Uiso   1.00
N180   N     0.15263   0.90302   0.85388   0.00000  Uiso   1.00
H181   H     0.56307   0.06522   0.51122   0.00000  Uiso   1.00
H182   H     0.43663   0.87208   0.48209   0.00000  Uiso   1.00
H183   H     0.46839   0.81689   0.47431   0.00000  Uiso   1.00
H184   H     0.45067   0.00141   0.40509   0.00000  Uiso   1.00
H185   H     0.36759   0.96715   0.49892   0.00000  Uiso   1.00
H186   H     0.34052   0.93830   0.56733   0.00000  Uiso   1.00
H187   H     0.42331   0.96820   0.66350   0.00000  Uiso   1.00
H188   H     0.36988   0.93591   0.69768   0.00000  Uiso   1.00
H189   H     0.30687   0.68599   0.79865   0.00000  Uiso   1.00
H190   H     0.13772   0.81471   0.66266   0.00000  Uiso   1.00
H191   H     0.09019   0.78228   0.62461   0.00000  Uiso   1.00
H192   H     0.17454   0.84100   0.87847   0.00000  Uiso   1.00
H193   H     0.17711   0.91727   0.76150   0.00000  Uiso   1.00
H194   H     0.28055   0.88253   0.78225   0.00000  Uiso   1.00
H195   H     0.21747   0.80628   0.83513   0.00000  Uiso   1.00
C196   C     0.01794   0.59580   0.01310   0.00000  Uiso   1.00
C197   C     0.03553   0.56427   0.00905   0.00000  Uiso   1.00
C198   C     0.01801   0.53214   0.00333   0.00000  Uiso   1.00
C199   C     0.96428   0.37256   0.98225   0.00000  Uiso   1.00
C200   C     0.98218   0.34121   0.97781   0.00000  Uiso   1.00
C201   C     0.92648   0.51428   0.91161   0.00000  Uiso   1.00
C202   C     0.91110   0.51403   0.95883   0.00000  Uiso   1.00
C203   C     0.87961   0.46903   0.03480   0.00000  Uiso   1.00
C204   C     0.86440   0.45178   0.07385   0.00000  Uiso   1.00
C205   C     0.88028   0.45085   0.12021   0.00000  Uiso   1.00
C206   C     0.91088   0.46866   0.12778   0.00000  Uiso   1.00
C207   C     0.86546   0.42960   0.15926   0.00000  Uiso   1.00
C208   C     0.83487   0.23171   0.31458   0.00000  Uiso   1.00
C209   C     0.80738   0.21385   0.29377   0.00000  Uiso   1.00
C210   C     0.78041   0.23164   0.26946   0.00000  Uiso   1.00
C211   C     0.63804   0.28647   0.16321   0.00000  Uiso   1.00
C212   C     0.61106   0.26820   0.14155   0.00000  Uiso   1.00
C213   C     0.79049   0.37310   0.24742   0.00000  Uiso   1.00
C214   C     0.77812   0.34214   0.22638   0.00000  Uiso   1.00
C215   C     0.70820   0.33007   0.31827   0.00000  Uiso   1.00
C216   C     0.68373   0.34962   0.34279   0.00000  Uiso   1.00
C217   C     0.67242   0.38111   0.32289   0.00000  Uiso   1.00
C218   C     0.68487   0.39257   0.27711   0.00000  Uiso   1.00
N219   N     0.65263   0.40302   0.35388   0.00000  Uiso   1.00
H220   H     0.06307   0.56522   0.01122   0.00000  Uiso   1.00
H221   H     0.93663   0.37208   0.98209   0.00000  Uiso   1.00
H222   H     0.96839   0.31689   0.97431   0.00000  Uiso   1.00
H223   H     0.95067   0.50141   0.90509   0.00000  Uiso   1.00
H224   H     0.86759   0.46715   0.99892   0.00000  Uiso   1.00
H225   H     0.84052   0.43830   0.06733   0.00000  Uiso   1.00
H226   H     0.92331   0.46820   0.16350   0.00000  Uiso   1.00
H227   H     0.86988   0.43591   0.19768   0.00000  Uiso   1.00
H228   H     0.80687   0.18599   0.29865   0.00000  Uiso   1.00
H229   H     0.63772   0.31471   0.16266   0.00000  Uiso   1.00
H230   H     0.59019   0.28228   0.12461   0.00000  Uiso   1.00
H231   H     0.67454   0.34100   0.37847   0.00000  Uiso   1.00
H232   H     0.67711   0.41727   0.26150   0.00000  Uiso   1.00
H233   H     0.78055   0.38253   0.28225   0.00000  Uiso   1.00
H234   H     0.71747   0.30628   0.33513   0.00000  Uiso   1.00
C235   C     0.48206   0.40420   0.51310   0.00000  Uiso   1.00
C236   C     0.46447   0.43573   0.50905   0.00000  Uiso   1.00
C237   C     0.48199   0.46786   0.50333   0.00000  Uiso   1.00
C238   C     0.53572   0.62744   0.48225   0.00000  Uiso   1.00
C239   C     0.51782   0.65879   0.47781   0.00000  Uiso   1.00
C240   C     0.57352   0.48572   0.41161   0.00000  Uiso   1.00
C241   C     0.58890   0.48597   0.45883   0.00000  Uiso   1.00
C242   C     0.62039   0.53097   0.53480   0.00000  Uiso   1.00
C243   C     0.63560   0.54822   0.57385   0.00000  Uiso   1.00
C244   C     0.61972   0.54915   0.62021   0.00000  Uiso   1.00
C245   C     0.58912   0.53134   0.62778   0.00000  Uiso   1.00
C246   C     0.63454   0.57040   0.65926   0.00000  Uiso   1.00
C247   C     0.66513   0.76829   0.81458   0.00000  Uiso   1.00
C248   C     0.69262   0.78615   0.79377   0.00000  Uiso   1.00
C249   C     0.71959   0.76836   0.76946   0.00000  Uiso   1.00
C250   C     0.86196   0.71353   0.66321   0.00000  Uiso   1.00
C251   C     0.88894   0.73180   0.64155   0.00000  Uiso   1.00
C252   C     0.70951   0.62690   0.74742   0.00000  Uiso   1.00
C253   C     0.72188   0.65786   0.72638   0.00000  Uiso   1.00
C254   C     0.79180   0.66993   0.81827   0.00000  Uiso   1.00
C255   C     0.81627   0.65038   0.84279   0.00000  Uiso   1.00
C256   C     0.82758   0.61889   0.82289   0.00000  Uiso   1.00
C257   C     0.81513   0.60743   0.77711   0.00000  Uiso   1.00
N258   N     0.84737   0.59698   0.85388   0.00000  Uiso   1.00
H259   H     0.43693   0.43478   0.51122   0.00000  Uiso   1.00
H260   H     0.56337   0.62792   0.48209   0.00000  Uiso   1.00
H261   H     0.53161   0.68311   0.47431   0.00000  Uiso   1.00
H262   H     0.54933   0.49859   0.40509   0.00000  Uiso   1.00
H263   H     0.63241   0.53285   0.49892   0.00000  Uiso   1.00
H264   H     0.65948   0.56170   0.56733   0.00000  Uiso   1.00
H265   H     0.57669   0.53180   0.66350   0.00000  Uiso   1.00
H266   H     0.63012   0.56409   0.69768   0.00000  Uiso   1.00
H267   H     0.69313   0.81401   0.79865   0.00000  Uiso   1.00
H268   H     0.86228   0.68529   0.66266   0.00000  Uiso   1.00
H269   H     0.90981   0.71772   0.62461   0.00000  Uiso   1.00
H270   H     0.82546   0.65900   0.87847   0.00000  Uiso   1.00
H271   H     0.82289   0.58273   0.76150   0.00000  Uiso   1.00
H272   H     0.71945   0.61747   0.78225   0.00000  Uiso   1.00
H273   H     0.78253   0.69372   0.83513   0.00000  Uiso   1.00
C274   C     0.98206   0.90420   0.01310   0.00000  Uiso   1.00
C275   C     0.96447   0.93573   0.00905   0.00000  Uiso   1.00
C276   C     0.98199   0.96786   0.00333   0.00000  Uiso   1.00
C277   C     0.03572   0.12744   0.98225   0.00000  Uiso   1.00
C278   C     0.01782   0.15879   0.97781   0.00000  Uiso   1.00
C279   C     0.07352   0.98572   0.91161   0.00000  Uiso   1.00
C280   C     0.08890   0.98597   0.95883   0.00000  Uiso   1.00
C281   C     0.12039   0.03097   0.03480   0.00000  Uiso   1.00
C282   C     0.13560   0.04822   0.07385   0.00000  Uiso   1.00
C283   C     0.11972   0.04915   0.12021   0.00000  Uiso   1.00
C284   C     0.08912   0.03134   0.12778   0.00000  Uiso   1.00
C285   C     0.13454   0.07040   0.15926   0.00000  Uiso   1.00
C286   C     0.16513   0.26829   0.31458   0.00000  Uiso   1.00
C287   C     0.19262   0.28615   0.29377   0.00000  Uiso   1.00
C288   C     0.21959   0.26836   0.26946   0.00000  Uiso   1.00
C289   C     0.36196   0.21353   0.16321   0.00000  Uiso   1.00
C290   C     0.38894   0.23180   0.14155   0.00000  Uiso   1.00
C291   C     0.20951   0.12690   0.24742   0.00000  Uiso   1.00
C292   C     0.22188   0.15786   0.22638   0.00000  Uiso   1.00
C293   C     0.29180   0.16993   0.31827   0.00000  Uiso   1.00
C294   C     0.31627   0.15038   0.34279   0.00000  Uiso   1.00
C295   C     0.32758   0.11889   0.32289   0.00000  Uiso   1.00
C296   C     0.31513   0.10743   0.27711   0.00000  Uiso   1.00
N297   N     0.34737   0.09698   0.35388   0.00000  Uiso   1.00
H298   H     0.93693   0.93478   0.01122   0.00000  Uiso   1.00
H299   H     0.06337   0.12792   0.98209   0.00000  Uiso   1.00
H300   H     0.03161   0.18311   0.97431   0.00000  Uiso   1.00
H301   H     0.04933   0.99859   0.90509   0.00000  Uiso   1.00
H302   H     0.13241   0.03285   0.99892   0.00000  Uiso   1.00
H303   H     0.15948   0.06170   0.06733   0.00000  Uiso   1.00
H304   H     0.07669   0.03180   0.16350   0.00000  Uiso   1.00
H305   H     0.13012   0.06409   0.19768   0.00000  Uiso   1.00
H306   H     0.19313   0.31401   0.29865   0.00000  Uiso   1.00
H307   H     0.36228   0.18529   0.16266   0.00000  Uiso   1.00
H308   H     0.40981   0.21772   0.12461   0.00000  Uiso   1.00
H309   H     0.32546   0.15900   0.37847   0.00000  Uiso   1.00
H310   H     0.32289   0.08273   0.26150   0.00000  Uiso   1.00
H311   H     0.21945   0.11747   0.28225   0.00000  Uiso   1.00
H312   H     0.28253   0.19372   0.33513   0.00000  Uiso   1.00
C313   C     0.51794   0.40420   0.51310   0.00000  Uiso   1.00
C314   C     0.53553   0.43573   0.50905   0.00000  Uiso   1.00
C315   C     0.51801   0.46786   0.50333   0.00000  Uiso   1.00
C316   C     0.46428   0.62744   0.48225   0.00000  Uiso   1.00
C317   C     0.48218   0.65879   0.47781   0.00000  Uiso   1.00
C318   C     0.42648   0.48572   0.41161   0.00000  Uiso   1.00
C319   C     0.41110   0.48597   0.45883   0.00000  Uiso   1.00
C320   C     0.37961   0.53097   0.53480   0.00000  Uiso   1.00
C321   C     0.36440   0.54822   0.57385   0.00000  Uiso   1.00
C322   C     0.38028   0.54915   0.62021   0.00000  Uiso   1.00
C323   C     0.41088   0.53134   0.62778   0.00000  Uiso   1.00
C324   C     0.36546   0.57040   0.65926   0.00000  Uiso   1.00
C325   C     0.33487   0.76829   0.81458   0.00000  Uiso   1.00
C326   C     0.30738   0.78615   0.79377   0.00000  Uiso   1.00
C327   C     0.28041   0.76836   0.76946   0.00000  Uiso   1.00
C328   C     0.13804   0.71353   0.66321   0.00000  Uiso   1.00
C329   C     0.11106   0.73180   0.64155   0.00000  Uiso   1.00
C330   C     0.29049   0.62690   0.74742   0.00000  Uiso   1.00
C331   C     0.27812   0.65786   0.72638   0.00000  Uiso   1.00
C332   C     0.20820   0.66993   0.81827   0.00000  Uiso   1.00
C333   C     0.18373   0.65038   0.84279   0.00000  Uiso   1.00
C334   C     0.17242   0.61889   0.82289   0.00000  Uiso   1.00
C335   C     0.18487   0.60743   0.77711   0.00000  Uiso   1.00
N336   N     0.15263   0.59698   0.85388   0.00000  Uiso   1.00
H337   H     0.56307   0.43478   0.51122   0.00000  Uiso   1.00
H338   H     0.43663   0.62792   0.48209   0.00000  Uiso   1.00
H339   H     0.46839   0.68311   0.47431   0.00000  Uiso   1.00
H340   H     0.45067   0.49859   0.40509   0.00000  Uiso   1.00
H341   H     0.36759   0.53285   0.49892   0.00000  Uiso   1.00
H342   H     0.34052   0.56170   0.56733   0.00000  Uiso   1.00
H343   H     0.42331   0.53180   0.66350   0.00000  Uiso   1.00
H344   H     0.36988   0.56409   0.69768   0.00000  Uiso   1.00
H345   H     0.30687   0.81401   0.79865   0.00000  Uiso   1.00
H346   H     0.13772   0.68529   0.66266   0.00000  Uiso   1.00
H347   H     0.09019   0.71772   0.62461   0.00000  Uiso   1.00
H348   H     0.17454   0.65900   0.87847   0.00000  Uiso   1.00
H349   H     0.17711   0.58273   0.76150   0.00000  Uiso   1.00
H350   H     0.28055   0.61747   0.78225   0.00000  Uiso   1.00
H351   H     0.21747   0.69372   0.83513   0.00000  Uiso   1.00
C352   C     0.01794   0.90420   0.01310   0.00000  Uiso   1.00
C353   C     0.03553   0.93573   0.00905   0.00000  Uiso   1.00
C354   C     0.01801   0.96786   0.00333   0.00000  Uiso   1.00
C355   C     0.96428   0.12744   0.98225   0.00000  Uiso   1.00
C356   C     0.98218   0.15879   0.97781   0.00000  Uiso   1.00
C357   C     0.92648   0.98572   0.91161   0.00000  Uiso   1.00
C358   C     0.91110   0.98597   0.95883   0.00000  Uiso   1.00
C359   C     0.87961   0.03097   0.03480   0.00000  Uiso   1.00
C360   C     0.86440   0.04822   0.07385   0.00000  Uiso   1.00
C361   C     0.88028   0.04915   0.12021   0.00000  Uiso   1.00
C362   C     0.91088   0.03134   0.12778   0.00000  Uiso   1.00
C363   C     0.86546   0.07040   0.15926   0.00000  Uiso   1.00
C364   C     0.83487   0.26829   0.31458   0.00000  Uiso   1.00
C365   C     0.80738   0.28615   0.29377   0.00000  Uiso   1.00
C366   C     0.78041   0.26836   0.26946   0.00000  Uiso   1.00
C367   C     0.63804   0.21353   0.16321   0.00000  Uiso   1.00
C368   C     0.61106   0.23180   0.14155   0.00000  Uiso   1.00
C369   C     0.79049   0.12690   0.24742   0.00000  Uiso   1.00
C370   C     0.77812   0.15786   0.22638   0.00000  Uiso   1.00
C371   C     0.70820   0.16993   0.31827   0.00000  Uiso   1.00
C372   C     0.68373   0.15038   0.34279   0.00000  Uiso   1.00
C373   C     0.67242   0.11889   0.32289   0.00000  Uiso   1.00
C374   C     0.68487   0.10743   0.27711   0.00000  Uiso   1.00
N375   N     0.65263   0.09698   0.35388   0.00000  Uiso   1.00
H376   H     0.06307   0.93478   0.01122   0.00000  Uiso   1.00
H377   H     0.93663   0.12792   0.98209   0.00000  Uiso   1.00
H378   H     0.96839   0.18311   0.97431   0.00000  Uiso   1.00
H379   H     0.95067   0.99859   0.90509   0.00000  Uiso   1.00
H380   H     0.86759   0.03285   0.99892   0.00000  Uiso   1.00
H381   H     0.84052   0.06170   0.06733   0.00000  Uiso   1.00
H382   H     0.92331   0.03180   0.16350   0.00000  Uiso   1.00
H383   H     0.86988   0.06409   0.19768   0.00000  Uiso   1.00
H384   H     0.80687   0.31401   0.29865   0.00000  Uiso   1.00
H385   H     0.63772   0.18529   0.16266   0.00000  Uiso   1.00
H386   H     0.59019   0.21772   0.12461   0.00000  Uiso   1.00
H387   H     0.67454   0.15900   0.37847   0.00000  Uiso   1.00
H388   H     0.67711   0.08273   0.26150   0.00000  Uiso   1.00
H389   H     0.78055   0.11747   0.28225   0.00000  Uiso   1.00
H390   H     0.71747   0.19372   0.33513   0.00000  Uiso   1.00
C391   C     0.48206   0.09580   0.51310   0.00000  Uiso   1.00
C392   C     0.46447   0.06427   0.50905   0.00000  Uiso   1.00
C393   C     0.48199   0.03214   0.50333   0.00000  Uiso   1.00
C394   C     0.53572   0.87256   0.48225   0.00000  Uiso   1.00
C395   C     0.51782   0.84121   0.47781   0.00000  Uiso   1.00
C396   C     0.57352   0.01428   0.41161   0.00000  Uiso   1.00
C397   C     0.58890   0.01403   0.45883   0.00000  Uiso   1.00
C398   C     0.62039   0.96903   0.53480   0.00000  Uiso   1.00
C399   C     0.63560   0.95178   0.57385   0.00000  Uiso   1.00
C400   C     0.61972   0.95085   0.62021   0.00000  Uiso   1.00
C401   C     0.58912   0.96866   0.62778   0.00000  Uiso   1.00
C402   C     0.63454   0.92960   0.65926   0.00000  Uiso   1.00
C403   C     0.66513   0.73171   0.81458   0.00000  Uiso   1.00
C404   C     0.69262   0.71385   0.79377   0.00000  Uiso   1.00
C405   C     0.71959   0.73164   0.76946   0.00000  Uiso   1.00
C406   C     0.86196   0.78647   0.66321   0.00000  Uiso   1.00
C407   C     0.88894   0.76820   0.64155   0.00000  Uiso   1.00
C408   C     0.70951   0.87310   0.74742   0.00000  Uiso   1.00
C409   C     0.72188   0.84214   0.72638   0.00000  Uiso   1.00
C410   C     0.79180   0.83007   0.81827   0.00000  Uiso   1.00
C411   C     0.81627   0.84962   0.84279   0.00000  Uiso   1.00
C412   C     0.82758   0.88111   0.82289   0.00000  Uiso   1.00
C413   C     0.81513   0.89257   0.77711   0.00000  Uiso   1.00
N414   N     0.84737   0.90302   0.85388   0.00000  Uiso   1.00
H415   H     0.43693   0.06522   0.51122   0.00000  Uiso   1.00
H416   H     0.56337   0.87208   0.48209   0.00000  Uiso   1.00
H417   H     0.53161   0.81689   0.47431   0.00000  Uiso   1.00
H418   H     0.54933   0.00141   0.40509   0.00000  Uiso   1.00
H419   H     0.63241   0.96715   0.49892   0.00000  Uiso   1.00
H420   H     0.65948   0.93830   0.56733   0.00000  Uiso   1.00
H421   H     0.57669   0.96820   0.66350   0.00000  Uiso   1.00
H422   H     0.63012   0.93591   0.69768   0.00000  Uiso   1.00
H423   H     0.69313   0.68599   0.79865   0.00000  Uiso   1.00
H424   H     0.86228   0.81471   0.66266   0.00000  Uiso   1.00
H425   H     0.90981   0.78228   0.62461   0.00000  Uiso   1.00
H426   H     0.82546   0.84100   0.87847   0.00000  Uiso   1.00
H427   H     0.82289   0.91727   0.76150   0.00000  Uiso   1.00
H428   H     0.71945   0.88253   0.78225   0.00000  Uiso   1.00
H429   H     0.78253   0.80628   0.83513   0.00000  Uiso   1.00
C430   C     0.98206   0.59580   0.01310   0.00000  Uiso   1.00
C431   C     0.96447   0.56427   0.00905   0.00000  Uiso   1.00
C432   C     0.98199   0.53214   0.00333   0.00000  Uiso   1.00
C433   C     0.03572   0.37256   0.98225   0.00000  Uiso   1.00
C434   C     0.01782   0.34121   0.97781   0.00000  Uiso   1.00
C435   C     0.07352   0.51428   0.91161   0.00000  Uiso   1.00
C436   C     0.08890   0.51403   0.95883   0.00000  Uiso   1.00
C437   C     0.12039   0.46903   0.03480   0.00000  Uiso   1.00
C438   C     0.13560   0.45178   0.07385   0.00000  Uiso   1.00
C439   C     0.11972   0.45085   0.12021   0.00000  Uiso   1.00
C440   C     0.08912   0.46866   0.12778   0.00000  Uiso   1.00
C441   C     0.13454   0.42960   0.15926   0.00000  Uiso   1.00
C442   C     0.16513   0.23171   0.31458   0.00000  Uiso   1.00
C443   C     0.19262   0.21385   0.29377   0.00000  Uiso   1.00
C444   C     0.21959   0.23164   0.26946   0.00000  Uiso   1.00
C445   C     0.36196   0.28647   0.16321   0.00000  Uiso   1.00
C446   C     0.38894   0.26820   0.14155   0.00000  Uiso   1.00
C447   C     0.20951   0.37310   0.24742   0.00000  Uiso   1.00
C448   C     0.22188   0.34214   0.22638   0.00000  Uiso   1.00
C449   C     0.29180   0.33007   0.31827   0.00000  Uiso   1.00
C450   C     0.31627   0.34962   0.34279   0.00000  Uiso   1.00
C451   C     0.32758   0.38111   0.32289   0.00000  Uiso   1.00
C452   C     0.31513   0.39257   0.27711   0.00000  Uiso   1.00
N453   N     0.34737   0.40302   0.35388   0.00000  Uiso   1.00
H454   H     0.93693   0.56522   0.01122   0.00000  Uiso   1.00
H455   H     0.06337   0.37208   0.98209   0.00000  Uiso   1.00
H456   H     0.03161   0.31689   0.97431   0.00000  Uiso   1.00
H457   H     0.04933   0.50141   0.90509   0.00000  Uiso   1.00
H458   H     0.13241   0.46715   0.99892   0.00000  Uiso   1.00
H459   H     0.15948   0.43830   0.06733   0.00000  Uiso   1.00
H460   H     0.07669   0.46820   0.16350   0.00000  Uiso   1.00
H461   H     0.13012   0.43591   0.19768   0.00000  Uiso   1.00
H462   H     0.19313   0.18599   0.29865   0.00000  Uiso   1.00
H463   H     0.36228   0.31471   0.16266   0.00000  Uiso   1.00
H464   H     0.40981   0.28228   0.12461   0.00000  Uiso   1.00
H465   H     0.32546   0.34100   0.37847   0.00000  Uiso   1.00
H466   H     0.32289   0.41727   0.26150   0.00000  Uiso   1.00
H467   H     0.21945   0.38253   0.28225   0.00000  Uiso   1.00
H468   H     0.28253   0.30628   0.33513   0.00000  Uiso   1.00
C469   C     0.48206   0.90420   0.48690   0.00000  Uiso   1.00
C470   C     0.46447   0.93573   0.49095   0.00000  Uiso   1.00
C471   C     0.48199   0.96786   0.49667   0.00000  Uiso   1.00
C472   C     0.53572   0.12744   0.51775   0.00000  Uiso   1.00
C473   C     0.51782   0.15879   0.52219   0.00000  Uiso   1.00
C474   C     0.57352   0.98572   0.58839   0.00000  Uiso   1.00
C475   C     0.58890   0.98597   0.54117   0.00000  Uiso   1.00
C476   C     0.62039   0.03097   0.46520   0.00000  Uiso   1.00
C477   C     0.63560   0.04822   0.42615   0.00000  Uiso   1.00
C478   C     0.61972   0.04915   0.37979   0.00000  Uiso   1.00
C479   C     0.58912   0.03134   0.37222   0.00000  Uiso   1.00
C480   C     0.63454   0.07040   0.34074   0.00000  Uiso   1.00
C481   C     0.66513   0.26829   0.18542   0.00000  Uiso   1.00
C482   C     0.69262   0.28615   0.20623   0.00000  Uiso   1.00
C483   C     0.71959   0.26836   0.23054   0.00000  Uiso   1.00
C484   C     0.86196   0.21353   0.33679   0.00000  Uiso   1.00
C485   C     0.88894   0.23180   0.35845   0.00000  Uiso   1.00
C486   C     0.70951   0.12690   0.25258   0.00000  Uiso   1.00
C487   C     0.72188   0.15786   0.27362   0.00000  Uiso   1.00
C488   C     0.79180   0.16993   0.18173   0.00000  Uiso   1.00
C489   C     0.81627   0.15038   0.15721   0.00000  Uiso   1.00
C490   C     0.82758   0.11889   0.17711   0.00000  Uiso   1.00
C491   C     0.81513   0.10743   0.22289   0.00000  Uiso   1.00
N492   N     0.84737   0.09698   0.14612   0.00000  Uiso   1.00
H493   H     0.43693   0.93478   0.48878   0.00000  Uiso   1.00
H494   H     0.56337   0.12792   0.51791   0.00000  Uiso   1.00
H495   H     0.53161   0.18311   0.52569   0.00000  Uiso   1.00
H496   H     0.54933   0.99859   0.59491   0.00000  Uiso   1.00
H497   H     0.63241   0.03285   0.50108   0.00000  Uiso   1.00
H498   H     0.65948   0.06170   0.43267   0.00000  Uiso   1.00
H499   H     0.57669   0.03180   0.33650   0.00000  Uiso   1.00
H500   H     0.63012   0.06409   0.30232   0.00000  Uiso   1.00
H501   H     0.69313   0.31401   0.20135   0.00000  Uiso   1.00
H502   H     0.86228   0.18529   0.33734   0.00000  Uiso   1.00
H503   H     0.90981   0.21772   0.37539   0.00000  Uiso   1.00
H504   H     0.82546   0.15900   0.12153   0.00000  Uiso   1.00
H505   H     0.82289   0.08273   0.23850   0.00000  Uiso   1.00
H506   H     0.71945   0.11747   0.21775   0.00000  Uiso   1.00
H507   H     0.78253   0.19372   0.16487   0.00000  Uiso   1.00
C508   C     0.98206   0.40420   0.98690   0.00000  Uiso   1.00
C509   C     0.96447   0.43573   0.99095   0.00000  Uiso   1.00
C510   C     0.98199   0.46786   0.99667   0.00000  Uiso   1.00
C511   C     0.03572   0.62744   0.01775   0.00000  Uiso   1.00
C512   C     0.01782   0.65879   0.02219   0.00000  Uiso   1.00
C513   C     0.07352   0.48572   0.08839   0.00000  Uiso   1.00
C514   C     0.08890   0.48597   0.04117   0.00000  Uiso   1.00
C515   C     0.12039   0.53097   0.96520   0.00000  Uiso   1.00
C516   C     0.13560   0.54822   0.92615   0.00000  Uiso   1.00
C517   C     0.11972   0.54915   0.87979   0.00000  Uiso   1.00
C518   C     0.08912   0.53134   0.87222   0.00000  Uiso   1.00
C519   C     0.13454   0.57040   0.84074   0.00000  Uiso   1.00
C520   C     0.16513   0.76829   0.68542   0.00000  Uiso   1.00
C521   C     0.19262   0.78615   0.70623   0.00000  Uiso   1.00
C522   C     0.21959   0.76836   0.73054   0.00000  Uiso   1.00
C523   C     0.36196   0.71353   0.83679   0.00000  Uiso   1.00
C524   C     0.38894   0.73180   0.85845   0.00000  Uiso   1.00
C525   C     0.20951   0.62690   0.75258   0.00000  Uiso   1.00
C526   C     0.22188   0.65786   0.77362   0.00000  Uiso   1.00
C527   C     0.29180   0.66993   0.68173   0.00000  Uiso   1.00
C528   C     0.31627   0.65038   0.65721   0.00000  Uiso   1.00
C529   C     0.32758   0.61889   0.67711   0.00000  Uiso   1.00
C530   C     0.31513   0.60743   0.72289   0.00000  Uiso   1.00
N531   N     0.34737   0.59698   0.64612   0.00000  Uiso   1.00
H532   H     0.93693   0.43478   0.98878   0.00000  Uiso   1.00
H533   H     0.06337   0.62792   0.01791   0.00000  Uiso   1.00
H534   H     0.03161   0.68311   0.02569   0.00000  Uiso   1.00
H535   H     0.04933   0.49859   0.09491   0.00000  Uiso   1.00
H536   H     0.13241   0.53285   0.00108   0.00000  Uiso   1.00
H537   H     0.15948   0.56170   0.93267   0.00000  Uiso   1.00
H538   H     0.07669   0.53180   0.83650   0.00000  Uiso   1.00
H539   H     0.13012   0.56409   0.80232   0.00000  Uiso   1.00
H540   H     0.19313   0.81401   0.70135   0.00000  Uiso   1.00
H541   H     0.36228   0.68529   0.83734   0.00000  Uiso   1.00
H542   H     0.40981   0.71772   0.87539   0.00000  Uiso   1.00
H543   H     0.32546   0.65900   0.62153   0.00000  Uiso   1.00
H544   H     0.32289   0.58273   0.73850   0.00000  Uiso   1.00
H545   H     0.21945   0.61747   0.71775   0.00000  Uiso   1.00
H546   H     0.28253   0.69372   0.66487   0.00000  Uiso   1.00
C547   C     0.51794   0.59580   0.48690   0.00000  Uiso   1.00
C548   C     0.53553   0.56427   0.49095   0.00000  Uiso   1.00
C549   C     0.51801   0.53214   0.49667   0.00000  Uiso   1.00
C550   C     0.46428   0.37256   0.51775   0.00000  Uiso   1.00
C551   C     0.48218   0.34121   0.52219   0.00000  Uiso   1.00
C552   C     0.42648   0.51428   0.58839   0.00000  Uiso   1.00
C553   C     0.41110   0.51403   0.54117   0.00000  Uiso   1.00
C554   C     0.37961   0.46903   0.46520   0.00000  Uiso   1.00
C555   C     0.36440   0.45178   0.42615   0.00000  Uiso   1.00
C556   C     0.38028   0.45085   0.37979   0.00000  Uiso   1.00
C557   C     0.41088   0.46866   0.37222   0.00000  Uiso   1.00
C558   C     0.36546   0.42960   0.34074   0.00000  Uiso   1.00
C559   C     0.33487   0.23171   0.18542   0.00000  Uiso   1.00
C560   C     0.30738   0.21385   0.20623   0.00000  Uiso   1.00
C561   C     0.28041   0.23164   0.23054   0.00000  Uiso   1.00
C562   C     0.13804   0.28647   0.33679   0.00000  Uiso   1.00
C563   C     0.11106   0.26820   0.35845   0.00000  Uiso   1.00
C564   C     0.29049   0.37310   0.25258   0.00000  Uiso   1.00
C565   C     0.27812   0.34214   0.27362   0.00000  Uiso   1.00
C566   C     0.20820   0.33007   0.18173   0.00000  Uiso   1.00
C567   C     0.18373   0.34962   0.15721   0.00000  Uiso   1.00
C568   C     0.17242   0.38111   0.17711   0.00000  Uiso   1.00
C569   C     0.18487   0.39257   0.22289   0.00000  Uiso   1.00
N570   N     0.15263   0.40302   0.14612   0.00000  Uiso   1.00
H571   H     0.56307   0.56522   0.48878   0.00000  Uiso   1.00
H572   H     0.43663   0.37208   0.51791   0.00000  Uiso   1.00
H573   H     0.46839   0.31689   0.52569   0.00000  Uiso   1.00
H574   H     0.45067   0.50141   0.59491   0.00000  Uiso   1.00
H575   H     0.36759   0.46715   0.50108   0.00000  Uiso   1.00
H576   H     0.34052   0.43830   0.43267   0.00000  Uiso   1.00
H577   H     0.42331   0.46820   0.33650   0.00000  Uiso   1.00
H578   H     0.36988   0.43591   0.30232   0.00000  Uiso   1.00
H579   H     0.30687   0.18599   0.20135   0.00000  Uiso   1.00
H580   H     0.13772   0.31471   0.33734   0.00000  Uiso   1.00
H581   H     0.09019   0.28228   0.37539   0.00000  Uiso   1.00
H582   H     0.17454   0.34100   0.12153   0.00000  Uiso   1.00
H583   H     0.17711   0.41727   0.23850   0.00000  Uiso   1.00
H584   H     0.28055   0.38253   0.21775   0.00000  Uiso   1.00
H585   H     0.21747   0.30628   0.16487   0.00000  Uiso   1.00
C586   C     0.01794   0.09580   0.98690   0.00000  Uiso   1.00
C587   C     0.03553   0.06427   0.99095   0.00000  Uiso   1.00
C588   C     0.01801   0.03214   0.99667   0.00000  Uiso   1.00
C589   C     0.96428   0.87256   0.01775   0.00000  Uiso   1.00
C590   C     0.98218   0.84121   0.02219   0.00000  Uiso   1.00
C591   C     0.92648   0.01428   0.08839   0.00000  Uiso   1.00
C592   C     0.91110   0.01403   0.04117   0.00000  Uiso   1.00
C593   C     0.87961   0.96903   0.96520   0.00000  Uiso   1.00
C594   C     0.86440   0.95178   0.92615   0.00000  Uiso   1.00
C595   C     0.88028   0.95085   0.87979   0.00000  Uiso   1.00
C596   C     0.91088   0.96866   0.87222   0.00000  Uiso   1.00
C597   C     0.86546   0.92960   0.84074   0.00000  Uiso   1.00
C598   C     0.83487   0.73171   0.68542   0.00000  Uiso   1.00
C599   C     0.80738   0.71385   0.70623   0.00000  Uiso   1.00
C600   C     0.78041   0.73164   0.73054   0.00000  Uiso   1.00
C601   C     0.63804   0.78647   0.83679   0.00000  Uiso   1.00
C602   C     0.61106   0.76820   0.85845   0.00000  Uiso   1.00
C603   C     0.79049   0.87310   0.75258   0.00000  Uiso   1.00
C604   C     0.77812   0.84214   0.77362   0.00000  Uiso   1.00
C605   C     0.70820   0.83007   0.68173   0.00000  Uiso   1.00
C606   C     0.68373   0.84962   0.65721   0.00000  Uiso   1.00
C607   C     0.67242   0.88111   0.67711   0.00000  Uiso   1.00
C608   C     0.68487   0.89257   0.72289   0.00000  Uiso   1.00
N609   N     0.65263   0.90302   0.64612   0.00000  Uiso   1.00
H610   H     0.06307   0.06522   0.98878   0.00000  Uiso   1.00
H611   H     0.93663   0.87208   0.01791   0.00000  Uiso   1.00
H612   H     0.96839   0.81689   0.02569   0.00000  Uiso   1.00
H613   H     0.95067   0.00141   0.09491   0.00000  Uiso   1.00
H614   H     0.86759   0.96715   0.00108   0.00000  Uiso   1.00
H615   H     0.84052   0.93830   0.93267   0.00000  Uiso   1.00
H616   H     0.92331   0.96820   0.83650   0.00000  Uiso   1.00
H617   H     0.86988   0.93591   0.80232   0.00000  Uiso   1.00
H618   H     0.80687   0.68599   0.70135   0.00000  Uiso   1.00
H619   H     0.63772   0.81471   0.83734   0.00000  Uiso   1.00
H620   H     0.59019   0.78228   0.87539   0.00000  Uiso   1.00
H621   H     0.67454   0.84100   0.62153   0.00000  Uiso   1.00
H622   H     0.67711   0.91727   0.73850   0.00000  Uiso   1.00
H623   H     0.78055   0.88253   0.71775   0.00000  Uiso   1.00
H624   H     0.71747   0.80628   0.66487   0.00000  Uiso   1.00
C625   C     0.53586   0.50000   0.50000   0.00000  Uiso   1.00
C626   C     0.57164   0.50000   0.50000   0.00000  Uiso   1.00
C627   C     0.03586   0.00000   0.00000   0.00000  Uiso   1.00
C628   C     0.07164   0.00000   0.00000   0.00000  Uiso   1.00
C629   C     0.46414   0.00000   0.50000   0.00000  Uiso   1.00
C630   C     0.42836   0.00000   0.50000   0.00000  Uiso   1.00
C631   C     0.96414   0.50000   0.00000   0.00000  Uiso   1.00
C632   C     0.92836   0.50000   0.00000   0.00000  Uiso   1.00
C633   C     0.46414   0.50000   0.50000   0.00000  Uiso   1.00
C634   C     0.42836   0.50000   0.50000   0.00000  Uiso   1.00
C635   C     0.96414   0.00000   0.00000   0.00000  Uiso   1.00
C636   C     0.92836   0.00000   0.00000   0.00000  Uiso   1.00
C637   C     0.53586   0.00000   0.50000   0.00000  Uiso   1.00
C638   C     0.57164   0.00000   0.50000   0.00000  Uiso   1.00
C639   C     0.03586   0.50000   0.00000   0.00000  Uiso   1.00
C640   C     0.07164   0.50000   0.00000   0.00000  Uiso   1.00
C641   C     0.75000   0.28772   0.25000   0.00000  Uiso   1.00
C642   C     0.75000   0.32280   0.25000   0.00000  Uiso   1.00
C643   C     0.25000   0.21228   0.25000   0.00000  Uiso   1.00
C644   C     0.25000   0.17720   0.25000   0.00000  Uiso   1.00
C645   C     0.25000   0.78772   0.75000   0.00000  Uiso   1.00
C646   C     0.25000   0.82280   0.75000   0.00000  Uiso   1.00
C647   C     0.75000   0.71228   0.75000   0.00000  Uiso   1.00
C648   C     0.75000   0.67720   0.75000   0.00000  Uiso   1.00
C649   C     0.25000   0.71228   0.75000   0.00000  Uiso   1.00
C650   C     0.25000   0.67720   0.75000   0.00000  Uiso   1.00
C651   C     0.75000   0.78772   0.75000   0.00000  Uiso   1.00
C652   C     0.75000   0.82280   0.75000   0.00000  Uiso   1.00
C653   C     0.75000   0.21228   0.25000   0.00000  Uiso   1.00
C654   C     0.75000   0.17720   0.25000   0.00000  Uiso   1.00
C655   C     0.25000   0.28772   0.25000   0.00000  Uiso   1.00
C656   C     0.25000   0.32280   0.25000   0.00000  Uiso   1.00
loop_
_geom_bond_atom_site_label_1
_geom_bond_atom_site_label_2
_geom_bond_distance
_geom_bond_site_symmetry_2
_ccdc_geom_bond_type
C1     C2      1.397   .     D
C1     C547    1.406   .     S
C1     C316    1.405   .     S
C2     C3      1.420   .     S
C2     H25     1.081   .     S
C3     C633    1.421   .     S
C3     C549    1.411   .     D
C4     C5      1.398   .     D
C4     H26     1.084   .     S
C4     C313    1.405   .     S
C5     H27     1.082   .     S
C5     C551    1.396   .     S
C6     C7      1.414   .     S
C6     H28     1.083   .     S
C6     C245    1.393   .     D
C7     C626    1.411   .     S
C7     C242    1.405   .     D
C8     C9      1.383   .     S
C8     H29     1.083   .     S
C8     C241    1.405   .     D
C9     C10     1.402   .     D
C9     H30     1.084   .     S
C10    C11     1.395   .     S
C10    C12     1.456   .     S
C11    H31     1.084   .     S
C11    C240    1.393   .     D
C12    H32     1.083   .     S
C12    N219    1.292   .     D
C13    C14     1.396   .     S
C13    C481    1.404   .     S
C13    C367    1.405   .     D
C14    C15     1.420   .     D
C14    H33     1.077   .     S
C15    C483    1.409   .     S
C15    C653    1.500   .     S
C16    C17     1.398   .     D
C16    H34     1.084   .     S
C16    C364    1.405   .     S
C17    H35     1.082   .     S
C17    C485    1.397   .     S
C18    C19     1.404   .     D
C18    H38     1.083   .     S
C18    C218    1.390   .     S
C19    C642    1.474   .     S
C19    C215    1.402   .     S
C20    C21     1.387   .     S
C20    H39     1.083   .     S
C20    C214    1.402   .     D
C21    C22     1.395   .     D
C21    H36     1.083   .     S
C22    C23     1.403   .     S
C22    N24     1.419   .     S
C23    H37     1.081   .     S
C23    C213    1.390   .     D
N24    C207    1.292   .     D
C40    C41     1.397   .     S
C40    C355    1.405   .     D
C40    C586    1.406   1_655 S
C41    C42     1.420   .     D
C41    H64     1.081   .     S
C42    C635    1.421   1_556 S
C42    C588    1.411   1_655 S
C43    C44     1.398   .     S
C43    H65     1.084   .     S
C43    C352    1.405   .     D
C44    H66     1.082   .     S
C44    C590    1.396   1_455 D
C45    C46     1.414   .     D
C45    H67     1.083   .     S
C45    C284    1.393   .     S
C46    C628    1.411   .     S
C46    C281    1.405   .     S
C47    C48     1.383   .     S
C47    C280    1.405   .     D
C47    H68     1.083   1_556 S
C48    C49     1.402   .     D
C48    H69     1.084   .     S
C49    C50     1.395   .     S
C49    C51     1.456   .     S
C50    H70     1.084   .     S
C50    C279    1.393   .     D
C51    H71     1.083   .     S
C51    N180    1.292   .     D
C52    C53     1.396   .     D
C52    C520    1.404   .     S
C52    C328    1.405   .     S
C53    C54     1.420   .     S
C53    H72     1.077   .     S
C54    C522    1.409   .     D
C54    C649    1.500   .     S
C55    C56     1.398   .     D
C55    H73     1.084   .     S
C55    C325    1.405   .     S
C56    H74     1.082   .     S
C56    C524    1.397   .     S
C57    C58     1.404   .     S
C57    H77     1.083   .     S
C57    C179    1.390   .     D
C58    C646    1.474   .     S
C58    C176    1.402   .     D
C59    C60     1.387   .     D
C59    H78     1.083   .     S
C59    C175    1.402   .     S
C60    C61     1.395   .     S
C60    H75     1.083   .     S
C61    C62     1.403   .     D
C61    N63     1.419   .     S
C62    H76     1.081   .     S
C62    C174    1.390   .     S
N63    C168    1.292   .     D
H68    C47     1.083   1_554 S
C79    C80     1.397   .     S
C79    C469    1.406   .     D
C79    C394    1.405   .     S
C80    C81     1.420   .     D
C80    H103    1.081   .     S
C81    C471    1.411   .     S
C81    C637    1.421   1_565 S
C82    C83     1.398   .     D
C82    H104    1.084   .     S
C82    C391    1.405   .     S
C83    H105    1.082   .     S
C83    C473    1.396   .     S
C84    C85     1.414   .     D
C84    H106    1.083   .     S
C84    C167    1.393   .     S
C85    C164    1.405   .     S
C85    C630    1.411   1_565 S
C86    C87     1.383   .     D
C86    H107    1.083   .     S
C86    C163    1.405   .     S
C87    C88     1.402   .     S
C87    H108    1.084   .     S
C88    C89     1.395   .     D
C88    C90     1.456   .     S
C89    H109    1.084   .     S
C89    C162    1.393   .     S
C90    H110    1.083   .     S
C90    N297    1.292   .     D
C91    C92     1.396   .     D
C91    C559    1.404   .     S
C91    C445    1.405   .     S
C92    C93     1.420   .     S
C92    H111    1.077   .     S
C93    C561    1.409   .     D
C93    C655    1.500   .     S
C94    C95     1.398   .     D
C94    H112    1.084   .     S
C94    C442    1.405   .     S
C95    H113    1.082   .     S
C95    C563    1.397   .     S
C96    C97     1.404   .     S
C96    H116    1.083   .     S
C96    C296    1.390   .     D
C97    C644    1.474   .     S
C97    C293    1.402   .     D
C98    C99     1.387   .     S
C98    H117    1.083   .     S
C98    C292    1.402   .     D
C99    C100    1.395   .     D
C99    H114    1.083   .     S
C100   C101    1.403   .     S
C100   N102    1.419   .     S
C101   H115    1.081   .     S
C101   C291    1.390   .     D
N102   C285    1.292   .     D
C118   C119    1.397   .     S
C118   C433    1.405   .     D
C118   C508    1.406   1_455 S
C119   C120    1.420   .     D
C119   H142    1.081   .     S
C120   C639    1.421   1_556 S
C120   C510    1.411   1_455 S
C121   C122    1.398   .     S
C121   H143    1.084   .     S
C121   C430    1.405   .     D
C122   H144    1.082   .     S
C122   C512    1.396   1_655 D
C123   C124    1.414   .     S
C123   H145    1.083   .     S
C123   C206    1.393   .     D
C124   C632    1.411   .     S
C124   C203    1.405   .     D
C125   C126    1.383   .     S
C125   C202    1.405   .     D
C125   H146    1.083   1_556 S
C126   C127    1.402   .     D
C126   H147    1.084   .     S
C127   C128    1.395   .     S
C127   C129    1.456   .     S
C128   H148    1.084   .     S
C128   C201    1.393   .     D
C129   H149    1.083   .     S
C129   N258    1.292   .     D
C130   C131    1.396   .     S
C130   C598    1.404   .     S
C130   C406    1.405   .     D
C131   C132    1.420   .     D
C131   H150    1.077   .     S
C132   C600    1.409   .     S
C132   C651    1.500   .     S
C133   C134    1.398   .     D
C133   H151    1.084   .     S
C133   C403    1.405   .     S
C134   H152    1.082   .     S
C134   C602    1.397   .     S
C135   C136    1.404   .     D
C135   H155    1.083   .     S
C135   C257    1.390   .     S
C136   C648    1.474   .     S
C136   C254    1.402   .     S
C137   C138    1.387   .     S
C137   H156    1.083   .     S
C137   C253    1.402   .     D
C138   C139    1.395   .     D
C138   H153    1.083   .     S
C139   C140    1.403   .     S
C139   N141    1.419   .     S
C140   H154    1.081   .     S
C140   C252    1.390   .     D
N141   C246    1.292   .     D
H146   C125    1.083   1_554 S
C157   C158    1.397   .     D
C157   C391    1.406   .     S
C157   C472    1.405   .     S
C158   C159    1.420   .     S
C158   H181    1.081   .     S
C159   C637    1.421   .     S
C159   C393    1.411   .     D
C160   C161    1.398   .     D
C160   H182    1.084   .     S
C160   C469    1.405   .     S
C161   H183    1.082   .     S
C161   C395    1.396   .     S
C162   C163    1.414   .     D
C162   H184    1.083   .     S
C163   C630    1.411   .     S
C164   C165    1.383   .     D
C164   H185    1.083   .     S
C165   C166    1.402   .     S
C165   H186    1.084   .     S
C166   C167    1.395   .     D
C166   C168    1.456   .     S
C167   H187    1.084   .     S
C168   H188    1.083   .     S
C169   C170    1.396   .     S
C169   C325    1.404   .     D
C169   C523    1.405   .     S
C170   C171    1.420   .     D
C170   H189    1.077   .     S
C171   C327    1.409   .     S
C171   C649    1.500   .     S
C172   C173    1.398   .     D
C172   H190    1.084   .     S
C172   C520    1.405   .     S
C173   H191    1.082   .     S
C173   C329    1.397   .     S
C174   C175    1.404   .     D
C174   H194    1.083   .     S
C175   C646    1.474   .     S
C176   C177    1.387   .     S
C176   H195    1.083   .     S
C177   C178    1.395   .     D
C177   H192    1.083   .     S
C178   C179    1.403   .     S
C178   N180    1.419   .     S
C179   H193    1.081   .     S
C196   C197    1.397   .     S
C196   C511    1.405   .     D
C196   C430    1.406   1_455 S
C197   C198    1.420   .     D
C197   H220    1.081   .     S
C198   C639    1.421   .     S
C198   C432    1.411   1_455 S
C199   C200    1.398   .     S
C199   H221    1.084   .     S
C199   C508    1.405   .     D
C200   H222    1.082   .     S
C200   C434    1.396   1_655 D
C201   C202    1.414   .     S
C201   H223    1.083   .     S
C202   C632    1.411   1_556 S
C203   C204    1.383   .     S
C203   H224    1.083   1_554 S
C204   C205    1.402   .     D
C204   H225    1.084   .     S
C205   C206    1.395   .     S
C205   C207    1.456   .     S
C206   H226    1.084   .     S
C207   H227    1.083   .     S
C208   C209    1.396   .     S
C208   C364    1.404   .     D
C208   C484    1.405   .     S
C209   C210    1.420   .     D
C209   H228    1.077   .     S
C210   C366    1.409   .     S
C210   C653    1.500   .     S
C211   C212    1.398   .     S
C211   H229    1.084   .     S
C211   C481    1.405   .     D
C212   H230    1.082   .     S
C212   C368    1.397   .     D
C213   C214    1.404   .     S
C213   H233    1.083   .     S
C214   C642    1.474   .     S
C215   C216    1.387   .     D
C215   H234    1.083   .     S
C216   C217    1.395   .     S
C216   H231    1.083   .     S
C217   C218    1.403   .     D
C217   N219    1.419   .     S
C218   H232    1.081   .     S
H224   C203    1.083   1_556 S
C235   C236    1.397   .     D
C235   C313    1.406   .     S
C235   C550    1.405   .     S
C236   C237    1.420   .     S
C236   H259    1.081   .     S
C237   C633    1.421   .     S
C237   C315    1.411   .     D
C238   C239    1.398   .     D
C238   H260    1.084   .     S
C238   C547    1.405   .     S
C239   H261    1.082   .     S
C239   C317    1.396   .     S
C240   C241    1.414   .     S
C240   H262    1.083   .     S
C241   C626    1.411   .     S
C242   C243    1.383   .     S
C242   H263    1.083   .     S
C243   C244    1.402   .     D
C243   H264    1.084   .     S
C244   C245    1.395   .     S
C244   C246    1.456   .     S
C245   H265    1.084   .     S
C246   H266    1.083   .     S
C247   C248    1.396   .     S
C247   C403    1.404   .     D
C247   C601    1.405   .     S
C248   C249    1.420   .     D
C248   H267    1.077   .     S
C249   C405    1.409   .     S
C249   C651    1.500   .     S
C250   C251    1.398   .     S
C250   H268    1.084   .     S
C250   C598    1.405   .     D
C251   H269    1.082   .     S
C251   C407    1.397   .     D
C252   C253    1.404   .     S
C252   H272    1.083   .     S
C253   C648    1.474   .     S
C254   C255    1.387   .     D
C254   H273    1.083   .     S
C255   C256    1.395   .     S
C255   H270    1.083   .     S
C256   C257    1.403   .     D
C256   N258    1.419   .     S
C257   H271    1.081   .     S
C274   C275    1.397   .     S
C274   C589    1.405   .     D
C274   C352    1.406   1_655 S
C275   C276    1.420   .     D
C275   H298    1.081   .     S
C276   C635    1.421   1_565 S
C276   C354    1.411   1_655 S
C277   C278    1.398   .     S
C277   H299    1.084   .     S
C277   C586    1.405   .     D
C278   H300    1.082   .     S
C278   C356    1.396   1_455 D
C279   C280    1.414   .     S
C279   H301    1.083   .     S
C280   C628    1.411   1_566 S
C281   C282    1.383   .     D
C281   H302    1.083   1_554 S
C282   C283    1.402   .     S
C282   H303    1.084   .     S
C283   C284    1.395   .     D
C283   C285    1.456   .     S
C284   H304    1.084   .     S
C285   H305    1.083   .     S
C286   C287    1.396   .     S
C286   C442    1.404   .     D
C286   C562    1.405   .     S
C287   C288    1.420   .     D
C287   H306    1.077   .     S
C288   C444    1.409   .     S
C288   C655    1.500   .     S
C289   C290    1.398   .     D
C289   H307    1.084   .     S
C289   C559    1.405   .     S
C290   H308    1.082   .     S
C290   C446    1.397   .     S
C291   C292    1.404   .     S
C291   H311    1.083   .     S
C292   C644    1.474   .     S
C293   C294    1.387   .     S
C293   H312    1.083   .     S
C294   C295    1.395   .     D
C294   H309    1.083   .     S
C295   C296    1.403   .     S
C295   N297    1.419   .     S
C296   H310    1.081   .     S
H302   C281    1.083   1_556 S
C313   C314    1.397   .     D
C314   C315    1.420   .     S
C314   H337    1.081   .     S
C315   C625    1.421   .     S
C316   C317    1.398   .     D
C316   H338    1.084   .     S
C317   H339    1.082   .     S
C318   C319    1.414   .     S
C318   H340    1.083   .     S
C318   C557    1.393   .     D
C319   C634    1.411   .     S
C319   C554    1.405   .     D
C320   C321    1.383   .     S
C320   H341    1.083   .     S
C320   C553    1.405   .     D
C321   C322    1.402   .     D
C321   H342    1.084   .     S
C322   C323    1.395   .     S
C322   C324    1.456   .     S
C323   H343    1.084   .     S
C323   C552    1.393   .     D
C324   H344    1.083   .     S
C324   N531    1.292   .     D
C325   C326    1.396   .     S
C326   C327    1.420   .     D
C326   H345    1.077   .     S
C327   C645    1.500   .     S
C328   C329    1.398   .     D
C328   H346    1.084   .     S
C329   H347    1.082   .     S
C330   C331    1.404   .     D
C330   H350    1.083   .     S
C330   C530    1.390   .     S
C331   C650    1.474   .     S
C331   C527    1.402   .     S
C332   C333    1.387   .     S
C332   H351    1.083   .     S
C332   C526    1.402   .     D
C333   C334    1.395   .     D
C333   H348    1.083   .     S
C334   C335    1.403   .     S
C334   N336    1.419   .     S
C335   H349    1.081   .     S
C335   C525    1.390   .     D
N336   C519    1.292   .     D
C352   C353    1.397   .     S
C352   C274    1.406   1_455 S
C353   C354    1.420   .     D
C353   H376    1.081   .     S
C354   C276    1.411   1_455 S
C354   C627    1.421   1_565 S
C355   C356    1.398   .     S
C355   H377    1.084   .     S
C356   H378    1.082   .     S
C356   C278    1.396   1_655 D
C357   C358    1.414   .     D
C357   H379    1.083   .     S
C357   C596    1.393   .     S
C358   C593    1.405   .     S
C358   C636    1.411   1_566 S
C359   C360    1.383   .     S
C359   C592    1.405   .     D
C359   H380    1.083   1_554 S
C360   C361    1.402   .     D
C360   H381    1.084   .     S
C361   C362    1.395   .     S
C361   C363    1.456   .     S
C362   H382    1.084   .     S
C362   C591    1.393   .     D
C363   H383    1.083   .     S
C363   N492    1.292   .     D
C364   C365    1.396   .     S
C365   C366    1.420   .     D
C365   H384    1.077   .     S
C366   C641    1.500   .     S
C367   C368    1.398   .     S
C367   H385    1.084   .     S
C368   H386    1.082   .     S
C369   C370    1.404   .     S
C369   H389    1.083   .     S
C369   C491    1.390   .     D
C370   C654    1.474   .     S
C370   C488    1.402   .     D
C371   C372    1.387   .     D
C371   H390    1.083   .     S
C371   C487    1.402   .     S
C372   C373    1.395   .     S
C372   H387    1.083   .     S
C373   C374    1.403   .     D
C373   N375    1.419   .     S
C374   H388    1.081   .     S
C374   C486    1.390   .     S
N375   C480    1.292   .     D
H380   C359    1.083   1_556 S
C391   C392    1.397   .     D
C392   C393    1.420   .     S
C392   H415    1.081   .     S
C393   C629    1.421   .     S
C394   C395    1.398   .     D
C394   H416    1.084   .     S
C395   H417    1.082   .     S
C396   C397    1.414   .     D
C396   H418    1.083   .     S
C396   C479    1.393   .     S
C397   C638    1.411   .     S
C397   C476    1.405   .     S
C398   C399    1.383   .     D
C398   H419    1.083   .     S
C398   C475    1.405   .     S
C399   C400    1.402   .     S
C399   H420    1.084   .     S
C400   C401    1.395   .     D
C400   C402    1.456   .     S
C401   H421    1.084   .     S
C401   C474    1.393   .     S
C402   H422    1.083   .     S
C402   N609    1.292   .     D
C403   C404    1.396   .     S
C404   C405    1.420   .     D
C404   H423    1.077   .     S
C405   C647    1.500   .     S
C406   C407    1.398   .     S
C406   H424    1.084   .     S
C407   H425    1.082   .     S
C408   C409    1.404   .     S
C408   H428    1.083   .     S
C408   C608    1.390   .     D
C409   C652    1.474   .     S
C409   C605    1.402   .     D
C410   C411    1.387   .     S
C410   H429    1.083   .     S
C410   C604    1.402   .     D
C411   C412    1.395   .     D
C411   H426    1.083   .     S
C412   C413    1.403   .     S
C412   N414    1.419   .     S
C413   H427    1.081   .     S
C413   C603    1.390   .     D
N414   C597    1.292   .     D
C430   C431    1.397   .     S
C430   C196    1.406   1_655 S
C431   C432    1.420   .     D
C431   H454    1.081   .     S
C432   C631    1.421   .     S
C432   C198    1.411   1_655 S
C433   C434    1.398   .     S
C433   H455    1.084   .     S
C434   H456    1.082   .     S
C434   C200    1.396   1_455 D
C435   C436    1.414   .     S
C435   H457    1.083   .     S
C435   C518    1.393   .     D
C436   C515    1.405   .     D
C436   C640    1.411   1_556 S
C437   C438    1.383   .     S
C437   C514    1.405   .     D
C437   H458    1.083   1_554 S
C438   C439    1.402   .     D
C438   H459    1.084   .     S
C439   C440    1.395   .     S
C439   C441    1.456   .     S
C440   H460    1.084   .     S
C440   C513    1.393   .     D
C441   H461    1.083   .     S
C441   N570    1.292   .     D
C442   C443    1.396   .     S
C443   C444    1.420   .     D
C443   H462    1.077   .     S
C444   C643    1.500   .     S
C445   C446    1.398   .     D
C445   H463    1.084   .     S
C446   H464    1.082   .     S
C447   C448    1.404   .     D
C447   H467    1.083   .     S
C447   C569    1.390   .     S
C448   C656    1.474   .     S
C448   C566    1.402   .     S
C449   C450    1.387   .     S
C449   H468    1.083   .     S
C449   C565    1.402   .     D
C450   C451    1.395   .     D
C450   H465    1.083   .     S
C451   C452    1.403   .     S
C451   N453    1.419   .     S
C452   H466    1.081   .     S
C452   C564    1.390   .     D
N453   C558    1.292   .     D
H458   C437    1.083   1_556 S
C469   C470    1.397   .     S
C470   C471    1.420   .     D
C470   H493    1.081   .     S
C471   C629    1.421   1_565 S
C472   C473    1.398   .     D
C472   H494    1.084   .     S
C473   H495    1.082   .     S
C474   C475    1.414   .     D
C474   H496    1.083   .     S
C475   C638    1.411   1_565 S
C476   C477    1.383   .     D
C476   H497    1.083   .     S
C477   C478    1.402   .     S
C477   H498    1.084   .     S
C478   C479    1.395   .     D
C478   C480    1.456   .     S
C479   H499    1.084   .     S
C480   H500    1.083   .     S
C481   C482    1.396   .     S
C482   C483    1.420   .     D
C482   H501    1.077   .     S
C483   C641    1.500   .     S
C484   C485    1.398   .     D
C484   H502    1.084   .     S
C485   H503    1.082   .     S
C486   C487    1.404   .     D
C486   H506    1.083   .     S
C487   C654    1.474   .     S
C488   C489    1.387   .     S
C488   H507    1.083   .     S
C489   C490    1.395   .     D
C489   H504    1.083   .     S
C490   C491    1.403   .     S
C490   N492    1.419   .     S
C491   H505    1.081   .     S
C508   C509    1.397   .     S
C508   C118    1.406   1_655 S
C509   C510    1.420   .     D
C509   H532    1.081   .     S
C510   C120    1.411   1_655 S
C510   C631    1.421   1_556 S
C511   C512    1.398   .     S
C511   H533    1.084   .     S
C512   H534    1.082   .     S
C512   C122    1.396   1_455 D
C513   C514    1.414   .     S
C513   H535    1.083   .     S
C514   C640    1.411   .     S
C515   C516    1.383   .     S
C515   H536    1.083   1_556 S
C516   C517    1.402   .     D
C516   H537    1.084   .     S
C517   C518    1.395   .     S
C517   C519    1.456   .     S
C518   H538    1.084   .     S
C519   H539    1.083   .     S
C520   C521    1.396   .     D
C521   C522    1.420   .     S
C521   H540    1.077   .     S
C522   C645    1.500   .     S
C523   C524    1.398   .     D
C523   H541    1.084   .     S
C524   H542    1.082   .     S
C525   C526    1.404   .     S
C525   H545    1.083   .     S
C526   C650    1.474   .     S
C527   C528    1.387   .     D
C527   H546    1.083   .     S
C528   C529    1.395   .     S
C528   H543    1.083   .     S
C529   C530    1.403   .     D
C529   N531    1.419   .     S
C530   H544    1.081   .     S
H536   C515    1.083   1_554 S
C547   C548    1.397   .     D
C548   C549    1.420   .     S
C548   H571    1.081   .     S
C549   C625    1.421   .     S
C550   C551    1.398   .     D
C550   H572    1.084   .     S
C551   H573    1.082   .     S
C552   C553    1.414   .     S
C552   H574    1.083   .     S
C553   C634    1.411   .     S
C554   C555    1.383   .     S
C554   H575    1.083   .     S
C555   C556    1.402   .     D
C555   H576    1.084   .     S
C556   C557    1.395   .     S
C556   C558    1.456   .     S
C557   H577    1.084   .     S
C558   H578    1.083   .     S
C559   C560    1.396   .     D
C560   C561    1.420   .     S
C560   H579    1.077   .     S
C561   C643    1.500   .     S
C562   C563    1.398   .     D
C562   H580    1.084   .     S
C563   H581    1.082   .     S
C564   C565    1.404   .     S
C564   H584    1.083   .     S
C565   C656    1.474   .     S
C566   C567    1.387   .     D
C566   H585    1.083   .     S
C567   C568    1.395   .     S
C567   H582    1.083   .     S
C568   C569    1.403   .     D
C568   N570    1.419   .     S
C569   H583    1.081   .     S
C586   C587    1.397   .     S
C586   C40     1.406   1_455 S
C587   C588    1.420   .     D
C587   H610    1.081   .     S
C588   C42     1.411   1_455 S
C588   C627    1.421   1_556 S
C589   C590    1.398   .     S
C589   H611    1.084   .     S
C590   H612    1.082   .     S
C590   C44     1.396   1_655 D
C591   C592    1.414   .     S
C591   H613    1.083   .     S
C592   C636    1.411   .     S
C593   C594    1.383   .     D
C593   H614    1.083   1_556 S
C594   C595    1.402   .     S
C594   H615    1.084   .     S
C595   C596    1.395   .     D
C595   C597    1.456   .     S
C596   H616    1.084   .     S
C597   H617    1.083   .     S
C598   C599    1.396   .     S
C599   C600    1.420   .     D
C599   H618    1.077   .     S
C600   C647    1.500   .     S
C601   C602    1.398   .     D
C601   H619    1.084   .     S
C602   H620    1.082   .     S
C603   C604    1.404   .     S
C603   H623    1.083   .     S
C604   C652    1.474   .     S
C605   C606    1.387   .     S
C605   H624    1.083   .     S
C606   C607    1.395   .     D
C606   H621    1.083   .     S
C607   C608    1.403   .     S
C607   N609    1.419   .     S
C608   H622    1.081   .     S
H614   C593    1.083   1_554 S
C625   C626    1.402   .     D
C627   C628    1.402   .     D
C627   C354    1.421   1_545 S
C627   C588    1.421   1_554 S
C628   C280    1.411   1_544 S
C629   C630    1.402   .     D
C629   C471    1.421   1_545 S
C630   C85     1.411   1_545 S
C631   C632    1.402   .     D
C631   C510    1.421   1_554 S
C632   C202    1.411   1_554 S
C633   C634    1.402   .     D
C635   C636    1.402   .     D
C635   C42     1.421   1_554 S
C635   C276    1.421   1_545 S
C636   C358    1.411   1_544 S
C637   C638    1.402   .     D
C637   C81     1.421   1_545 S
C638   C475    1.411   1_545 S
C639   C640    1.402   .     D
C639   C120    1.421   1_554 S
C640   C436    1.411   1_554 S
C641   C642    1.346   .     D
C643   C644    1.346   .     D
C645   C646    1.346   .     D
C647   C648    1.346   .     D
C649   C650    1.346   .     D
C651   C652    1.346   .     D
C653   C654    1.346   .     D
C655   C656    1.346   .     D
