data_880
_audit_creation_date              2023-09-08
_audit_creation_method            'Materials Studio'
_symmetry_space_group_name_H-M    'P1'
_symmetry_Int_Tables_number       1
_symmetry_cell_setting            triclinic
loop_
_symmetry_equiv_pos_as_xyz
  x,y,z
_cell_length_a                    39.2900
_cell_length_b                    39.2900
_cell_length_c                    9.3180
_cell_angle_alpha                 90.0000
_cell_angle_beta                  90.0000
_cell_angle_gamma                 120.0000
loop_
_atom_site_label
_atom_site_type_symbol
_atom_site_fract_x
_atom_site_fract_y
_atom_site_fract_z
_atom_site_U_iso_or_equiv
_atom_site_adp_type
_atom_site_occupancy
C1     C     0.91411   0.24184   0.39179   0.00000  Uiso   1.00
C2     C     0.93619   0.28600   0.35542   0.00000  Uiso   1.00
C3     C     0.92402   0.29292   0.20504   0.00000  Uiso   1.00
C4     C     0.98081   0.30220   0.36506   0.00000  Uiso   1.00
C5     C     0.94118   0.33652   0.16928   0.00000  Uiso   1.00
C6     C     0.79304   0.10428   0.42979   0.00000  Uiso   1.00
C7     C     0.77990   0.13081   0.39467   0.00000  Uiso   1.00
C8     C     0.79095   0.19857   0.35562   0.00000  Uiso   1.00
C9     C     0.80623   0.17154   0.38677   0.00000  Uiso   1.00
O10    O     0.80949   0.22681   0.27685   0.00000  Uiso   1.00
N11    N     0.75670   0.19259   0.41696   0.00000  Uiso   1.00
N12    N     0.74367   0.21968   0.39548   0.00000  Uiso   1.00
C13    C     0.71250   0.21577   0.45905   0.00000  Uiso   1.00
O14    O     0.76746   0.06319   0.44062   0.00000  Uiso   1.00
H15    H     0.92392   0.23753   0.49884   0.00000  Uiso   1.00
H16    H     0.92110   0.22581   0.30882   0.00000  Uiso   1.00
H17    H     0.92802   0.30139   0.43703   0.00000  Uiso   1.00
H18    H     0.89145   0.27891   0.19977   0.00000  Uiso   1.00
H19    H     0.93312   0.27888   0.12143   0.00000  Uiso   1.00
H20    H     0.99069   0.28931   0.27973   0.00000  Uiso   1.00
H21    H     0.98860   0.29507   0.47098   0.00000  Uiso   1.00
H22    H     0.99716   0.33473   0.35472   0.00000  Uiso   1.00
H23    H     0.97351   0.35110   0.15394   0.00000  Uiso   1.00
H24    H     0.93440   0.35165   0.25594   0.00000  Uiso   1.00
H25    H     0.92803   0.33938   0.06766   0.00000  Uiso   1.00
C26    C     0.67725   0.30296   0.42201   0.00000  Uiso   1.00
C27    C     0.72024   0.27790   0.34961   0.00000  Uiso   1.00
C28    C     0.70884   0.30637   0.33980   0.00000  Uiso   1.00
C29    C     0.65690   0.27020   0.51253   0.00000  Uiso   1.00
C30    C     0.66818   0.24168   0.52195   0.00000  Uiso   1.00
C31    C     0.70013   0.24542   0.44173   0.00000  Uiso   1.00
H32    H     0.74916   0.12013   0.37258   0.00000  Uiso   1.00
H33    H     0.74129   0.16894   0.48724   0.00000  Uiso   1.00
H34    H     0.69582   0.19099   0.53017   0.00000  Uiso   1.00
H35    H     0.74495   0.28151   0.28612   0.00000  Uiso   1.00
H36    H     0.72479   0.33126   0.26877   0.00000  Uiso   1.00
H37    H     0.63274   0.26711   0.57814   0.00000  Uiso   1.00
H38    H     0.65231   0.21696   0.59389   0.00000  Uiso   1.00
C39    C     0.72874   0.04643   0.38131   0.00000  Uiso   1.00
C40    C     0.70770   0.00123   0.39070   0.00000  Uiso   1.00
C41    C     0.73033   0.98506   0.30474   0.00000  Uiso   1.00
C42    C     0.66508   0.98361   0.33748   0.00000  Uiso   1.00
C43    C     0.71419   0.94102   0.32832   0.00000  Uiso   1.00
C44    C     0.84678   0.18635   0.40922   0.00000  Uiso   1.00
C45    C     0.85973   0.15992   0.44775   0.00000  Uiso   1.00
C46    C     0.84837   0.09285   0.50127   0.00000  Uiso   1.00
C47    C     0.83325   0.11938   0.46022   0.00000  Uiso   1.00
O48    O     0.83530   0.06091   0.44259   0.00000  Uiso   1.00
N49    N     0.87711   0.10398   0.60320   0.00000  Uiso   1.00
N50    N     0.89360   0.08018   0.63243   0.00000  Uiso   1.00
C51    C     0.92213   0.09053   0.72334   0.00000  Uiso   1.00
O52    O     0.87261   0.22733   0.39549   0.00000  Uiso   1.00
H53    H     0.71151   0.05683   0.44372   0.00000  Uiso   1.00
H54    H     0.73043   0.05536   0.26692   0.00000  Uiso   1.00
H55    H     0.70695   0.99325   0.50562   0.00000  Uiso   1.00
H56    H     0.76168   0.00055   0.33868   0.00000  Uiso   1.00
H57    H     0.72965   0.99077   0.18829   0.00000  Uiso   1.00
H58    H     0.66442   0.98903   0.22077   0.00000  Uiso   1.00
H59    H     0.64996   0.99699   0.39577   0.00000  Uiso   1.00
H60    H     0.64812   0.95145   0.35774   0.00000  Uiso   1.00
H61    H     0.68458   0.92344   0.27946   0.00000  Uiso   1.00
H62    H     0.71255   0.93430   0.44476   0.00000  Uiso   1.00
H63    H     0.73406   0.93218   0.27635   0.00000  Uiso   1.00
C64    C     0.97880   0.02154   0.77019   0.00000  Uiso   1.00
C65    C     0.92432   0.02859   0.68053   0.00000  Uiso   1.00
C66    C     0.94354   0.00690   0.69210   0.00000  Uiso   1.00
C67    C     0.99385   0.05827   0.83847   0.00000  Uiso   1.00
C68    C     0.97488   0.08025   0.82543   0.00000  Uiso   1.00
C69    C     0.94025   0.06582   0.74476   0.00000  Uiso   1.00
H70    H     0.89059   0.17052   0.46715   0.00000  Uiso   1.00
H71    H     0.88714   0.13048   0.65867   0.00000  Uiso   1.00
H72    H     0.93407   0.11844   0.77921   0.00000  Uiso   1.00
H73    H     0.89744   0.01657   0.61853   0.00000  Uiso   1.00
H74    H     0.93124   0.97900   0.63663   0.00000  Uiso   1.00
H75    H     0.02096   0.07042   0.89889   0.00000  Uiso   1.00
H76    H     0.98774   0.10895   0.87556   0.00000  Uiso   1.00
C77    C     0.75816   0.67227   0.39179   0.00000  Uiso   1.00
C78    C     0.71400   0.65019   0.35542   0.00000  Uiso   1.00
C79    C     0.70708   0.63110   0.20504   0.00000  Uiso   1.00
C80    C     0.69780   0.67861   0.36506   0.00000  Uiso   1.00
C81    C     0.66348   0.60466   0.16928   0.00000  Uiso   1.00
C82    C     0.89572   0.68876   0.42979   0.00000  Uiso   1.00
C83    C     0.86919   0.64909   0.39467   0.00000  Uiso   1.00
C84    C     0.80143   0.59238   0.35562   0.00000  Uiso   1.00
C85    C     0.82846   0.63469   0.38677   0.00000  Uiso   1.00
O86    O     0.77319   0.58268   0.27685   0.00000  Uiso   1.00
N87    N     0.80741   0.56411   0.41696   0.00000  Uiso   1.00
N88    N     0.78032   0.52399   0.39548   0.00000  Uiso   1.00
C89    C     0.78423   0.49673   0.45905   0.00000  Uiso   1.00
O90    O     0.93681   0.70427   0.44062   0.00000  Uiso   1.00
H91    H     0.76247   0.68639   0.49884   0.00000  Uiso   1.00
H92    H     0.77419   0.69529   0.30882   0.00000  Uiso   1.00
H93    H     0.69861   0.62663   0.43703   0.00000  Uiso   1.00
H94    H     0.72109   0.61254   0.19977   0.00000  Uiso   1.00
H95    H     0.72112   0.65424   0.12143   0.00000  Uiso   1.00
H96    H     0.71069   0.70138   0.27973   0.00000  Uiso   1.00
H97    H     0.70493   0.69353   0.47098   0.00000  Uiso   1.00
H98    H     0.66527   0.66243   0.35472   0.00000  Uiso   1.00
H99    H     0.64890   0.62241   0.15394   0.00000  Uiso   1.00
H100   H     0.64835   0.58275   0.25594   0.00000  Uiso   1.00
H101   H     0.66062   0.58865   0.06766   0.00000  Uiso   1.00
C102   C     0.69704   0.37429   0.42201   0.00000  Uiso   1.00
C103   C     0.72210   0.44234   0.34961   0.00000  Uiso   1.00
C104   C     0.69363   0.40247   0.33980   0.00000  Uiso   1.00
C105   C     0.72980   0.38670   0.51253   0.00000  Uiso   1.00
C106   C     0.75832   0.42650   0.52195   0.00000  Uiso   1.00
C107   C     0.75458   0.45471   0.44173   0.00000  Uiso   1.00
H108   H     0.87987   0.62903   0.37258   0.00000  Uiso   1.00
H109   H     0.83106   0.57235   0.48724   0.00000  Uiso   1.00
H110   H     0.80901   0.50483   0.53017   0.00000  Uiso   1.00
H111   H     0.71849   0.46344   0.28612   0.00000  Uiso   1.00
H112   H     0.66874   0.39353   0.26877   0.00000  Uiso   1.00
H113   H     0.73289   0.36563   0.57814   0.00000  Uiso   1.00
H114   H     0.78304   0.43535   0.59389   0.00000  Uiso   1.00
C115   C     0.95357   0.68231   0.38131   0.00000  Uiso   1.00
C116   C     0.99877   0.70647   0.39070   0.00000  Uiso   1.00
C117   C     0.01494   0.74527   0.30474   0.00000  Uiso   1.00
C118   C     0.01639   0.68147   0.33748   0.00000  Uiso   1.00
C119   C     0.05898   0.77317   0.32832   0.00000  Uiso   1.00
C120   C     0.81365   0.66043   0.40922   0.00000  Uiso   1.00
C121   C     0.84008   0.69981   0.44775   0.00000  Uiso   1.00
C122   C     0.90715   0.75552   0.50127   0.00000  Uiso   1.00
C123   C     0.88062   0.71387   0.46022   0.00000  Uiso   1.00
O124   O     0.93909   0.77439   0.44259   0.00000  Uiso   1.00
N125   N     0.89602   0.77313   0.60320   0.00000  Uiso   1.00
N126   N     0.91982   0.81342   0.63243   0.00000  Uiso   1.00
C127   C     0.90947   0.83160   0.72334   0.00000  Uiso   1.00
O128   O     0.77267   0.64528   0.39549   0.00000  Uiso   1.00
H129   H     0.94317   0.65468   0.44372   0.00000  Uiso   1.00
H130   H     0.94464   0.67507   0.26692   0.00000  Uiso   1.00
H131   H     0.00675   0.71370   0.50562   0.00000  Uiso   1.00
H132   H     0.99945   0.76113   0.33868   0.00000  Uiso   1.00
H133   H     0.00923   0.73888   0.18829   0.00000  Uiso   1.00
H134   H     0.01097   0.67539   0.22077   0.00000  Uiso   1.00
H135   H     0.00301   0.65297   0.39577   0.00000  Uiso   1.00
H136   H     0.04855   0.69667   0.35774   0.00000  Uiso   1.00
H137   H     0.07656   0.76114   0.27946   0.00000  Uiso   1.00
H138   H     0.06570   0.77825   0.44476   0.00000  Uiso   1.00
H139   H     0.06782   0.80188   0.27635   0.00000  Uiso   1.00
C140   C     0.97846   0.95726   0.77019   0.00000  Uiso   1.00
C141   C     0.97141   0.89573   0.68053   0.00000  Uiso   1.00
C142   C     0.99310   0.93664   0.69210   0.00000  Uiso   1.00
C143   C     0.94173   0.93558   0.83847   0.00000  Uiso   1.00
C144   C     0.91975   0.89463   0.82543   0.00000  Uiso   1.00
C145   C     0.93418   0.87443   0.74476   0.00000  Uiso   1.00
H146   H     0.82948   0.72007   0.46715   0.00000  Uiso   1.00
H147   H     0.86952   0.75666   0.65867   0.00000  Uiso   1.00
H148   H     0.88156   0.81563   0.77921   0.00000  Uiso   1.00
H149   H     0.98343   0.88087   0.61853   0.00000  Uiso   1.00
H150   H     0.02100   0.95224   0.63663   0.00000  Uiso   1.00
H151   H     0.92958   0.95054   0.89889   0.00000  Uiso   1.00
H152   H     0.89105   0.87879   0.87556   0.00000  Uiso   1.00
C153   C     0.32773   0.08589   0.39179   0.00000  Uiso   1.00
C154   C     0.34981   0.06381   0.35542   0.00000  Uiso   1.00
C155   C     0.36890   0.07598   0.20504   0.00000  Uiso   1.00
C156   C     0.32139   0.01919   0.36506   0.00000  Uiso   1.00
C157   C     0.39534   0.05882   0.16928   0.00000  Uiso   1.00
C158   C     0.31124   0.20696   0.42979   0.00000  Uiso   1.00
C159   C     0.35091   0.22010   0.39467   0.00000  Uiso   1.00
C160   C     0.40762   0.20905   0.35562   0.00000  Uiso   1.00
C161   C     0.36531   0.19377   0.38677   0.00000  Uiso   1.00
O162   O     0.41732   0.19051   0.27685   0.00000  Uiso   1.00
N163   N     0.43589   0.24330   0.41696   0.00000  Uiso   1.00
N164   N     0.47601   0.25633   0.39548   0.00000  Uiso   1.00
C165   C     0.50327   0.28750   0.45905   0.00000  Uiso   1.00
O166   O     0.29573   0.23254   0.44062   0.00000  Uiso   1.00
H167   H     0.31361   0.07608   0.49884   0.00000  Uiso   1.00
H168   H     0.30471   0.07890   0.30882   0.00000  Uiso   1.00
H169   H     0.37337   0.07198   0.43703   0.00000  Uiso   1.00
H170   H     0.38746   0.10855   0.19977   0.00000  Uiso   1.00
H171   H     0.34576   0.06688   0.12143   0.00000  Uiso   1.00
H172   H     0.29862   0.00931   0.27973   0.00000  Uiso   1.00
H173   H     0.30647   0.01140   0.47098   0.00000  Uiso   1.00
H174   H     0.33757   0.00284   0.35472   0.00000  Uiso   1.00
H175   H     0.37759   0.02649   0.15394   0.00000  Uiso   1.00
H176   H     0.41725   0.06560   0.25594   0.00000  Uiso   1.00
H177   H     0.41135   0.07197   0.06766   0.00000  Uiso   1.00
C178   C     0.62571   0.32275   0.42201   0.00000  Uiso   1.00
C179   C     0.55766   0.27976   0.34961   0.00000  Uiso   1.00
C180   C     0.59753   0.29116   0.33980   0.00000  Uiso   1.00
C181   C     0.61330   0.34310   0.51253   0.00000  Uiso   1.00
C182   C     0.57350   0.33182   0.52195   0.00000  Uiso   1.00
C183   C     0.54529   0.29987   0.44173   0.00000  Uiso   1.00
H184   H     0.37097   0.25084   0.37258   0.00000  Uiso   1.00
H185   H     0.42765   0.25871   0.48724   0.00000  Uiso   1.00
H186   H     0.49517   0.30418   0.53017   0.00000  Uiso   1.00
H187   H     0.53656   0.25505   0.28612   0.00000  Uiso   1.00
H188   H     0.60647   0.27521   0.26877   0.00000  Uiso   1.00
H189   H     0.63437   0.36726   0.57814   0.00000  Uiso   1.00
H190   H     0.56465   0.34769   0.59389   0.00000  Uiso   1.00
C191   C     0.31769   0.27126   0.38131   0.00000  Uiso   1.00
C192   C     0.29353   0.29230   0.39070   0.00000  Uiso   1.00
C193   C     0.25473   0.26967   0.30474   0.00000  Uiso   1.00
C194   C     0.31853   0.33492   0.33748   0.00000  Uiso   1.00
C195   C     0.22683   0.28581   0.32832   0.00000  Uiso   1.00
C196   C     0.33957   0.15322   0.40922   0.00000  Uiso   1.00
C197   C     0.30019   0.14027   0.44775   0.00000  Uiso   1.00
C198   C     0.24448   0.15163   0.50127   0.00000  Uiso   1.00
C199   C     0.28613   0.16675   0.46022   0.00000  Uiso   1.00
O200   O     0.22561   0.16470   0.44259   0.00000  Uiso   1.00
N201   N     0.22687   0.12289   0.60320   0.00000  Uiso   1.00
N202   N     0.18658   0.10640   0.63243   0.00000  Uiso   1.00
C203   C     0.16840   0.07787   0.72334   0.00000  Uiso   1.00
O204   O     0.35472   0.12739   0.39549   0.00000  Uiso   1.00
H205   H     0.34532   0.28849   0.44372   0.00000  Uiso   1.00
H206   H     0.32493   0.26957   0.26692   0.00000  Uiso   1.00
H207   H     0.28630   0.29305   0.50562   0.00000  Uiso   1.00
H208   H     0.23887   0.23832   0.33868   0.00000  Uiso   1.00
H209   H     0.26112   0.27035   0.18829   0.00000  Uiso   1.00
H210   H     0.32461   0.33558   0.22077   0.00000  Uiso   1.00
H211   H     0.34703   0.35004   0.39577   0.00000  Uiso   1.00
H212   H     0.30333   0.35188   0.35774   0.00000  Uiso   1.00
H213   H     0.23886   0.31542   0.27946   0.00000  Uiso   1.00
H214   H     0.22175   0.28745   0.44476   0.00000  Uiso   1.00
H215   H     0.19812   0.26594   0.27635   0.00000  Uiso   1.00
C216   C     0.04274   0.02120   0.77019   0.00000  Uiso   1.00
C217   C     0.10427   0.07568   0.68053   0.00000  Uiso   1.00
C218   C     0.06336   0.05646   0.69210   0.00000  Uiso   1.00
C219   C     0.06442   0.00615   0.83847   0.00000  Uiso   1.00
C220   C     0.10537   0.02512   0.82543   0.00000  Uiso   1.00
C221   C     0.12557   0.05975   0.74476   0.00000  Uiso   1.00
H222   H     0.27993   0.10941   0.46715   0.00000  Uiso   1.00
H223   H     0.24334   0.11286   0.65867   0.00000  Uiso   1.00
H224   H     0.18437   0.06593   0.77921   0.00000  Uiso   1.00
H225   H     0.11913   0.10256   0.61853   0.00000  Uiso   1.00
H226   H     0.04776   0.06876   0.63663   0.00000  Uiso   1.00
H227   H     0.04946   0.97904   0.89889   0.00000  Uiso   1.00
H228   H     0.12121   0.01226   0.87556   0.00000  Uiso   1.00
C229   C     0.08589   0.75816   0.89179   0.00000  Uiso   1.00
C230   C     0.06381   0.71400   0.85542   0.00000  Uiso   1.00
C231   C     0.07598   0.70708   0.70504   0.00000  Uiso   1.00
C232   C     0.01919   0.69780   0.86506   0.00000  Uiso   1.00
C233   C     0.05882   0.66348   0.66928   0.00000  Uiso   1.00
C234   C     0.20696   0.89572   0.92979   0.00000  Uiso   1.00
C235   C     0.22010   0.86919   0.89467   0.00000  Uiso   1.00
C236   C     0.20905   0.80143   0.85562   0.00000  Uiso   1.00
C237   C     0.19377   0.82846   0.88677   0.00000  Uiso   1.00
O238   O     0.19051   0.77319   0.77685   0.00000  Uiso   1.00
N239   N     0.24330   0.80741   0.91696   0.00000  Uiso   1.00
N240   N     0.25633   0.78032   0.89548   0.00000  Uiso   1.00
C241   C     0.28750   0.78423   0.95905   0.00000  Uiso   1.00
O242   O     0.23254   0.93681   0.94062   0.00000  Uiso   1.00
H243   H     0.07608   0.76247   0.99884   0.00000  Uiso   1.00
H244   H     0.07890   0.77419   0.80882   0.00000  Uiso   1.00
H245   H     0.07198   0.69861   0.93703   0.00000  Uiso   1.00
H246   H     0.10855   0.72109   0.69977   0.00000  Uiso   1.00
H247   H     0.06688   0.72112   0.62143   0.00000  Uiso   1.00
H248   H     0.00931   0.71069   0.77973   0.00000  Uiso   1.00
H249   H     0.01140   0.70493   0.97098   0.00000  Uiso   1.00
H250   H     0.00284   0.66527   0.85472   0.00000  Uiso   1.00
H251   H     0.02649   0.64890   0.65394   0.00000  Uiso   1.00
H252   H     0.06560   0.64835   0.75594   0.00000  Uiso   1.00
H253   H     0.07197   0.66062   0.56766   0.00000  Uiso   1.00
C254   C     0.32275   0.69704   0.92201   0.00000  Uiso   1.00
C255   C     0.27976   0.72210   0.84961   0.00000  Uiso   1.00
C256   C     0.29116   0.69363   0.83980   0.00000  Uiso   1.00
C257   C     0.34310   0.72980   1.01253   0.00000  Uiso   1.00
C258   C     0.33182   0.75832   1.02195   0.00000  Uiso   1.00
C259   C     0.29987   0.75458   0.94173   0.00000  Uiso   1.00
H260   H     0.25084   0.87987   0.87258   0.00000  Uiso   1.00
H261   H     0.25871   0.83106   0.98724   0.00000  Uiso   1.00
H262   H     0.30418   0.80901   1.03017   0.00000  Uiso   1.00
H263   H     0.25505   0.71849   0.78612   0.00000  Uiso   1.00
H264   H     0.27521   0.66874   0.76877   0.00000  Uiso   1.00
H265   H     0.36726   0.73289   1.07814   0.00000  Uiso   1.00
H266   H     0.34769   0.78304   1.09389   0.00000  Uiso   1.00
C267   C     0.27126   0.95357   0.88131   0.00000  Uiso   1.00
C268   C     0.29230   0.99877   0.89070   0.00000  Uiso   1.00
C269   C     0.26967   0.01494   0.80474   0.00000  Uiso   1.00
C270   C     0.33492   0.01639   0.83748   0.00000  Uiso   1.00
C271   C     0.28581   0.05898   0.82832   0.00000  Uiso   1.00
C272   C     0.15322   0.81365   0.90922   0.00000  Uiso   1.00
C273   C     0.14027   0.84008   0.94775   0.00000  Uiso   1.00
C274   C     0.15163   0.90715   1.00127   0.00000  Uiso   1.00
C275   C     0.16675   0.88062   0.96022   0.00000  Uiso   1.00
O276   O     0.16470   0.93909   0.94259   0.00000  Uiso   1.00
N277   N     0.12289   0.89602   1.10320   0.00000  Uiso   1.00
N278   N     0.10640   0.91982   1.13243   0.00000  Uiso   1.00
C279   C     0.07787   0.90947   1.22334   0.00000  Uiso   1.00
O280   O     0.12739   0.77267   0.89549   0.00000  Uiso   1.00
H281   H     0.28849   0.94317   0.94372   0.00000  Uiso   1.00
H282   H     0.26957   0.94464   0.76692   0.00000  Uiso   1.00
H283   H     0.29305   0.00675   1.00562   0.00000  Uiso   1.00
H284   H     0.23832   0.99945   0.83868   0.00000  Uiso   1.00
H285   H     0.27035   0.00923   0.68829   0.00000  Uiso   1.00
H286   H     0.33558   0.01097   0.72077   0.00000  Uiso   1.00
H287   H     0.35004   0.00301   0.89577   0.00000  Uiso   1.00
H288   H     0.35188   0.04855   0.85774   0.00000  Uiso   1.00
H289   H     0.31542   0.07656   0.77946   0.00000  Uiso   1.00
H290   H     0.28745   0.06570   0.94476   0.00000  Uiso   1.00
H291   H     0.26594   0.06782   0.77635   0.00000  Uiso   1.00
C292   C     0.02120   0.97846   1.27019   0.00000  Uiso   1.00
C293   C     0.07568   0.97141   1.18053   0.00000  Uiso   1.00
C294   C     0.05646   0.99310   1.19210   0.00000  Uiso   1.00
C295   C     0.00615   0.94173   1.33847   0.00000  Uiso   1.00
C296   C     0.02512   0.91975   1.32543   0.00000  Uiso   1.00
C297   C     0.05975   0.93418   1.24476   0.00000  Uiso   1.00
H298   H     0.10941   0.82948   0.96715   0.00000  Uiso   1.00
H299   H     0.11286   0.86952   1.15867   0.00000  Uiso   1.00
H300   H     0.06593   0.88156   1.27921   0.00000  Uiso   1.00
H301   H     0.10256   0.98343   1.11853   0.00000  Uiso   1.00
H302   H     0.06876   0.02100   1.13663   0.00000  Uiso   1.00
H303   H     0.97904   0.92958   1.39889   0.00000  Uiso   1.00
H304   H     0.01226   0.89105   1.37556   0.00000  Uiso   1.00
C305   C     0.24184   0.32773   0.89179   0.00000  Uiso   1.00
C306   C     0.28600   0.34981   0.85542   0.00000  Uiso   1.00
C307   C     0.29292   0.36890   0.70504   0.00000  Uiso   1.00
C308   C     0.30220   0.32139   0.86506   0.00000  Uiso   1.00
C309   C     0.33652   0.39534   0.66928   0.00000  Uiso   1.00
C310   C     0.10428   0.31124   0.92979   0.00000  Uiso   1.00
C311   C     0.13081   0.35091   0.89467   0.00000  Uiso   1.00
C312   C     0.19857   0.40762   0.85562   0.00000  Uiso   1.00
C313   C     0.17154   0.36531   0.88677   0.00000  Uiso   1.00
O314   O     0.22681   0.41732   0.77685   0.00000  Uiso   1.00
N315   N     0.19259   0.43589   0.91696   0.00000  Uiso   1.00
N316   N     0.21968   0.47601   0.89548   0.00000  Uiso   1.00
C317   C     0.21577   0.50327   0.95905   0.00000  Uiso   1.00
O318   O     0.06319   0.29573   0.94062   0.00000  Uiso   1.00
H319   H     0.23753   0.31361   0.99884   0.00000  Uiso   1.00
H320   H     0.22581   0.30471   0.80882   0.00000  Uiso   1.00
H321   H     0.30139   0.37337   0.93703   0.00000  Uiso   1.00
H322   H     0.27891   0.38746   0.69977   0.00000  Uiso   1.00
H323   H     0.27888   0.34576   0.62143   0.00000  Uiso   1.00
H324   H     0.28931   0.29862   0.77973   0.00000  Uiso   1.00
H325   H     0.29507   0.30647   0.97098   0.00000  Uiso   1.00
H326   H     0.33473   0.33757   0.85472   0.00000  Uiso   1.00
H327   H     0.35110   0.37759   0.65394   0.00000  Uiso   1.00
H328   H     0.35165   0.41725   0.75594   0.00000  Uiso   1.00
H329   H     0.33938   0.41135   0.56766   0.00000  Uiso   1.00
C330   C     0.30296   0.62571   0.92201   0.00000  Uiso   1.00
C331   C     0.27790   0.55766   0.84961   0.00000  Uiso   1.00
C332   C     0.30637   0.59753   0.83980   0.00000  Uiso   1.00
C333   C     0.27020   0.61330   1.01253   0.00000  Uiso   1.00
C334   C     0.24168   0.57350   1.02195   0.00000  Uiso   1.00
C335   C     0.24542   0.54529   0.94173   0.00000  Uiso   1.00
H336   H     0.12013   0.37097   0.87258   0.00000  Uiso   1.00
H337   H     0.16894   0.42765   0.98724   0.00000  Uiso   1.00
H338   H     0.19099   0.49517   1.03017   0.00000  Uiso   1.00
H339   H     0.28151   0.53656   0.78612   0.00000  Uiso   1.00
H340   H     0.33126   0.60647   0.76877   0.00000  Uiso   1.00
H341   H     0.26711   0.63437   1.07814   0.00000  Uiso   1.00
H342   H     0.21696   0.56465   1.09389   0.00000  Uiso   1.00
C343   C     0.04643   0.31769   0.88131   0.00000  Uiso   1.00
C344   C     0.00123   0.29353   0.89070   0.00000  Uiso   1.00
C345   C     0.98506   0.25473   0.80474   0.00000  Uiso   1.00
C346   C     0.98361   0.31853   0.83748   0.00000  Uiso   1.00
C347   C     0.94102   0.22683   0.82832   0.00000  Uiso   1.00
C348   C     0.18635   0.33957   0.90922   0.00000  Uiso   1.00
C349   C     0.15992   0.30019   0.94775   0.00000  Uiso   1.00
C350   C     0.09285   0.24448   1.00127   0.00000  Uiso   1.00
C351   C     0.11938   0.28613   0.96022   0.00000  Uiso   1.00
O352   O     0.06091   0.22561   0.94259   0.00000  Uiso   1.00
N353   N     0.10398   0.22687   1.10320   0.00000  Uiso   1.00
N354   N     0.08018   0.18658   1.13243   0.00000  Uiso   1.00
C355   C     0.09053   0.16840   1.22334   0.00000  Uiso   1.00
O356   O     0.22733   0.35472   0.89549   0.00000  Uiso   1.00
H357   H     0.05683   0.34532   0.94372   0.00000  Uiso   1.00
H358   H     0.05536   0.32493   0.76692   0.00000  Uiso   1.00
H359   H     0.99325   0.28630   1.00562   0.00000  Uiso   1.00
H360   H     0.00055   0.23887   0.83868   0.00000  Uiso   1.00
H361   H     0.99077   0.26112   0.68829   0.00000  Uiso   1.00
H362   H     0.98903   0.32461   0.72077   0.00000  Uiso   1.00
H363   H     0.99699   0.34703   0.89577   0.00000  Uiso   1.00
H364   H     0.95145   0.30333   0.85774   0.00000  Uiso   1.00
H365   H     0.92344   0.23886   0.77946   0.00000  Uiso   1.00
H366   H     0.93430   0.22175   0.94476   0.00000  Uiso   1.00
H367   H     0.93218   0.19812   0.77635   0.00000  Uiso   1.00
C368   C     0.02154   0.04274   1.27019   0.00000  Uiso   1.00
C369   C     0.02859   0.10427   1.18053   0.00000  Uiso   1.00
C370   C     0.00690   0.06336   1.19210   0.00000  Uiso   1.00
C371   C     0.05827   0.06442   1.33847   0.00000  Uiso   1.00
C372   C     0.08025   0.10537   1.32543   0.00000  Uiso   1.00
C373   C     0.06582   0.12557   1.24476   0.00000  Uiso   1.00
H374   H     0.17052   0.27993   0.96715   0.00000  Uiso   1.00
H375   H     0.13048   0.24334   1.15867   0.00000  Uiso   1.00
H376   H     0.11844   0.18437   1.27921   0.00000  Uiso   1.00
H377   H     0.01657   0.11913   1.11853   0.00000  Uiso   1.00
H378   H     0.97900   0.04776   1.13663   0.00000  Uiso   1.00
H379   H     0.07042   0.04946   1.39889   0.00000  Uiso   1.00
H380   H     0.10895   0.12121   1.37556   0.00000  Uiso   1.00
C381   C     0.67227   0.91411   0.89179   0.00000  Uiso   1.00
C382   C     0.65019   0.93619   0.85542   0.00000  Uiso   1.00
C383   C     0.63110   0.92402   0.70504   0.00000  Uiso   1.00
C384   C     0.67861   0.98081   0.86506   0.00000  Uiso   1.00
C385   C     0.60466   0.94118   0.66928   0.00000  Uiso   1.00
C386   C     0.68876   0.79304   0.92979   0.00000  Uiso   1.00
C387   C     0.64909   0.77990   0.89467   0.00000  Uiso   1.00
C388   C     0.59238   0.79095   0.85562   0.00000  Uiso   1.00
C389   C     0.63469   0.80623   0.88677   0.00000  Uiso   1.00
O390   O     0.58268   0.80949   0.77685   0.00000  Uiso   1.00
N391   N     0.56411   0.75670   0.91696   0.00000  Uiso   1.00
N392   N     0.52399   0.74367   0.89548   0.00000  Uiso   1.00
C393   C     0.49673   0.71250   0.95905   0.00000  Uiso   1.00
O394   O     0.70427   0.76746   0.94062   0.00000  Uiso   1.00
H395   H     0.68639   0.92392   0.99884   0.00000  Uiso   1.00
H396   H     0.69529   0.92110   0.80882   0.00000  Uiso   1.00
H397   H     0.62663   0.92802   0.93703   0.00000  Uiso   1.00
H398   H     0.61254   0.89145   0.69977   0.00000  Uiso   1.00
H399   H     0.65424   0.93312   0.62143   0.00000  Uiso   1.00
H400   H     0.70138   0.99069   0.77973   0.00000  Uiso   1.00
H401   H     0.69353   0.98860   0.97098   0.00000  Uiso   1.00
H402   H     0.66243   0.99716   0.85472   0.00000  Uiso   1.00
H403   H     0.62241   0.97351   0.65394   0.00000  Uiso   1.00
H404   H     0.58275   0.93440   0.75594   0.00000  Uiso   1.00
H405   H     0.58865   0.92803   0.56766   0.00000  Uiso   1.00
C406   C     0.37429   0.67725   0.92201   0.00000  Uiso   1.00
C407   C     0.44234   0.72024   0.84961   0.00000  Uiso   1.00
C408   C     0.40247   0.70884   0.83980   0.00000  Uiso   1.00
C409   C     0.38670   0.65690   1.01253   0.00000  Uiso   1.00
C410   C     0.42650   0.66818   1.02195   0.00000  Uiso   1.00
C411   C     0.45471   0.70013   0.94173   0.00000  Uiso   1.00
H412   H     0.62903   0.74916   0.87258   0.00000  Uiso   1.00
H413   H     0.57235   0.74129   0.98724   0.00000  Uiso   1.00
H414   H     0.50483   0.69582   1.03017   0.00000  Uiso   1.00
H415   H     0.46344   0.74495   0.78612   0.00000  Uiso   1.00
H416   H     0.39353   0.72479   0.76877   0.00000  Uiso   1.00
H417   H     0.36563   0.63274   1.07814   0.00000  Uiso   1.00
H418   H     0.43535   0.65231   1.09389   0.00000  Uiso   1.00
C419   C     0.68231   0.72874   0.88131   0.00000  Uiso   1.00
C420   C     0.70647   0.70770   0.89070   0.00000  Uiso   1.00
C421   C     0.74527   0.73033   0.80474   0.00000  Uiso   1.00
C422   C     0.68147   0.66508   0.83748   0.00000  Uiso   1.00
C423   C     0.77317   0.71419   0.82832   0.00000  Uiso   1.00
C424   C     0.66043   0.84678   0.90922   0.00000  Uiso   1.00
C425   C     0.69981   0.85973   0.94775   0.00000  Uiso   1.00
C426   C     0.75552   0.84837   1.00127   0.00000  Uiso   1.00
C427   C     0.71387   0.83325   0.96022   0.00000  Uiso   1.00
O428   O     0.77439   0.83530   0.94259   0.00000  Uiso   1.00
N429   N     0.77313   0.87711   1.10320   0.00000  Uiso   1.00
N430   N     0.81342   0.89360   1.13243   0.00000  Uiso   1.00
C431   C     0.83160   0.92213   1.22334   0.00000  Uiso   1.00
O432   O     0.64528   0.87261   0.89549   0.00000  Uiso   1.00
H433   H     0.65468   0.71151   0.94372   0.00000  Uiso   1.00
H434   H     0.67507   0.73043   0.76692   0.00000  Uiso   1.00
H435   H     0.71370   0.70695   1.00562   0.00000  Uiso   1.00
H436   H     0.76113   0.76168   0.83868   0.00000  Uiso   1.00
H437   H     0.73888   0.72965   0.68829   0.00000  Uiso   1.00
H438   H     0.67539   0.66442   0.72077   0.00000  Uiso   1.00
H439   H     0.65297   0.64996   0.89577   0.00000  Uiso   1.00
H440   H     0.69667   0.64812   0.85774   0.00000  Uiso   1.00
H441   H     0.76114   0.68458   0.77946   0.00000  Uiso   1.00
H442   H     0.77825   0.71255   0.94476   0.00000  Uiso   1.00
H443   H     0.80188   0.73406   0.77635   0.00000  Uiso   1.00
C444   C     0.95726   0.97880   1.27019   0.00000  Uiso   1.00
C445   C     0.89573   0.92432   1.18053   0.00000  Uiso   1.00
C446   C     0.93664   0.94354   1.19210   0.00000  Uiso   1.00
C447   C     0.93558   0.99385   1.33847   0.00000  Uiso   1.00
C448   C     0.89463   0.97488   1.32543   0.00000  Uiso   1.00
C449   C     0.87443   0.94025   1.24476   0.00000  Uiso   1.00
H450   H     0.72007   0.89059   0.96715   0.00000  Uiso   1.00
H451   H     0.75666   0.88714   1.15867   0.00000  Uiso   1.00
H452   H     0.81563   0.93407   1.27921   0.00000  Uiso   1.00
H453   H     0.88087   0.89744   1.11853   0.00000  Uiso   1.00
H454   H     0.95224   0.93124   1.13663   0.00000  Uiso   1.00
H455   H     0.95054   0.02096   1.39889   0.00000  Uiso   1.00
H456   H     0.87879   0.98774   1.37556   0.00000  Uiso   1.00
N457   N     0.66667   0.33333   0.41705   0.00000  Uiso   1.00
N458   N     0.33333   0.66667   0.91705   0.00000  Uiso   1.00
N459   N     0.00000   0.00000   0.77522   0.00000  Uiso   1.00
N460   N     0.00000   0.00000   1.27522   0.00000  Uiso   1.00
loop_
_geom_bond_atom_site_label_1
_geom_bond_atom_site_label_2
_geom_bond_distance
_geom_bond_site_symmetry_2
_ccdc_geom_bond_type
C1     C2      1.540   .     S
C1     H15     1.112   .     S
C1     H16     1.115   .     S
C1     O52     1.434   .     S
C2     C3      1.548   .     S
C2     C4      1.540   .     S
C2     H17     1.114   .     S
C3     C5      1.531   .     S
C3     H18     1.113   .     S
C3     H19     1.112   .     S
C4     H20     1.112   .     S
C4     H21     1.110   .     S
C4     H22     1.111   .     S
C5     H23     1.111   .     S
C5     H24     1.111   .     S
C5     H25     1.111   .     S
C6     C7      1.414   .     D
C6     O14     1.416   .     S
C6     C47     1.411   .     S
C7     C9      1.407   .     S
C7     H32     1.082   .     S
C8     C9      1.487   .     S
C8     O10     1.222   .     D
C8     N11     1.370   .     S
C9     C44     1.412   .     D
N11    N12     1.407   .     S
N11    H33     1.047   .     S
N12    C13     1.299   .     D
C13    C31     1.478   .     S
C13    H34     1.086   .     S
O14    C39     1.432   .     S
C26    C28     1.407   .     D
C26    C29     1.407   .     S
C26    N457    1.447   .     S
C27    C28     1.400   .     S
C27    C31     1.408   .     D
C27    H35     1.084   .     S
C28    H36     1.084   .     S
C29    C30     1.399   .     D
C29    H37     1.084   .     S
C30    C31     1.404   .     S
C30    H38     1.084   .     S
C39    C40     1.542   .     S
C39    H53     1.114   .     S
C39    H54     1.114   .     S
C40    C41     1.549   1_545 S
C40    C42     1.539   1_545 S
C40    H55     1.112   1_545 S
C41    C43     1.532   .     S
C41    H57     1.111   .     S
C41    C40     1.549   1_565 S
C41    H56     1.113   1_565 S
C42    H58     1.111   .     S
C42    H59     1.112   .     S
C42    H60     1.111   .     S
C42    C40     1.539   1_565 S
C43    H61     1.111   .     S
C43    H62     1.111   .     S
C43    H63     1.112   .     S
C44    C45     1.412   .     S
C44    O52     1.416   .     S
C45    C47     1.406   .     D
C45    H70     1.082   .     S
C46    C47     1.485   .     S
C46    O48     1.222   .     D
C46    N49     1.369   .     S
N49    N50     1.405   .     S
N49    H71     1.047   .     S
N50    C51     1.298   .     D
C51    C69     1.477   .     S
C51    H72     1.086   .     S
H55    C40     1.112   1_565 S
H56    C41     1.113   1_545 S
C64    C66     1.408   .     D
C64    C67     1.408   .     S
C64    N459    1.455   1_655 S
C65    C66     1.397   .     S
C65    C69     1.405   .     D
C65    H73     1.083   .     S
C66    H74     1.083   1_545 S
C67    C68     1.400   .     D
C67    H75     1.082   1_655 S
C68    C69     1.402   .     S
C68    H76     1.084   .     S
H74    C66     1.083   1_565 S
H75    C67     1.082   1_455 S
C77    C78     1.540   .     S
C77    H91     1.112   .     S
C77    H92     1.115   .     S
C77    O128    1.434   .     S
C78    C79     1.548   .     S
C78    C80     1.540   .     S
C78    H93     1.114   .     S
C79    C81     1.531   .     S
C79    H94     1.113   .     S
C79    H95     1.112   .     S
C80    H96     1.112   .     S
C80    H97     1.110   .     S
C80    H98     1.111   .     S
C81    H99     1.111   .     S
C81    H100    1.111   .     S
C81    H101    1.111   .     S
C82    C83     1.414   .     D
C82    O90     1.416   .     S
C82    C123    1.411   .     S
C83    C85     1.407   .     S
C83    H108    1.082   .     S
C84    C85     1.487   .     S
C84    O86     1.222   .     D
C84    N87     1.370   .     S
C85    C120    1.412   .     D
N87    N88     1.407   .     S
N87    H109    1.047   .     S
N88    C89     1.299   .     D
C89    C107    1.478   .     S
C89    H110    1.086   .     S
O90    C115    1.432   .     S
C102   C104    1.407   .     D
C102   C105    1.407   .     S
C102   N457    1.448   .     S
C103   C104    1.400   .     S
C103   C107    1.408   .     D
C103   H111    1.084   .     S
C104   H112    1.084   .     S
C105   C106    1.399   .     D
C105   H113    1.084   .     S
C106   C107    1.404   .     S
C106   H114    1.084   .     S
C115   C116    1.542   .     S
C115   H129    1.114   .     S
C115   H130    1.114   .     S
C116   C117    1.549   1_655 S
C116   C118    1.539   1_655 S
C116   H131    1.112   1_655 S
C117   C119    1.532   .     S
C117   H133    1.111   .     S
C117   C116    1.549   1_455 S
C117   H132    1.113   1_455 S
C118   H134    1.111   .     S
C118   H135    1.112   .     S
C118   H136    1.111   .     S
C118   C116    1.539   1_455 S
C119   H137    1.111   .     S
C119   H138    1.111   .     S
C119   H139    1.112   .     S
C120   C121    1.412   .     S
C120   O128    1.416   .     S
C121   C123    1.406   .     D
C121   H146    1.082   .     S
C122   C123    1.485   .     S
C122   O124    1.222   .     D
C122   N125    1.369   .     S
N125   N126    1.405   .     S
N125   H147    1.047   .     S
N126   C127    1.298   .     D
C127   C145    1.477   .     S
C127   H148    1.086   .     S
H131   C116    1.112   1_455 S
H132   C117    1.113   1_655 S
C140   C142    1.408   .     D
C140   C143    1.408   .     S
C140   N459    1.455   1_665 S
C141   C142    1.397   .     S
C141   C145    1.405   .     D
C141   H149    1.083   .     S
C142   H150    1.083   1_655 S
C143   C144    1.400   .     D
C143   H151    1.082   .     S
C144   C145    1.402   .     S
C144   H152    1.084   .     S
H150   C142    1.083   1_455 S
C153   C154    1.540   .     S
C153   H167    1.112   .     S
C153   H168    1.115   .     S
C153   O204    1.434   .     S
C154   C155    1.548   .     S
C154   C156    1.540   .     S
C154   H169    1.114   .     S
C155   C157    1.531   .     S
C155   H170    1.113   .     S
C155   H171    1.112   .     S
C156   H172    1.112   .     S
C156   H173    1.110   .     S
C156   H174    1.111   .     S
C157   H175    1.111   .     S
C157   H176    1.111   .     S
C157   H177    1.111   .     S
C158   C159    1.414   .     D
C158   O166    1.416   .     S
C158   C199    1.411   .     S
C159   C161    1.407   .     S
C159   H184    1.082   .     S
C160   C161    1.487   .     S
C160   O162    1.222   .     D
C160   N163    1.370   .     S
C161   C196    1.412   .     D
N163   N164    1.407   .     S
N163   H185    1.047   .     S
N164   C165    1.299   .     D
C165   C183    1.478   .     S
C165   H186    1.086   .     S
O166   C191    1.432   .     S
C178   C180    1.407   .     D
C178   C181    1.407   .     S
C178   N457    1.448   .     S
C179   C180    1.400   .     S
C179   C183    1.408   .     D
C179   H187    1.084   .     S
C180   H188    1.084   .     S
C181   C182    1.399   .     D
C181   H189    1.084   .     S
C182   C183    1.404   .     S
C182   H190    1.084   .     S
C191   C192    1.542   .     S
C191   H205    1.114   .     S
C191   H206    1.114   .     S
C192   C193    1.549   .     S
C192   C194    1.539   .     S
C192   H207    1.112   .     S
C193   C195    1.532   .     S
C193   H208    1.113   .     S
C193   H209    1.111   .     S
C194   H210    1.111   .     S
C194   H211    1.112   .     S
C194   H212    1.111   .     S
C195   H213    1.111   .     S
C195   H214    1.111   .     S
C195   H215    1.112   .     S
C196   C197    1.412   .     S
C196   O204    1.416   .     S
C197   C199    1.406   .     D
C197   H222    1.082   .     S
C198   C199    1.485   .     S
C198   O200    1.222   .     D
C198   N201    1.369   .     S
N201   N202    1.405   .     S
N201   H223    1.047   .     S
N202   C203    1.298   .     D
C203   C221    1.477   .     S
C203   H224    1.086   .     S
C216   C218    1.408   .     D
C216   C219    1.408   .     S
C216   N459    1.455   .     S
C217   C218    1.397   .     S
C217   C221    1.405   .     D
C217   H225    1.083   .     S
C218   H226    1.083   .     S
C219   C220    1.400   .     D
C219   H227    1.082   1_545 S
C220   C221    1.402   .     S
C220   H228    1.084   .     S
H227   C219    1.082   1_565 S
C229   C230    1.540   .     S
C229   H243    1.112   .     S
C229   H244    1.115   .     S
C229   O280    1.434   .     S
C230   C231    1.548   .     S
C230   C232    1.540   .     S
C230   H245    1.114   .     S
C231   C233    1.531   .     S
C231   H246    1.113   .     S
C231   H247    1.112   .     S
C232   H248    1.112   .     S
C232   H249    1.110   .     S
C232   H250    1.111   .     S
C233   H251    1.111   .     S
C233   H252    1.111   .     S
C233   H253    1.111   .     S
C234   C235    1.414   .     D
C234   O242    1.416   .     S
C234   C275    1.411   .     S
C235   C237    1.407   .     S
C235   H260    1.082   .     S
C236   C237    1.487   .     S
C236   O238    1.222   .     D
C236   N239    1.370   .     S
C237   C272    1.412   .     D
N239   N240    1.407   .     S
N239   H261    1.047   .     S
N240   C241    1.299   .     D
C241   C259    1.478   .     S
C241   H262    1.086   .     S
O242   C267    1.432   .     S
C254   C256    1.407   .     D
C254   C257    1.407   .     S
C254   N458    1.447   .     S
C255   C256    1.400   .     S
C255   C259    1.408   .     D
C255   H263    1.084   .     S
C256   H264    1.084   .     S
C257   C258    1.399   .     D
C257   H265    1.084   .     S
C258   C259    1.404   .     S
C258   H266    1.084   .     S
C267   C268    1.542   .     S
C267   H281    1.114   .     S
C267   H282    1.114   .     S
C268   C269    1.549   1_565 S
C268   C270    1.539   1_565 S
C268   H283    1.112   1_565 S
C269   C271    1.532   .     S
C269   H285    1.111   .     S
C269   C268    1.549   1_545 S
C269   H284    1.113   1_545 S
C270   H286    1.111   .     S
C270   H287    1.112   .     S
C270   H288    1.111   .     S
C270   C268    1.539   1_545 S
C271   H289    1.111   .     S
C271   H290    1.111   .     S
C271   H291    1.112   .     S
C272   C273    1.412   .     S
C272   O280    1.416   .     S
C273   C275    1.406   .     D
C273   H298    1.082   .     S
C274   C275    1.485   .     S
C274   O276    1.222   .     D
C274   N277    1.369   .     S
N277   N278    1.405   .     S
N277   H299    1.047   .     S
N278   C279    1.298   .     D
C279   C297    1.477   .     S
C279   H300    1.086   .     S
H283   C268    1.112   1_545 S
H284   C269    1.113   1_565 S
C292   C294    1.408   .     D
C292   C295    1.408   .     S
C292   N460    1.455   1_565 S
C293   C294    1.397   .     S
C293   C297    1.405   .     D
C293   H301    1.083   .     S
C294   H302    1.083   1_565 S
C295   C296    1.400   .     D
C295   H303    1.082   1_455 S
C296   C297    1.402   .     S
C296   H304    1.084   .     S
H302   C294    1.083   1_545 S
H303   C295    1.082   1_655 S
C305   C306    1.540   .     S
C305   H319    1.112   .     S
C305   H320    1.115   .     S
C305   O356    1.434   .     S
C306   C307    1.548   .     S
C306   C308    1.540   .     S
C306   H321    1.114   .     S
C307   C309    1.531   .     S
C307   H322    1.113   .     S
C307   H323    1.112   .     S
C308   H324    1.112   .     S
C308   H325    1.110   .     S
C308   H326    1.111   .     S
C309   H327    1.111   .     S
C309   H328    1.111   .     S
C309   H329    1.111   .     S
C310   C311    1.414   .     D
C310   O318    1.416   .     S
C310   C351    1.411   .     S
C311   C313    1.407   .     S
C311   H336    1.082   .     S
C312   C313    1.487   .     S
C312   O314    1.222   .     D
C312   N315    1.370   .     S
C313   C348    1.412   .     D
N315   N316    1.407   .     S
N315   H337    1.047   .     S
N316   C317    1.299   .     D
C317   C335    1.478   .     S
C317   H338    1.086   .     S
O318   C343    1.432   .     S
C330   C332    1.407   .     D
C330   C333    1.407   .     S
C330   N458    1.448   .     S
C331   C332    1.400   .     S
C331   C335    1.408   .     D
C331   H339    1.084   .     S
C332   H340    1.084   .     S
C333   C334    1.399   .     D
C333   H341    1.084   .     S
C334   C335    1.404   .     S
C334   H342    1.084   .     S
C343   C344    1.542   .     S
C343   H357    1.114   .     S
C343   H358    1.114   .     S
C344   C345    1.549   1_455 S
C344   C346    1.539   1_455 S
C344   H359    1.112   1_455 S
C345   C347    1.532   .     S
C345   H361    1.111   .     S
C345   C344    1.549   1_655 S
C345   H360    1.113   1_655 S
C346   H362    1.111   .     S
C346   H363    1.112   .     S
C346   H364    1.111   .     S
C346   C344    1.539   1_655 S
C347   H365    1.111   .     S
C347   H366    1.111   .     S
C347   H367    1.112   .     S
C348   C349    1.412   .     S
C348   O356    1.416   .     S
C349   C351    1.406   .     D
C349   H374    1.082   .     S
C350   C351    1.485   .     S
C350   O352    1.222   .     D
C350   N353    1.369   .     S
N353   N354    1.405   .     S
N353   H375    1.047   .     S
N354   C355    1.298   .     D
C355   C373    1.477   .     S
C355   H376    1.086   .     S
H359   C344    1.112   1_655 S
H360   C345    1.113   1_455 S
C368   C370    1.408   .     D
C368   C371    1.408   .     S
C368   N460    1.455   .     S
C369   C370    1.397   .     S
C369   C373    1.405   .     D
C369   H377    1.083   .     S
C370   H378    1.083   1_455 S
C371   C372    1.400   .     D
C371   H379    1.082   .     S
C372   C373    1.402   .     S
C372   H380    1.084   .     S
H378   C370    1.083   1_655 S
C381   C382    1.540   .     S
C381   H395    1.112   .     S
C381   H396    1.115   .     S
C381   O432    1.434   .     S
C382   C383    1.548   .     S
C382   C384    1.540   .     S
C382   H397    1.114   .     S
C383   C385    1.531   .     S
C383   H398    1.113   .     S
C383   H399    1.112   .     S
C384   H400    1.112   .     S
C384   H401    1.110   .     S
C384   H402    1.111   .     S
C385   H403    1.111   .     S
C385   H404    1.111   .     S
C385   H405    1.111   .     S
C386   C387    1.414   .     D
C386   O394    1.416   .     S
C386   C427    1.411   .     S
C387   C389    1.407   .     S
C387   H412    1.082   .     S
C388   C389    1.487   .     S
C388   O390    1.222   .     D
C388   N391    1.370   .     S
C389   C424    1.412   .     D
N391   N392    1.407   .     S
N391   H413    1.047   .     S
N392   C393    1.299   .     D
C393   C411    1.478   .     S
C393   H414    1.086   .     S
O394   C419    1.432   .     S
C406   C408    1.407   .     D
C406   C409    1.407   .     S
C406   N458    1.448   .     S
C407   C408    1.400   .     S
C407   C411    1.408   .     D
C407   H415    1.084   .     S
C408   H416    1.084   .     S
C409   C410    1.399   .     D
C409   H417    1.084   .     S
C410   C411    1.404   .     S
C410   H418    1.084   .     S
C419   C420    1.542   .     S
C419   H433    1.114   .     S
C419   H434    1.114   .     S
C420   C421    1.549   .     S
C420   C422    1.539   .     S
C420   H435    1.112   .     S
C421   C423    1.532   .     S
C421   H436    1.113   .     S
C421   H437    1.111   .     S
C422   H438    1.111   .     S
C422   H439    1.112   .     S
C422   H440    1.111   .     S
C423   H441    1.111   .     S
C423   H442    1.111   .     S
C423   H443    1.112   .     S
C424   C425    1.412   .     S
C424   O432    1.416   .     S
C425   C427    1.406   .     D
C425   H450    1.082   .     S
C426   C427    1.485   .     S
C426   O428    1.222   .     D
C426   N429    1.369   .     S
N429   N430    1.405   .     S
N429   H451    1.047   .     S
N430   C431    1.298   .     D
C431   C449    1.477   .     S
C431   H452    1.086   .     S
C444   C446    1.408   .     D
C444   C447    1.408   .     S
C444   N460    1.455   1_665 S
C445   C446    1.397   .     S
C445   C449    1.405   .     D
C445   H453    1.083   .     S
C446   H454    1.083   .     S
C447   C448    1.400   .     D
C447   H455    1.082   1_565 S
C448   C449    1.402   .     S
C448   H456    1.084   .     S
H455   C447    1.082   1_545 S
N459   C64     1.455   1_455 S
N459   C140    1.455   1_445 S
N460   C292    1.455   1_545 S
N460   C444    1.455   1_445 S
