data_89
_audit_creation_date              2023-09-08
_audit_creation_method            'Materials Studio'
_symmetry_space_group_name_H-M    'P1'
_symmetry_Int_Tables_number       1
_symmetry_cell_setting            triclinic
loop_
_symmetry_equiv_pos_as_xyz
  x,y,z
_cell_length_a                    27.1771
_cell_length_b                    27.1771
_cell_length_c                    27.1771
_cell_angle_alpha                 90.0000
_cell_angle_beta                  90.0000
_cell_angle_gamma                 90.0000
loop_
_atom_site_label
_atom_site_type_symbol
_atom_site_fract_x
_atom_site_fract_y
_atom_site_fract_z
_atom_site_U_iso_or_equiv
_atom_site_adp_type
_atom_site_occupancy
O1     O     0.82850   0.74693   0.30298   0.00000  Uiso   1.00
B2     B     0.83533   0.71325   0.26216   0.00000  Uiso   1.00
C3     C     0.90490   0.76629   0.22758   0.00000  Uiso   1.00
H4     H     0.89552   0.79460   0.25352   0.00000  Uiso   1.00
C5     C     0.87894   0.72231   0.22630   0.00000  Uiso   1.00
C6     C     0.93120   0.69419   0.16049   0.00000  Uiso   1.00
H7     H     0.94125   0.66415   0.13717   0.00000  Uiso   1.00
C8     C     0.95634   0.73930   0.15960   0.00000  Uiso   1.00
C9     C     0.89252   0.68630   0.19272   0.00000  Uiso   1.00
H10    H     0.87377   0.65150   0.19176   0.00000  Uiso   1.00
C11    C     0.94306   0.77459   0.19484   0.00000  Uiso   1.00
H12    H     0.96223   0.80911   0.19660   0.00000  Uiso   1.00
O13    O     0.32850   0.24693   0.80298   0.00000  Uiso   1.00
B14    B     0.33533   0.21325   0.76216   0.00000  Uiso   1.00
C15    C     0.40490   0.26629   0.72758   0.00000  Uiso   1.00
H16    H     0.39552   0.29460   0.75352   0.00000  Uiso   1.00
C17    C     0.37894   0.22231   0.72630   0.00000  Uiso   1.00
C18    C     0.43120   0.19419   0.66049   0.00000  Uiso   1.00
H19    H     0.44125   0.16415   0.63717   0.00000  Uiso   1.00
C20    C     0.45634   0.23930   0.65960   0.00000  Uiso   1.00
C21    C     0.39252   0.18630   0.69272   0.00000  Uiso   1.00
H22    H     0.37377   0.15150   0.69176   0.00000  Uiso   1.00
C23    C     0.44306   0.27459   0.69484   0.00000  Uiso   1.00
H24    H     0.46223   0.30911   0.69660   0.00000  Uiso   1.00
O25    O     0.67150   0.25307   0.80298   0.00000  Uiso   1.00
B26    B     0.66467   0.28675   0.76216   0.00000  Uiso   1.00
C27    C     0.59510   0.23371   0.72758   0.00000  Uiso   1.00
H28    H     0.60448   0.20540   0.75352   0.00000  Uiso   1.00
C29    C     0.62106   0.27769   0.72630   0.00000  Uiso   1.00
C30    C     0.56880   0.30581   0.66049   0.00000  Uiso   1.00
H31    H     0.55875   0.33585   0.63717   0.00000  Uiso   1.00
C32    C     0.54366   0.26070   0.65960   0.00000  Uiso   1.00
C33    C     0.60748   0.31370   0.69272   0.00000  Uiso   1.00
H34    H     0.62623   0.34850   0.69176   0.00000  Uiso   1.00
C35    C     0.55694   0.22541   0.69484   0.00000  Uiso   1.00
H36    H     0.53777   0.19089   0.69660   0.00000  Uiso   1.00
O37    O     0.17150   0.75307   0.30298   0.00000  Uiso   1.00
B38    B     0.16467   0.78675   0.26216   0.00000  Uiso   1.00
C39    C     0.09510   0.73371   0.22758   0.00000  Uiso   1.00
H40    H     0.10448   0.70540   0.25352   0.00000  Uiso   1.00
C41    C     0.12106   0.77769   0.22630   0.00000  Uiso   1.00
C42    C     0.06880   0.80581   0.16049   0.00000  Uiso   1.00
H43    H     0.05875   0.83585   0.13717   0.00000  Uiso   1.00
C44    C     0.04366   0.76070   0.15960   0.00000  Uiso   1.00
C45    C     0.10748   0.81370   0.19272   0.00000  Uiso   1.00
H46    H     0.12623   0.84850   0.19176   0.00000  Uiso   1.00
C47    C     0.05694   0.72541   0.19484   0.00000  Uiso   1.00
H48    H     0.03777   0.69089   0.19660   0.00000  Uiso   1.00
O49    O     0.17150   0.24693   0.19702   0.00000  Uiso   1.00
B50    B     0.16467   0.21325   0.23784   0.00000  Uiso   1.00
C51    C     0.09510   0.26629   0.27242   0.00000  Uiso   1.00
H52    H     0.10448   0.29460   0.24648   0.00000  Uiso   1.00
C53    C     0.12106   0.22231   0.27370   0.00000  Uiso   1.00
C54    C     0.06880   0.19419   0.33951   0.00000  Uiso   1.00
H55    H     0.05875   0.16415   0.36283   0.00000  Uiso   1.00
C56    C     0.04366   0.23930   0.34040   0.00000  Uiso   1.00
C57    C     0.10748   0.18630   0.30728   0.00000  Uiso   1.00
H58    H     0.12623   0.15150   0.30824   0.00000  Uiso   1.00
C59    C     0.05694   0.27459   0.30516   0.00000  Uiso   1.00
H60    H     0.03777   0.30911   0.30340   0.00000  Uiso   1.00
O61    O     0.67150   0.74693   0.69702   0.00000  Uiso   1.00
B62    B     0.66467   0.71325   0.73784   0.00000  Uiso   1.00
C63    C     0.59510   0.76629   0.77242   0.00000  Uiso   1.00
H64    H     0.60448   0.79460   0.74648   0.00000  Uiso   1.00
C65    C     0.62106   0.72231   0.77370   0.00000  Uiso   1.00
C66    C     0.56880   0.69419   0.83951   0.00000  Uiso   1.00
H67    H     0.55875   0.66415   0.86283   0.00000  Uiso   1.00
C68    C     0.54366   0.73930   0.84040   0.00000  Uiso   1.00
C69    C     0.60748   0.68630   0.80728   0.00000  Uiso   1.00
H70    H     0.62623   0.65150   0.80824   0.00000  Uiso   1.00
C71    C     0.55694   0.77459   0.80516   0.00000  Uiso   1.00
H72    H     0.53777   0.80911   0.80340   0.00000  Uiso   1.00
O73    O     0.32850   0.75307   0.69702   0.00000  Uiso   1.00
B74    B     0.33533   0.78675   0.73784   0.00000  Uiso   1.00
C75    C     0.40490   0.73371   0.77242   0.00000  Uiso   1.00
H76    H     0.39552   0.70540   0.74648   0.00000  Uiso   1.00
C77    C     0.37894   0.77769   0.77370   0.00000  Uiso   1.00
C78    C     0.43120   0.80581   0.83951   0.00000  Uiso   1.00
H79    H     0.44125   0.83585   0.86283   0.00000  Uiso   1.00
C80    C     0.45634   0.76070   0.84040   0.00000  Uiso   1.00
C81    C     0.39252   0.81370   0.80728   0.00000  Uiso   1.00
H82    H     0.37377   0.84850   0.80824   0.00000  Uiso   1.00
C83    C     0.44306   0.72541   0.80516   0.00000  Uiso   1.00
H84    H     0.46223   0.69089   0.80340   0.00000  Uiso   1.00
O85    O     0.82850   0.25307   0.19702   0.00000  Uiso   1.00
B86    B     0.83533   0.28675   0.23784   0.00000  Uiso   1.00
C87    C     0.90490   0.23371   0.27242   0.00000  Uiso   1.00
H88    H     0.89552   0.20540   0.24648   0.00000  Uiso   1.00
C89    C     0.87894   0.27769   0.27370   0.00000  Uiso   1.00
C90    C     0.93120   0.30581   0.33951   0.00000  Uiso   1.00
H91    H     0.94125   0.33585   0.36283   0.00000  Uiso   1.00
C92    C     0.95634   0.26070   0.34040   0.00000  Uiso   1.00
C93    C     0.89252   0.31370   0.30728   0.00000  Uiso   1.00
H94    H     0.87377   0.34850   0.30824   0.00000  Uiso   1.00
C95    C     0.94306   0.22541   0.30516   0.00000  Uiso   1.00
H96    H     0.96223   0.19089   0.30340   0.00000  Uiso   1.00
O97    O     0.30298   0.82850   0.74693   0.00000  Uiso   1.00
B98    B     0.26216   0.83533   0.71325   0.00000  Uiso   1.00
C99    C     0.22758   0.90490   0.76629   0.00000  Uiso   1.00
H100   H     0.25352   0.89552   0.79460   0.00000  Uiso   1.00
C101   C     0.22630   0.87894   0.72231   0.00000  Uiso   1.00
C102   C     0.16049   0.93120   0.69419   0.00000  Uiso   1.00
H103   H     0.13717   0.94125   0.66415   0.00000  Uiso   1.00
C104   C     0.15960   0.95634   0.73930   0.00000  Uiso   1.00
C105   C     0.19272   0.89252   0.68630   0.00000  Uiso   1.00
H106   H     0.19176   0.87377   0.65150   0.00000  Uiso   1.00
C107   C     0.19484   0.94306   0.77459   0.00000  Uiso   1.00
H108   H     0.19660   0.96223   0.80911   0.00000  Uiso   1.00
O109   O     0.80298   0.32850   0.24693   0.00000  Uiso   1.00
B110   B     0.76216   0.33533   0.21325   0.00000  Uiso   1.00
C111   C     0.72758   0.40490   0.26629   0.00000  Uiso   1.00
H112   H     0.75352   0.39552   0.29460   0.00000  Uiso   1.00
C113   C     0.72630   0.37894   0.22231   0.00000  Uiso   1.00
C114   C     0.66049   0.43120   0.19419   0.00000  Uiso   1.00
H115   H     0.63717   0.44125   0.16415   0.00000  Uiso   1.00
C116   C     0.65960   0.45634   0.23930   0.00000  Uiso   1.00
C117   C     0.69272   0.39252   0.18630   0.00000  Uiso   1.00
H118   H     0.69176   0.37377   0.15150   0.00000  Uiso   1.00
C119   C     0.69484   0.44306   0.27459   0.00000  Uiso   1.00
H120   H     0.69660   0.46223   0.30911   0.00000  Uiso   1.00
O121   O     0.80298   0.67150   0.25307   0.00000  Uiso   1.00
B122   B     0.76216   0.66467   0.28675   0.00000  Uiso   1.00
C123   C     0.72758   0.59510   0.23371   0.00000  Uiso   1.00
H124   H     0.75352   0.60448   0.20540   0.00000  Uiso   1.00
C125   C     0.72630   0.62106   0.27769   0.00000  Uiso   1.00
C126   C     0.66049   0.56880   0.30581   0.00000  Uiso   1.00
H127   H     0.63717   0.55875   0.33585   0.00000  Uiso   1.00
C128   C     0.65960   0.54366   0.26070   0.00000  Uiso   1.00
C129   C     0.69272   0.60748   0.31370   0.00000  Uiso   1.00
H130   H     0.69176   0.62623   0.34850   0.00000  Uiso   1.00
C131   C     0.69484   0.55694   0.22541   0.00000  Uiso   1.00
H132   H     0.69660   0.53777   0.19089   0.00000  Uiso   1.00
O133   O     0.30298   0.17150   0.75307   0.00000  Uiso   1.00
B134   B     0.26216   0.16467   0.78675   0.00000  Uiso   1.00
C135   C     0.22758   0.09510   0.73371   0.00000  Uiso   1.00
H136   H     0.25352   0.10448   0.70540   0.00000  Uiso   1.00
C137   C     0.22630   0.12106   0.77769   0.00000  Uiso   1.00
C138   C     0.16049   0.06880   0.80581   0.00000  Uiso   1.00
H139   H     0.13717   0.05875   0.83585   0.00000  Uiso   1.00
C140   C     0.15960   0.04366   0.76070   0.00000  Uiso   1.00
C141   C     0.19272   0.10748   0.81370   0.00000  Uiso   1.00
H142   H     0.19176   0.12623   0.84850   0.00000  Uiso   1.00
C143   C     0.19484   0.05694   0.72541   0.00000  Uiso   1.00
H144   H     0.19660   0.03777   0.69089   0.00000  Uiso   1.00
O145   O     0.19702   0.17150   0.24693   0.00000  Uiso   1.00
B146   B     0.23784   0.16467   0.21325   0.00000  Uiso   1.00
C147   C     0.27242   0.09510   0.26629   0.00000  Uiso   1.00
H148   H     0.24648   0.10448   0.29460   0.00000  Uiso   1.00
C149   C     0.27370   0.12106   0.22231   0.00000  Uiso   1.00
C150   C     0.33951   0.06880   0.19419   0.00000  Uiso   1.00
H151   H     0.36283   0.05875   0.16415   0.00000  Uiso   1.00
C152   C     0.34040   0.04366   0.23930   0.00000  Uiso   1.00
C153   C     0.30728   0.10748   0.18630   0.00000  Uiso   1.00
H154   H     0.30824   0.12623   0.15150   0.00000  Uiso   1.00
C155   C     0.30516   0.05694   0.27459   0.00000  Uiso   1.00
H156   H     0.30340   0.03777   0.30911   0.00000  Uiso   1.00
O157   O     0.69702   0.67150   0.74693   0.00000  Uiso   1.00
B158   B     0.73784   0.66467   0.71325   0.00000  Uiso   1.00
C159   C     0.77242   0.59510   0.76629   0.00000  Uiso   1.00
H160   H     0.74648   0.60448   0.79460   0.00000  Uiso   1.00
C161   C     0.77370   0.62106   0.72231   0.00000  Uiso   1.00
C162   C     0.83951   0.56880   0.69419   0.00000  Uiso   1.00
H163   H     0.86283   0.55875   0.66415   0.00000  Uiso   1.00
C164   C     0.84040   0.54366   0.73930   0.00000  Uiso   1.00
C165   C     0.80728   0.60748   0.68630   0.00000  Uiso   1.00
H166   H     0.80824   0.62623   0.65150   0.00000  Uiso   1.00
C167   C     0.80516   0.55694   0.77459   0.00000  Uiso   1.00
H168   H     0.80340   0.53777   0.80911   0.00000  Uiso   1.00
O169   O     0.69702   0.32850   0.75307   0.00000  Uiso   1.00
B170   B     0.73784   0.33533   0.78675   0.00000  Uiso   1.00
C171   C     0.77242   0.40490   0.73371   0.00000  Uiso   1.00
H172   H     0.74648   0.39552   0.70540   0.00000  Uiso   1.00
C173   C     0.77370   0.37894   0.77769   0.00000  Uiso   1.00
C174   C     0.83951   0.43120   0.80581   0.00000  Uiso   1.00
H175   H     0.86283   0.44125   0.83585   0.00000  Uiso   1.00
C176   C     0.84040   0.45634   0.76070   0.00000  Uiso   1.00
C177   C     0.80728   0.39252   0.81370   0.00000  Uiso   1.00
H178   H     0.80824   0.37377   0.84850   0.00000  Uiso   1.00
C179   C     0.80516   0.44306   0.72541   0.00000  Uiso   1.00
H180   H     0.80340   0.46223   0.69089   0.00000  Uiso   1.00
O181   O     0.19702   0.82850   0.25307   0.00000  Uiso   1.00
B182   B     0.23784   0.83533   0.28675   0.00000  Uiso   1.00
C183   C     0.27242   0.90490   0.23371   0.00000  Uiso   1.00
H184   H     0.24648   0.89552   0.20540   0.00000  Uiso   1.00
C185   C     0.27370   0.87894   0.27769   0.00000  Uiso   1.00
C186   C     0.33951   0.93120   0.30581   0.00000  Uiso   1.00
H187   H     0.36283   0.94125   0.33585   0.00000  Uiso   1.00
C188   C     0.34040   0.95634   0.26070   0.00000  Uiso   1.00
C189   C     0.30728   0.89252   0.31370   0.00000  Uiso   1.00
H190   H     0.30824   0.87377   0.34850   0.00000  Uiso   1.00
C191   C     0.30516   0.94306   0.22541   0.00000  Uiso   1.00
H192   H     0.30340   0.96223   0.19089   0.00000  Uiso   1.00
O193   O     0.74693   0.30298   0.82850   0.00000  Uiso   1.00
B194   B     0.71325   0.26216   0.83533   0.00000  Uiso   1.00
C195   C     0.76629   0.22758   0.90490   0.00000  Uiso   1.00
H196   H     0.79460   0.25352   0.89552   0.00000  Uiso   1.00
C197   C     0.72231   0.22630   0.87894   0.00000  Uiso   1.00
C198   C     0.69419   0.16049   0.93120   0.00000  Uiso   1.00
H199   H     0.66415   0.13717   0.94125   0.00000  Uiso   1.00
C200   C     0.73930   0.15960   0.95634   0.00000  Uiso   1.00
C201   C     0.68630   0.19272   0.89252   0.00000  Uiso   1.00
H202   H     0.65150   0.19176   0.87377   0.00000  Uiso   1.00
C203   C     0.77459   0.19484   0.94306   0.00000  Uiso   1.00
H204   H     0.80911   0.19660   0.96223   0.00000  Uiso   1.00
O205   O     0.24693   0.80298   0.32850   0.00000  Uiso   1.00
B206   B     0.21325   0.76216   0.33533   0.00000  Uiso   1.00
C207   C     0.26629   0.72758   0.40490   0.00000  Uiso   1.00
H208   H     0.29460   0.75352   0.39552   0.00000  Uiso   1.00
C209   C     0.22231   0.72630   0.37894   0.00000  Uiso   1.00
C210   C     0.19419   0.66049   0.43120   0.00000  Uiso   1.00
H211   H     0.16415   0.63717   0.44125   0.00000  Uiso   1.00
C212   C     0.23930   0.65960   0.45634   0.00000  Uiso   1.00
C213   C     0.18630   0.69272   0.39252   0.00000  Uiso   1.00
H214   H     0.15150   0.69176   0.37377   0.00000  Uiso   1.00
C215   C     0.27459   0.69484   0.44306   0.00000  Uiso   1.00
H216   H     0.30911   0.69660   0.46223   0.00000  Uiso   1.00
O217   O     0.25307   0.80298   0.67150   0.00000  Uiso   1.00
B218   B     0.28675   0.76216   0.66467   0.00000  Uiso   1.00
C219   C     0.23371   0.72758   0.59510   0.00000  Uiso   1.00
H220   H     0.20540   0.75352   0.60448   0.00000  Uiso   1.00
C221   C     0.27769   0.72630   0.62106   0.00000  Uiso   1.00
C222   C     0.30581   0.66049   0.56880   0.00000  Uiso   1.00
H223   H     0.33585   0.63717   0.55875   0.00000  Uiso   1.00
C224   C     0.26070   0.65960   0.54366   0.00000  Uiso   1.00
C225   C     0.31370   0.69272   0.60748   0.00000  Uiso   1.00
H226   H     0.34850   0.69176   0.62623   0.00000  Uiso   1.00
C227   C     0.22541   0.69484   0.55694   0.00000  Uiso   1.00
H228   H     0.19089   0.69660   0.53777   0.00000  Uiso   1.00
O229   O     0.75307   0.30298   0.17150   0.00000  Uiso   1.00
B230   B     0.78675   0.26216   0.16467   0.00000  Uiso   1.00
C231   C     0.73371   0.22758   0.09510   0.00000  Uiso   1.00
H232   H     0.70540   0.25352   0.10448   0.00000  Uiso   1.00
C233   C     0.77769   0.22630   0.12106   0.00000  Uiso   1.00
C234   C     0.80581   0.16049   0.06880   0.00000  Uiso   1.00
H235   H     0.83585   0.13717   0.05875   0.00000  Uiso   1.00
C236   C     0.76070   0.15960   0.04366   0.00000  Uiso   1.00
C237   C     0.81370   0.19272   0.10748   0.00000  Uiso   1.00
H238   H     0.84850   0.19176   0.12623   0.00000  Uiso   1.00
C239   C     0.72541   0.19484   0.05694   0.00000  Uiso   1.00
H240   H     0.69089   0.19660   0.03777   0.00000  Uiso   1.00
O241   O     0.24693   0.19702   0.17150   0.00000  Uiso   1.00
B242   B     0.21325   0.23784   0.16467   0.00000  Uiso   1.00
C243   C     0.26629   0.27242   0.09510   0.00000  Uiso   1.00
H244   H     0.29460   0.24648   0.10448   0.00000  Uiso   1.00
C245   C     0.22231   0.27370   0.12106   0.00000  Uiso   1.00
C246   C     0.19419   0.33951   0.06880   0.00000  Uiso   1.00
H247   H     0.16415   0.36283   0.05875   0.00000  Uiso   1.00
C248   C     0.23930   0.34040   0.04366   0.00000  Uiso   1.00
C249   C     0.18630   0.30728   0.10748   0.00000  Uiso   1.00
H250   H     0.15150   0.30824   0.12623   0.00000  Uiso   1.00
C251   C     0.27459   0.30516   0.05694   0.00000  Uiso   1.00
H252   H     0.30911   0.30340   0.03777   0.00000  Uiso   1.00
O253   O     0.74693   0.69702   0.67150   0.00000  Uiso   1.00
B254   B     0.71325   0.73784   0.66467   0.00000  Uiso   1.00
C255   C     0.76629   0.77242   0.59510   0.00000  Uiso   1.00
H256   H     0.79460   0.74648   0.60448   0.00000  Uiso   1.00
C257   C     0.72231   0.77370   0.62106   0.00000  Uiso   1.00
C258   C     0.69419   0.83951   0.56880   0.00000  Uiso   1.00
H259   H     0.66415   0.86283   0.55875   0.00000  Uiso   1.00
C260   C     0.73930   0.84040   0.54366   0.00000  Uiso   1.00
C261   C     0.68630   0.80728   0.60748   0.00000  Uiso   1.00
H262   H     0.65150   0.80824   0.62623   0.00000  Uiso   1.00
C263   C     0.77459   0.80516   0.55694   0.00000  Uiso   1.00
H264   H     0.80911   0.80340   0.53777   0.00000  Uiso   1.00
O265   O     0.75307   0.69702   0.32850   0.00000  Uiso   1.00
B266   B     0.78675   0.73784   0.33533   0.00000  Uiso   1.00
C267   C     0.73371   0.77242   0.40490   0.00000  Uiso   1.00
H268   H     0.70540   0.74648   0.39552   0.00000  Uiso   1.00
C269   C     0.77769   0.77370   0.37894   0.00000  Uiso   1.00
C270   C     0.80581   0.83951   0.43120   0.00000  Uiso   1.00
H271   H     0.83585   0.86283   0.44125   0.00000  Uiso   1.00
C272   C     0.76070   0.84040   0.45634   0.00000  Uiso   1.00
C273   C     0.81370   0.80728   0.39252   0.00000  Uiso   1.00
H274   H     0.84850   0.80824   0.37377   0.00000  Uiso   1.00
C275   C     0.72541   0.80516   0.44306   0.00000  Uiso   1.00
H276   H     0.69089   0.80340   0.46223   0.00000  Uiso   1.00
O277   O     0.25307   0.19702   0.82850   0.00000  Uiso   1.00
B278   B     0.28675   0.23784   0.83533   0.00000  Uiso   1.00
C279   C     0.23371   0.27242   0.90490   0.00000  Uiso   1.00
H280   H     0.20540   0.24648   0.89552   0.00000  Uiso   1.00
C281   C     0.27769   0.27370   0.87894   0.00000  Uiso   1.00
C282   C     0.30581   0.33951   0.93120   0.00000  Uiso   1.00
H283   H     0.33585   0.36283   0.94125   0.00000  Uiso   1.00
C284   C     0.26070   0.34040   0.95634   0.00000  Uiso   1.00
C285   C     0.31370   0.30728   0.89252   0.00000  Uiso   1.00
H286   H     0.34850   0.30824   0.87377   0.00000  Uiso   1.00
C287   C     0.22541   0.30516   0.94306   0.00000  Uiso   1.00
H288   H     0.19089   0.30340   0.96223   0.00000  Uiso   1.00
O289   O     0.99693   0.07850   0.55298   0.00000  Uiso   1.00
B290   B     0.96325   0.08533   0.51216   0.00000  Uiso   1.00
C291   C     0.01629   0.15490   0.47758   0.00000  Uiso   1.00
H292   H     0.04460   0.14552   0.50352   0.00000  Uiso   1.00
C293   C     0.97231   0.12894   0.47630   0.00000  Uiso   1.00
C294   C     0.94419   0.18120   0.41049   0.00000  Uiso   1.00
H295   H     0.91415   0.19125   0.38717   0.00000  Uiso   1.00
C296   C     0.98930   0.20634   0.40960   0.00000  Uiso   1.00
C297   C     0.93630   0.14252   0.44272   0.00000  Uiso   1.00
H298   H     0.90150   0.12377   0.44176   0.00000  Uiso   1.00
C299   C     0.02459   0.19306   0.44484   0.00000  Uiso   1.00
H300   H     0.05911   0.21223   0.44660   0.00000  Uiso   1.00
O301   O     0.49693   0.57850   0.05298   0.00000  Uiso   1.00
B302   B     0.46325   0.58533   0.01216   0.00000  Uiso   1.00
C303   C     0.51629   0.65490   0.97758   0.00000  Uiso   1.00
H304   H     0.54460   0.64552   0.00352   0.00000  Uiso   1.00
C305   C     0.47231   0.62894   0.97630   0.00000  Uiso   1.00
C306   C     0.44419   0.68120   0.91049   0.00000  Uiso   1.00
H307   H     0.41415   0.69125   0.88717   0.00000  Uiso   1.00
C308   C     0.48930   0.70634   0.90960   0.00000  Uiso   1.00
C309   C     0.43630   0.64252   0.94272   0.00000  Uiso   1.00
H310   H     0.40150   0.62377   0.94176   0.00000  Uiso   1.00
C311   C     0.52459   0.69306   0.94484   0.00000  Uiso   1.00
H312   H     0.55911   0.71223   0.94660   0.00000  Uiso   1.00
O313   O     0.50307   0.92150   0.05298   0.00000  Uiso   1.00
B314   B     0.53675   0.91467   0.01216   0.00000  Uiso   1.00
C315   C     0.48371   0.84510   0.97758   0.00000  Uiso   1.00
H316   H     0.45540   0.85448   0.00352   0.00000  Uiso   1.00
C317   C     0.52769   0.87106   0.97630   0.00000  Uiso   1.00
C318   C     0.55581   0.81880   0.91049   0.00000  Uiso   1.00
H319   H     0.58585   0.80875   0.88717   0.00000  Uiso   1.00
C320   C     0.51070   0.79366   0.90960   0.00000  Uiso   1.00
C321   C     0.56370   0.85748   0.94272   0.00000  Uiso   1.00
H322   H     0.59850   0.87623   0.94176   0.00000  Uiso   1.00
C323   C     0.47541   0.80694   0.94484   0.00000  Uiso   1.00
H324   H     0.44089   0.78777   0.94660   0.00000  Uiso   1.00
O325   O     0.00307   0.42150   0.55298   0.00000  Uiso   1.00
B326   B     0.03675   0.41467   0.51216   0.00000  Uiso   1.00
C327   C     0.98371   0.34510   0.47758   0.00000  Uiso   1.00
H328   H     0.95540   0.35448   0.50352   0.00000  Uiso   1.00
C329   C     0.02769   0.37106   0.47630   0.00000  Uiso   1.00
C330   C     0.05581   0.31880   0.41049   0.00000  Uiso   1.00
H331   H     0.08585   0.30875   0.38717   0.00000  Uiso   1.00
C332   C     0.01070   0.29366   0.40960   0.00000  Uiso   1.00
C333   C     0.06370   0.35748   0.44272   0.00000  Uiso   1.00
H334   H     0.09850   0.37623   0.44176   0.00000  Uiso   1.00
C335   C     0.97541   0.30694   0.44484   0.00000  Uiso   1.00
H336   H     0.94089   0.28777   0.44660   0.00000  Uiso   1.00
O337   O     0.49693   0.42150   0.44702   0.00000  Uiso   1.00
B338   B     0.46325   0.41467   0.48784   0.00000  Uiso   1.00
C339   C     0.51629   0.34510   0.52242   0.00000  Uiso   1.00
H340   H     0.54460   0.35448   0.49648   0.00000  Uiso   1.00
C341   C     0.47231   0.37106   0.52370   0.00000  Uiso   1.00
C342   C     0.44419   0.31880   0.58951   0.00000  Uiso   1.00
H343   H     0.41415   0.30875   0.61283   0.00000  Uiso   1.00
C344   C     0.48930   0.29366   0.59040   0.00000  Uiso   1.00
C345   C     0.43630   0.35748   0.55728   0.00000  Uiso   1.00
H346   H     0.40150   0.37623   0.55824   0.00000  Uiso   1.00
C347   C     0.52459   0.30694   0.55516   0.00000  Uiso   1.00
H348   H     0.55911   0.28777   0.55340   0.00000  Uiso   1.00
O349   O     0.99693   0.92150   0.94702   0.00000  Uiso   1.00
B350   B     0.96325   0.91467   0.98784   0.00000  Uiso   1.00
C351   C     0.01629   0.84510   0.02242   0.00000  Uiso   1.00
H352   H     0.04460   0.85448   0.99648   0.00000  Uiso   1.00
C353   C     0.97231   0.87106   0.02370   0.00000  Uiso   1.00
C354   C     0.94419   0.81880   0.08951   0.00000  Uiso   1.00
H355   H     0.91415   0.80875   0.11283   0.00000  Uiso   1.00
C356   C     0.98930   0.79366   0.09040   0.00000  Uiso   1.00
C357   C     0.93630   0.85748   0.05728   0.00000  Uiso   1.00
H358   H     0.90150   0.87623   0.05824   0.00000  Uiso   1.00
C359   C     0.02459   0.80694   0.05516   0.00000  Uiso   1.00
H360   H     0.05911   0.78777   0.05340   0.00000  Uiso   1.00
O361   O     0.00307   0.57850   0.94702   0.00000  Uiso   1.00
B362   B     0.03675   0.58533   0.98784   0.00000  Uiso   1.00
C363   C     0.98371   0.65490   0.02242   0.00000  Uiso   1.00
H364   H     0.95540   0.64552   0.99648   0.00000  Uiso   1.00
C365   C     0.02769   0.62894   0.02370   0.00000  Uiso   1.00
C366   C     0.05581   0.68120   0.08951   0.00000  Uiso   1.00
H367   H     0.08585   0.69125   0.11283   0.00000  Uiso   1.00
C368   C     0.01070   0.70634   0.09040   0.00000  Uiso   1.00
C369   C     0.06370   0.64252   0.05728   0.00000  Uiso   1.00
H370   H     0.09850   0.62377   0.05824   0.00000  Uiso   1.00
C371   C     0.97541   0.69306   0.05516   0.00000  Uiso   1.00
H372   H     0.94089   0.71223   0.05340   0.00000  Uiso   1.00
O373   O     0.50307   0.07850   0.44702   0.00000  Uiso   1.00
B374   B     0.53675   0.08533   0.48784   0.00000  Uiso   1.00
C375   C     0.48371   0.15490   0.52242   0.00000  Uiso   1.00
H376   H     0.45540   0.14552   0.49648   0.00000  Uiso   1.00
C377   C     0.52769   0.12894   0.52370   0.00000  Uiso   1.00
C378   C     0.55581   0.18120   0.58951   0.00000  Uiso   1.00
H379   H     0.58585   0.19125   0.61283   0.00000  Uiso   1.00
C380   C     0.51070   0.20634   0.59040   0.00000  Uiso   1.00
C381   C     0.56370   0.14252   0.55728   0.00000  Uiso   1.00
H382   H     0.59850   0.12377   0.55824   0.00000  Uiso   1.00
C383   C     0.47541   0.19306   0.55516   0.00000  Uiso   1.00
H384   H     0.44089   0.21223   0.55340   0.00000  Uiso   1.00
O385   O     0.07850   0.55298   0.99693   0.00000  Uiso   1.00
B386   B     0.08533   0.51216   0.96325   0.00000  Uiso   1.00
C387   C     0.15490   0.47758   0.01629   0.00000  Uiso   1.00
H388   H     0.14552   0.50352   0.04460   0.00000  Uiso   1.00
C389   C     0.12894   0.47630   0.97231   0.00000  Uiso   1.00
C390   C     0.18120   0.41049   0.94419   0.00000  Uiso   1.00
H391   H     0.19125   0.38717   0.91415   0.00000  Uiso   1.00
C392   C     0.20634   0.40960   0.98930   0.00000  Uiso   1.00
C393   C     0.14252   0.44272   0.93630   0.00000  Uiso   1.00
H394   H     0.12377   0.44176   0.90150   0.00000  Uiso   1.00
C395   C     0.19306   0.44484   0.02459   0.00000  Uiso   1.00
H396   H     0.21223   0.44660   0.05911   0.00000  Uiso   1.00
O397   O     0.57850   0.05298   0.49693   0.00000  Uiso   1.00
B398   B     0.58533   0.01216   0.46325   0.00000  Uiso   1.00
C399   C     0.65490   0.97758   0.51629   0.00000  Uiso   1.00
H400   H     0.64552   0.00352   0.54460   0.00000  Uiso   1.00
C401   C     0.62894   0.97630   0.47231   0.00000  Uiso   1.00
C402   C     0.68120   0.91049   0.44419   0.00000  Uiso   1.00
H403   H     0.69125   0.88717   0.41415   0.00000  Uiso   1.00
C404   C     0.70634   0.90960   0.48930   0.00000  Uiso   1.00
C405   C     0.64252   0.94272   0.43630   0.00000  Uiso   1.00
H406   H     0.62377   0.94176   0.40150   0.00000  Uiso   1.00
C407   C     0.69306   0.94484   0.52459   0.00000  Uiso   1.00
H408   H     0.71223   0.94660   0.55911   0.00000  Uiso   1.00
O409   O     0.92150   0.05298   0.50307   0.00000  Uiso   1.00
B410   B     0.91467   0.01216   0.53675   0.00000  Uiso   1.00
C411   C     0.84510   0.97758   0.48371   0.00000  Uiso   1.00
H412   H     0.85448   0.00352   0.45540   0.00000  Uiso   1.00
C413   C     0.87106   0.97630   0.52769   0.00000  Uiso   1.00
C414   C     0.81880   0.91049   0.55581   0.00000  Uiso   1.00
H415   H     0.80875   0.88717   0.58585   0.00000  Uiso   1.00
C416   C     0.79366   0.90960   0.51070   0.00000  Uiso   1.00
C417   C     0.85748   0.94272   0.56370   0.00000  Uiso   1.00
H418   H     0.87623   0.94176   0.59850   0.00000  Uiso   1.00
C419   C     0.80694   0.94484   0.47541   0.00000  Uiso   1.00
H420   H     0.78777   0.94660   0.44089   0.00000  Uiso   1.00
O421   O     0.42150   0.55298   0.00307   0.00000  Uiso   1.00
B422   B     0.41467   0.51216   0.03675   0.00000  Uiso   1.00
C423   C     0.34510   0.47758   0.98371   0.00000  Uiso   1.00
H424   H     0.35448   0.50352   0.95540   0.00000  Uiso   1.00
C425   C     0.37106   0.47630   0.02769   0.00000  Uiso   1.00
C426   C     0.31880   0.41049   0.05581   0.00000  Uiso   1.00
H427   H     0.30875   0.38717   0.08585   0.00000  Uiso   1.00
C428   C     0.29366   0.40960   0.01070   0.00000  Uiso   1.00
C429   C     0.35748   0.44272   0.06370   0.00000  Uiso   1.00
H430   H     0.37623   0.44176   0.09850   0.00000  Uiso   1.00
C431   C     0.30694   0.44484   0.97541   0.00000  Uiso   1.00
H432   H     0.28777   0.44660   0.94089   0.00000  Uiso   1.00
O433   O     0.42150   0.44702   0.49693   0.00000  Uiso   1.00
B434   B     0.41467   0.48784   0.46325   0.00000  Uiso   1.00
C435   C     0.34510   0.52242   0.51629   0.00000  Uiso   1.00
H436   H     0.35448   0.49648   0.54460   0.00000  Uiso   1.00
C437   C     0.37106   0.52370   0.47231   0.00000  Uiso   1.00
C438   C     0.31880   0.58951   0.44419   0.00000  Uiso   1.00
H439   H     0.30875   0.61283   0.41415   0.00000  Uiso   1.00
C440   C     0.29366   0.59040   0.48930   0.00000  Uiso   1.00
C441   C     0.35748   0.55728   0.43630   0.00000  Uiso   1.00
H442   H     0.37623   0.55824   0.40150   0.00000  Uiso   1.00
C443   C     0.30694   0.55516   0.52459   0.00000  Uiso   1.00
H444   H     0.28777   0.55340   0.55911   0.00000  Uiso   1.00
O445   O     0.92150   0.94702   0.99693   0.00000  Uiso   1.00
B446   B     0.91467   0.98784   0.96325   0.00000  Uiso   1.00
C447   C     0.84510   0.02242   0.01629   0.00000  Uiso   1.00
H448   H     0.85448   0.99648   0.04460   0.00000  Uiso   1.00
C449   C     0.87106   0.02370   0.97231   0.00000  Uiso   1.00
C450   C     0.81880   0.08951   0.94419   0.00000  Uiso   1.00
H451   H     0.80875   0.11283   0.91415   0.00000  Uiso   1.00
C452   C     0.79366   0.09040   0.98930   0.00000  Uiso   1.00
C453   C     0.85748   0.05728   0.93630   0.00000  Uiso   1.00
H454   H     0.87623   0.05824   0.90150   0.00000  Uiso   1.00
C455   C     0.80694   0.05516   0.02459   0.00000  Uiso   1.00
H456   H     0.78777   0.05340   0.05911   0.00000  Uiso   1.00
O457   O     0.57850   0.94702   0.00307   0.00000  Uiso   1.00
B458   B     0.58533   0.98784   0.03675   0.00000  Uiso   1.00
C459   C     0.65490   0.02242   0.98371   0.00000  Uiso   1.00
H460   H     0.64552   0.99648   0.95540   0.00000  Uiso   1.00
C461   C     0.62894   0.02370   0.02769   0.00000  Uiso   1.00
C462   C     0.68120   0.08951   0.05581   0.00000  Uiso   1.00
H463   H     0.69125   0.11283   0.08585   0.00000  Uiso   1.00
C464   C     0.70634   0.09040   0.01070   0.00000  Uiso   1.00
C465   C     0.64252   0.05728   0.06370   0.00000  Uiso   1.00
H466   H     0.62377   0.05824   0.09850   0.00000  Uiso   1.00
C467   C     0.69306   0.05516   0.97541   0.00000  Uiso   1.00
H468   H     0.71223   0.05340   0.94089   0.00000  Uiso   1.00
O469   O     0.07850   0.44702   0.50307   0.00000  Uiso   1.00
B470   B     0.08533   0.48784   0.53675   0.00000  Uiso   1.00
C471   C     0.15490   0.52242   0.48371   0.00000  Uiso   1.00
H472   H     0.14552   0.49648   0.45540   0.00000  Uiso   1.00
C473   C     0.12894   0.52370   0.52769   0.00000  Uiso   1.00
C474   C     0.18120   0.58951   0.55581   0.00000  Uiso   1.00
H475   H     0.19125   0.61283   0.58585   0.00000  Uiso   1.00
C476   C     0.20634   0.59040   0.51070   0.00000  Uiso   1.00
C477   C     0.14252   0.55728   0.56370   0.00000  Uiso   1.00
H478   H     0.12377   0.55824   0.59850   0.00000  Uiso   1.00
C479   C     0.19306   0.55516   0.47541   0.00000  Uiso   1.00
H480   H     0.21223   0.55340   0.44089   0.00000  Uiso   1.00
O481   O     0.55298   0.99693   0.07850   0.00000  Uiso   1.00
B482   B     0.51216   0.96325   0.08533   0.00000  Uiso   1.00
C483   C     0.47758   0.01629   0.15490   0.00000  Uiso   1.00
H484   H     0.50352   0.04460   0.14552   0.00000  Uiso   1.00
C485   C     0.47630   0.97231   0.12894   0.00000  Uiso   1.00
C486   C     0.41049   0.94419   0.18120   0.00000  Uiso   1.00
H487   H     0.38717   0.91415   0.19125   0.00000  Uiso   1.00
C488   C     0.40960   0.98930   0.20634   0.00000  Uiso   1.00
C489   C     0.44272   0.93630   0.14252   0.00000  Uiso   1.00
H490   H     0.44176   0.90150   0.12377   0.00000  Uiso   1.00
C491   C     0.44484   0.02459   0.19306   0.00000  Uiso   1.00
H492   H     0.44660   0.05911   0.21223   0.00000  Uiso   1.00
O493   O     0.05298   0.49693   0.57850   0.00000  Uiso   1.00
B494   B     0.01216   0.46325   0.58533   0.00000  Uiso   1.00
C495   C     0.97758   0.51629   0.65490   0.00000  Uiso   1.00
H496   H     0.00352   0.54460   0.64552   0.00000  Uiso   1.00
C497   C     0.97630   0.47231   0.62894   0.00000  Uiso   1.00
C498   C     0.91049   0.44419   0.68120   0.00000  Uiso   1.00
H499   H     0.88717   0.41415   0.69125   0.00000  Uiso   1.00
C500   C     0.90960   0.48930   0.70634   0.00000  Uiso   1.00
C501   C     0.94272   0.43630   0.64252   0.00000  Uiso   1.00
H502   H     0.94176   0.40150   0.62377   0.00000  Uiso   1.00
C503   C     0.94484   0.52459   0.69306   0.00000  Uiso   1.00
H504   H     0.94660   0.55911   0.71223   0.00000  Uiso   1.00
O505   O     0.05298   0.50307   0.92150   0.00000  Uiso   1.00
B506   B     0.01216   0.53675   0.91467   0.00000  Uiso   1.00
C507   C     0.97758   0.48371   0.84510   0.00000  Uiso   1.00
H508   H     0.00352   0.45540   0.85448   0.00000  Uiso   1.00
C509   C     0.97630   0.52769   0.87106   0.00000  Uiso   1.00
C510   C     0.91049   0.55581   0.81880   0.00000  Uiso   1.00
H511   H     0.88717   0.58585   0.80875   0.00000  Uiso   1.00
C512   C     0.90960   0.51070   0.79366   0.00000  Uiso   1.00
C513   C     0.94272   0.56370   0.85748   0.00000  Uiso   1.00
H514   H     0.94176   0.59850   0.87623   0.00000  Uiso   1.00
C515   C     0.94484   0.47541   0.80694   0.00000  Uiso   1.00
H516   H     0.94660   0.44089   0.78777   0.00000  Uiso   1.00
O517   O     0.55298   0.00307   0.42150   0.00000  Uiso   1.00
B518   B     0.51216   0.03675   0.41467   0.00000  Uiso   1.00
C519   C     0.47758   0.98371   0.34510   0.00000  Uiso   1.00
H520   H     0.50352   0.95540   0.35448   0.00000  Uiso   1.00
C521   C     0.47630   0.02769   0.37106   0.00000  Uiso   1.00
C522   C     0.41049   0.05581   0.31880   0.00000  Uiso   1.00
H523   H     0.38717   0.08585   0.30875   0.00000  Uiso   1.00
C524   C     0.40960   0.01070   0.29366   0.00000  Uiso   1.00
C525   C     0.44272   0.06370   0.35748   0.00000  Uiso   1.00
H526   H     0.44176   0.09850   0.37623   0.00000  Uiso   1.00
C527   C     0.44484   0.97541   0.30694   0.00000  Uiso   1.00
H528   H     0.44660   0.94089   0.28777   0.00000  Uiso   1.00
O529   O     0.44702   0.49693   0.42150   0.00000  Uiso   1.00
B530   B     0.48784   0.46325   0.41467   0.00000  Uiso   1.00
C531   C     0.52242   0.51629   0.34510   0.00000  Uiso   1.00
H532   H     0.49648   0.54460   0.35448   0.00000  Uiso   1.00
C533   C     0.52370   0.47231   0.37106   0.00000  Uiso   1.00
C534   C     0.58951   0.44419   0.31880   0.00000  Uiso   1.00
H535   H     0.61283   0.41415   0.30875   0.00000  Uiso   1.00
C536   C     0.59040   0.48930   0.29366   0.00000  Uiso   1.00
C537   C     0.55728   0.43630   0.35748   0.00000  Uiso   1.00
H538   H     0.55824   0.40150   0.37623   0.00000  Uiso   1.00
C539   C     0.55516   0.52459   0.30694   0.00000  Uiso   1.00
H540   H     0.55340   0.55911   0.28777   0.00000  Uiso   1.00
O541   O     0.94702   0.99693   0.92150   0.00000  Uiso   1.00
B542   B     0.98784   0.96325   0.91467   0.00000  Uiso   1.00
C543   C     0.02242   0.01629   0.84510   0.00000  Uiso   1.00
H544   H     0.99648   0.04460   0.85448   0.00000  Uiso   1.00
C545   C     0.02370   0.97231   0.87106   0.00000  Uiso   1.00
C546   C     0.08951   0.94419   0.81880   0.00000  Uiso   1.00
H547   H     0.11283   0.91415   0.80875   0.00000  Uiso   1.00
C548   C     0.09040   0.98930   0.79366   0.00000  Uiso   1.00
C549   C     0.05728   0.93630   0.85748   0.00000  Uiso   1.00
H550   H     0.05824   0.90150   0.87623   0.00000  Uiso   1.00
C551   C     0.05516   0.02459   0.80694   0.00000  Uiso   1.00
H552   H     0.05340   0.05911   0.78777   0.00000  Uiso   1.00
O553   O     0.94702   0.00307   0.57850   0.00000  Uiso   1.00
B554   B     0.98784   0.03675   0.58533   0.00000  Uiso   1.00
C555   C     0.02242   0.98371   0.65490   0.00000  Uiso   1.00
H556   H     0.99648   0.95540   0.64552   0.00000  Uiso   1.00
C557   C     0.02370   0.02769   0.62894   0.00000  Uiso   1.00
C558   C     0.08951   0.05581   0.68120   0.00000  Uiso   1.00
H559   H     0.11283   0.08585   0.69125   0.00000  Uiso   1.00
C560   C     0.09040   0.01070   0.70634   0.00000  Uiso   1.00
C561   C     0.05728   0.06370   0.64252   0.00000  Uiso   1.00
H562   H     0.05824   0.09850   0.62377   0.00000  Uiso   1.00
C563   C     0.05516   0.97541   0.69306   0.00000  Uiso   1.00
H564   H     0.05340   0.94089   0.71223   0.00000  Uiso   1.00
O565   O     0.44702   0.50307   0.07850   0.00000  Uiso   1.00
B566   B     0.48784   0.53675   0.08533   0.00000  Uiso   1.00
C567   C     0.52242   0.48371   0.15490   0.00000  Uiso   1.00
H568   H     0.49648   0.45540   0.14552   0.00000  Uiso   1.00
C569   C     0.52370   0.52769   0.12894   0.00000  Uiso   1.00
C570   C     0.58951   0.55581   0.18120   0.00000  Uiso   1.00
H571   H     0.61283   0.58585   0.19125   0.00000  Uiso   1.00
C572   C     0.59040   0.51070   0.20634   0.00000  Uiso   1.00
C573   C     0.55728   0.56370   0.14252   0.00000  Uiso   1.00
H574   H     0.55824   0.59850   0.12377   0.00000  Uiso   1.00
C575   C     0.55516   0.47541   0.19306   0.00000  Uiso   1.00
H576   H     0.55340   0.44089   0.21223   0.00000  Uiso   1.00
C577   C     0.00000   0.75000   0.12500   0.00000  Uiso   1.00
C578   C     0.50000   0.25000   0.62500   0.00000  Uiso   1.00
C579   C     0.00000   0.25000   0.37500   0.00000  Uiso   1.00
C580   C     0.50000   0.75000   0.87500   0.00000  Uiso   1.00
C581   C     0.12500   0.00000   0.75000   0.00000  Uiso   1.00
C582   C     0.62500   0.50000   0.25000   0.00000  Uiso   1.00
C583   C     0.37500   0.00000   0.25000   0.00000  Uiso   1.00
C584   C     0.87500   0.50000   0.75000   0.00000  Uiso   1.00
C585   C     0.75000   0.12500   0.00000   0.00000  Uiso   1.00
C586   C     0.25000   0.62500   0.50000   0.00000  Uiso   1.00
C587   C     0.25000   0.37500   0.00000   0.00000  Uiso   1.00
C588   C     0.75000   0.87500   0.50000   0.00000  Uiso   1.00
loop_
_geom_bond_atom_site_label_1
_geom_bond_atom_site_label_2
_geom_bond_distance
_geom_bond_site_symmetry_2
_ccdc_geom_bond_type
O1     B2      1.450   .     S
O1     B266    1.457   .     S
B2     C5      1.554   .     S
B2     O121    1.457   .     S
C3     H4      1.074   .     S
C3     C5      1.388   .     D
C3     C11     1.385   .     S
C5     C9      1.388   .     S
C6     H7      1.069   .     S
C6     C8      1.404   .     S
C6     C9      1.385   .     D
C8     C11     1.403   .     D
C8     C577    1.542   1_655 S
C9     H10     1.075   .     S
C11    H12     1.074   .     S
O13    B14     1.450   .     S
O13    B278    1.457   .     S
B14    C17     1.554   .     S
B14    O133    1.457   .     S
C15    H16     1.074   .     S
C15    C17     1.388   .     D
C15    C23     1.385   .     S
C17    C21     1.388   .     S
C18    H19     1.069   .     S
C18    C20     1.404   .     S
C18    C21     1.385   .     D
C20    C23     1.403   .     D
C20    C578    1.542   .     S
C21    H22     1.075   .     S
C23    H24     1.074   .     S
O25    B26     1.450   .     S
O25    B194    1.457   .     S
B26    C29     1.554   .     S
B26    O169    1.457   .     S
C27    H28     1.074   .     S
C27    C29     1.388   .     D
C27    C35     1.385   .     S
C29    C33     1.388   .     S
C30    H31     1.069   .     S
C30    C32     1.404   .     S
C30    C33     1.385   .     D
C32    C35     1.403   .     D
C32    C578    1.542   .     S
C33    H34     1.075   .     S
C35    H36     1.074   .     S
O37    B38     1.450   .     S
O37    B206    1.457   .     S
B38    C41     1.554   .     S
B38    O181    1.457   .     S
C39    H40     1.074   .     S
C39    C41     1.388   .     D
C39    C47     1.385   .     S
C41    C45     1.388   .     S
C42    H43     1.069   .     S
C42    C44     1.404   .     S
C42    C45     1.385   .     D
C44    C47     1.403   .     D
C44    C577    1.542   .     S
C45    H46     1.075   .     S
C47    H48     1.074   .     S
O49    B50     1.450   .     S
O49    B242    1.457   .     S
B50    C53     1.554   .     S
B50    O145    1.457   .     S
C51    H52     1.074   .     S
C51    C53     1.388   .     S
C51    C59     1.385   .     D
C53    C57     1.388   .     D
C54    H55     1.069   .     S
C54    C56     1.404   .     D
C54    C57     1.385   .     S
C56    C59     1.403   .     S
C56    C579    1.542   .     S
C57    H58     1.075   .     S
C59    H60     1.074   .     S
O61    B62     1.450   .     S
O61    B254    1.457   .     S
B62    C65     1.554   .     S
B62    O157    1.457   .     S
C63    H64     1.074   .     S
C63    C65     1.388   .     D
C63    C71     1.385   .     S
C65    C69     1.388   .     S
C66    H67     1.069   .     S
C66    C68     1.404   .     S
C66    C69     1.385   .     D
C68    C71     1.403   .     D
C68    C580    1.542   .     S
C69    H70     1.075   .     S
C71    H72     1.074   .     S
O73    B74     1.450   .     S
O73    B218    1.457   .     S
B74    C77     1.554   .     S
B74    O97     1.457   .     S
C75    H76     1.074   .     S
C75    C77     1.388   .     D
C75    C83     1.385   .     S
C77    C81     1.388   .     S
C78    H79     1.069   .     S
C78    C80     1.404   .     S
C78    C81     1.385   .     D
C80    C83     1.403   .     D
C80    C580    1.542   .     S
C81    H82     1.075   .     S
C83    H84     1.074   .     S
O85    B86     1.450   .     S
O85    B230    1.457   .     S
B86    C89     1.554   .     S
B86    O109    1.457   .     S
C87    H88     1.074   .     S
C87    C89     1.388   .     S
C87    C95     1.385   .     D
C89    C93     1.388   .     D
C90    H91     1.069   .     S
C90    C92     1.404   .     D
C90    C93     1.385   .     S
C92    C95     1.403   .     S
C92    C579    1.542   1_655 S
C93    H94     1.075   .     S
C95    H96     1.074   .     S
O97    B98     1.450   .     S
B98    C101    1.554   .     S
B98    O217    1.457   .     S
C99    H100    1.074   .     S
C99    C101    1.388   .     D
C99    C107    1.385   .     S
C101   C105    1.388   .     S
C102   H103    1.069   .     S
C102   C104    1.404   .     S
C102   C105    1.385   .     D
C104   C107    1.403   .     D
C104   C581    1.542   1_565 S
C105   H106    1.075   .     S
C107   H108    1.074   .     S
O109   B110    1.450   .     S
B110   C113    1.554   .     S
B110   O229    1.457   .     S
C111   H112    1.074   .     S
C111   C113    1.388   .     S
C111   C119    1.385   .     D
C113   C117    1.388   .     D
C114   H115    1.069   .     S
C114   C116    1.404   .     D
C114   C117    1.385   .     S
C116   C119    1.403   .     S
C116   C582    1.542   .     S
C117   H118    1.075   .     S
C119   H120    1.074   .     S
O121   B122    1.450   .     S
B122   C125    1.554   .     S
B122   O265    1.457   .     S
C123   H124    1.074   .     S
C123   C125    1.388   .     S
C123   C131    1.385   .     D
C125   C129    1.388   .     D
C126   H127    1.069   .     S
C126   C128    1.404   .     D
C126   C129    1.385   .     S
C128   C131    1.403   .     S
C128   C582    1.542   .     S
C129   H130    1.075   .     S
C131   H132    1.074   .     S
O133   B134    1.450   .     S
B134   C137    1.554   .     S
B134   O277    1.457   .     S
C135   H136    1.074   .     S
C135   C137    1.388   .     D
C135   C143    1.385   .     S
C137   C141    1.388   .     S
C138   H139    1.069   .     S
C138   C140    1.404   .     S
C138   C141    1.385   .     D
C140   C143    1.403   .     D
C140   C581    1.542   .     S
C141   H142    1.075   .     S
C143   H144    1.074   .     S
O145   B146    1.450   .     S
B146   C149    1.554   .     S
B146   O241    1.457   .     S
C147   H148    1.074   .     S
C147   C149    1.388   .     S
C147   C155    1.385   .     D
C149   C153    1.388   .     D
C150   H151    1.069   .     S
C150   C152    1.404   .     D
C150   C153    1.385   .     S
C152   C155    1.403   .     S
C152   C583    1.542   .     S
C153   H154    1.075   .     S
C155   H156    1.074   .     S
O157   B158    1.450   .     S
B158   C161    1.554   .     S
B158   O253    1.457   .     S
C159   H160    1.074   .     S
C159   C161    1.388   .     D
C159   C167    1.385   .     S
C161   C165    1.388   .     S
C162   H163    1.069   .     S
C162   C164    1.404   .     S
C162   C165    1.385   .     D
C164   C167    1.403   .     D
C164   C584    1.542   .     S
C165   H166    1.075   .     S
C167   H168    1.074   .     S
O169   B170    1.450   .     S
B170   C173    1.554   .     S
B170   O193    1.457   .     S
C171   H172    1.074   .     S
C171   C173    1.388   .     S
C171   C179    1.385   .     D
C173   C177    1.388   .     D
C174   H175    1.069   .     S
C174   C176    1.404   .     D
C174   C177    1.385   .     S
C176   C179    1.403   .     S
C176   C584    1.542   .     S
C177   H178    1.075   .     S
C179   H180    1.074   .     S
O181   B182    1.450   .     S
B182   C185    1.554   .     S
B182   O205    1.457   .     S
C183   H184    1.074   .     S
C183   C185    1.388   .     S
C183   C191    1.385   .     D
C185   C189    1.388   .     D
C186   H187    1.069   .     S
C186   C188    1.404   .     D
C186   C189    1.385   .     S
C188   C191    1.403   .     S
C188   C583    1.542   1_565 S
C189   H190    1.075   .     S
C191   H192    1.074   .     S
O193   B194    1.450   .     S
B194   C197    1.554   .     S
C195   H196    1.074   .     S
C195   C197    1.388   .     D
C195   C203    1.385   .     S
C197   C201    1.388   .     S
C198   H199    1.069   .     S
C198   C200    1.404   .     S
C198   C201    1.385   .     D
C200   C203    1.403   .     D
C200   C585    1.542   1_556 S
C201   H202    1.075   .     S
C203   H204    1.074   .     S
O205   B206    1.450   .     S
B206   C209    1.554   .     S
C207   H208    1.074   .     S
C207   C209    1.388   .     S
C207   C215    1.385   .     D
C209   C213    1.388   .     D
C210   H211    1.069   .     S
C210   C212    1.404   .     D
C210   C213    1.385   .     S
C212   C215    1.403   .     S
C212   C586    1.542   .     S
C213   H214    1.075   .     S
C215   H216    1.074   .     S
O217   B218    1.450   .     S
B218   C221    1.554   .     S
C219   H220    1.074   .     S
C219   C221    1.388   .     D
C219   C227    1.385   .     S
C221   C225    1.388   .     S
C222   H223    1.069   .     S
C222   C224    1.404   .     S
C222   C225    1.385   .     D
C224   C227    1.403   .     D
C224   C586    1.542   .     S
C225   H226    1.075   .     S
C227   H228    1.074   .     S
O229   B230    1.450   .     S
B230   C233    1.554   .     S
C231   H232    1.074   .     S
C231   C233    1.388   .     D
C231   C239    1.385   .     S
C233   C237    1.388   .     S
C234   H235    1.069   .     S
C234   C236    1.404   .     S
C234   C237    1.385   .     D
C236   C239    1.403   .     D
C236   C585    1.542   .     S
C237   H238    1.075   .     S
C239   H240    1.074   .     S
O241   B242    1.450   .     S
B242   C245    1.554   .     S
C243   H244    1.074   .     S
C243   C245    1.388   .     D
C243   C251    1.385   .     S
C245   C249    1.388   .     S
C246   H247    1.069   .     S
C246   C248    1.404   .     S
C246   C249    1.385   .     D
C248   C251    1.403   .     D
C248   C587    1.542   .     S
C249   H250    1.075   .     S
C251   H252    1.074   .     S
O253   B254    1.450   .     S
B254   C257    1.554   .     S
C255   H256    1.074   .     S
C255   C257    1.388   .     D
C255   C263    1.385   .     S
C257   C261    1.388   .     S
C258   H259    1.069   .     S
C258   C260    1.404   .     S
C258   C261    1.385   .     D
C260   C263    1.403   .     D
C260   C588    1.542   .     S
C261   H262    1.075   .     S
C263   H264    1.074   .     S
O265   B266    1.450   .     S
B266   C269    1.554   .     S
C267   H268    1.074   .     S
C267   C269    1.388   .     S
C267   C275    1.385   .     D
C269   C273    1.388   .     D
C270   H271    1.069   .     S
C270   C272    1.404   .     D
C270   C273    1.385   .     S
C272   C275    1.403   .     S
C272   C588    1.542   .     S
C273   H274    1.075   .     S
C275   H276    1.074   .     S
O277   B278    1.450   .     S
B278   C281    1.554   .     S
C279   H280    1.074   .     S
C279   C281    1.388   .     D
C279   C287    1.385   .     S
C281   C285    1.388   .     S
C282   H283    1.069   .     S
C282   C284    1.404   .     S
C282   C285    1.385   .     D
C284   C287    1.403   .     D
C284   C587    1.542   1_556 S
C285   H286    1.075   .     S
C287   H288    1.074   .     S
O289   B290    1.450   .     S
O289   B554    1.457   .     S
B290   C293    1.554   .     S
B290   O409    1.457   .     S
C291   H292    1.074   .     S
C291   C293    1.388   1_455 D
C291   C299    1.385   .     S
C293   C291    1.388   1_655 D
C293   C297    1.388   .     S
C294   H295    1.069   .     S
C294   C296    1.404   .     S
C294   C297    1.385   .     D
C296   C299    1.403   1_655 D
C296   C579    1.542   1_655 S
C297   H298    1.075   .     S
C299   C296    1.403   1_455 D
C299   H300    1.074   .     S
O301   B302    1.450   .     S
O301   B566    1.457   .     S
B302   C305    1.554   1_554 S
B302   O421    1.457   .     S
C303   H304    1.074   1_556 S
C303   C305    1.388   .     D
C303   C311    1.385   .     S
H304   C303    1.074   1_554 S
C305   B302    1.554   1_556 S
C305   C309    1.388   .     S
C306   H307    1.069   .     S
C306   C308    1.404   .     S
C306   C309    1.385   .     D
C308   C311    1.403   .     D
C308   C580    1.542   .     S
C309   H310    1.075   .     S
C311   H312    1.074   .     S
O313   B314    1.450   .     S
O313   B482    1.457   .     S
B314   C317    1.554   1_554 S
B314   O457    1.457   .     S
C315   H316    1.074   1_556 S
C315   C317    1.388   .     D
C315   C323    1.385   .     S
H316   C315    1.074   1_554 S
C317   B314    1.554   1_556 S
C317   C321    1.388   .     S
C318   H319    1.069   .     S
C318   C320    1.404   .     S
C318   C321    1.385   .     D
C320   C323    1.403   .     D
C320   C580    1.542   .     S
C321   H322    1.075   .     S
C323   H324    1.074   .     S
O325   B326    1.450   .     S
O325   B494    1.457   .     S
B326   C329    1.554   .     S
B326   O469    1.457   .     S
C327   H328    1.074   .     S
C327   C329    1.388   1_655 D
C327   C335    1.385   .     S
C329   C327    1.388   1_455 D
C329   C333    1.388   .     S
C330   H331    1.069   .     S
C330   C332    1.404   .     S
C330   C333    1.385   .     D
C332   C335    1.403   1_455 D
C332   C579    1.542   .     S
C333   H334    1.075   .     S
C335   C332    1.403   1_655 D
C335   H336    1.074   .     S
O337   B338    1.450   .     S
O337   B530    1.457   .     S
B338   C341    1.554   .     S
B338   O433    1.457   .     S
C339   H340    1.074   .     S
C339   C341    1.388   .     S
C339   C347    1.385   .     D
C341   C345    1.388   .     D
C342   H343    1.069   .     S
C342   C344    1.404   .     D
C342   C345    1.385   .     S
C344   C347    1.403   .     S
C344   C578    1.542   .     S
C345   H346    1.075   .     S
C347   H348    1.074   .     S
O349   B350    1.450   .     S
O349   B542    1.457   .     S
B350   C353    1.554   1_556 S
B350   O445    1.457   .     S
C351   H352    1.074   1_554 S
C351   C353    1.388   1_455 S
C351   C359    1.385   .     D
H352   C351    1.074   1_556 S
C353   C351    1.388   1_655 S
C353   B350    1.554   1_554 S
C353   C357    1.388   .     D
C354   H355    1.069   .     S
C354   C356    1.404   .     D
C354   C357    1.385   .     S
C356   C359    1.403   1_655 S
C356   C577    1.542   1_655 S
C357   H358    1.075   .     S
C359   C356    1.403   1_455 S
C359   H360    1.074   .     S
O361   B362    1.450   .     S
O361   B506    1.457   .     S
B362   C365    1.554   1_556 S
B362   O385    1.457   .     S
C363   H364    1.074   1_554 S
C363   C365    1.388   1_655 S
C363   C371    1.385   .     D
H364   C363    1.074   1_556 S
C365   C363    1.388   1_455 S
C365   B362    1.554   1_554 S
C365   C369    1.388   .     D
C366   H367    1.069   .     S
C366   C368    1.404   .     D
C366   C369    1.385   .     S
C368   C371    1.403   1_455 S
C368   C577    1.542   .     S
C369   H370    1.075   .     S
C371   C368    1.403   1_655 S
C371   H372    1.074   .     S
O373   B374    1.450   .     S
O373   B518    1.457   .     S
B374   C377    1.554   .     S
B374   O397    1.457   .     S
C375   H376    1.074   .     S
C375   C377    1.388   .     S
C375   C383    1.385   .     D
C377   C381    1.388   .     D
C378   H379    1.069   .     S
C378   C380    1.404   .     D
C378   C381    1.385   .     S
C380   C383    1.403   .     S
C380   C578    1.542   .     S
C381   H382    1.075   .     S
C383   H384    1.074   .     S
O385   B386    1.450   .     S
B386   C389    1.554   .     S
B386   O505    1.457   .     S
C387   H388    1.074   .     S
C387   C389    1.388   1_554 S
C387   C395    1.385   .     D
C389   C387    1.388   1_556 S
C389   C393    1.388   .     D
C390   H391    1.069   .     S
C390   C392    1.404   .     D
C390   C393    1.385   .     S
C392   C395    1.403   1_556 S
C392   C587    1.542   1_556 S
C393   H394    1.075   .     S
C395   C392    1.403   1_554 S
C395   H396    1.074   .     S
O397   B398    1.450   .     S
B398   C401    1.554   1_545 S
B398   O517    1.457   .     S
C399   H400    1.074   1_565 S
C399   C401    1.388   .     S
C399   C407    1.385   .     D
H400   C399    1.074   1_545 S
C401   B398    1.554   1_565 S
C401   C405    1.388   .     D
C402   H403    1.069   .     S
C402   C404    1.404   .     D
C402   C405    1.385   .     S
C404   C407    1.403   .     S
C404   C588    1.542   .     S
C405   H406    1.075   .     S
C407   H408    1.074   .     S
O409   B410    1.450   .     S
B410   C413    1.554   1_545 S
B410   O553    1.457   .     S
C411   H412    1.074   1_565 S
C411   C413    1.388   .     S
C411   C419    1.385   .     D
H412   C411    1.074   1_545 S
C413   B410    1.554   1_565 S
C413   C417    1.388   .     D
C414   H415    1.069   .     S
C414   C416    1.404   .     D
C414   C417    1.385   .     S
C416   C419    1.403   .     S
C416   C588    1.542   .     S
C417   H418    1.075   .     S
C419   H420    1.074   .     S
O421   B422    1.450   .     S
B422   C425    1.554   .     S
B422   O565    1.457   .     S
C423   H424    1.074   .     S
C423   C425    1.388   1_556 S
C423   C431    1.385   .     D
C425   C423    1.388   1_554 S
C425   C429    1.388   .     D
C426   H427    1.069   .     S
C426   C428    1.404   .     D
C426   C429    1.385   .     S
C428   C431    1.403   1_554 S
C428   C587    1.542   .     S
C429   H430    1.075   .     S
C431   C428    1.403   1_556 S
C431   H432    1.074   .     S
O433   B434    1.450   .     S
B434   C437    1.554   .     S
B434   O529    1.457   .     S
C435   H436    1.074   .     S
C435   C437    1.388   .     D
C435   C443    1.385   .     S
C437   C441    1.388   .     S
C438   H439    1.069   .     S
C438   C440    1.404   .     S
C438   C441    1.385   .     D
C440   C443    1.403   .     D
C440   C586    1.542   .     S
C441   H442    1.075   .     S
C443   H444    1.074   .     S
O445   B446    1.450   .     S
B446   C449    1.554   1_565 S
B446   O541    1.457   .     S
C447   H448    1.074   1_545 S
C447   C449    1.388   1_554 S
C447   C455    1.385   .     D
H448   C447    1.074   1_565 S
C449   B446    1.554   1_545 S
C449   C447    1.388   1_556 S
C449   C453    1.388   .     D
C450   H451    1.069   .     S
C450   C452    1.404   .     D
C450   C453    1.385   .     S
C452   C455    1.403   1_556 S
C452   C585    1.542   1_556 S
C453   H454    1.075   .     S
C455   C452    1.403   1_554 S
C455   H456    1.074   .     S
O457   B458    1.450   .     S
B458   C461    1.554   1_565 S
B458   O481    1.457   .     S
C459   H460    1.074   1_545 S
C459   C461    1.388   1_556 D
C459   C467    1.385   .     S
H460   C459    1.074   1_565 S
C461   B458    1.554   1_545 S
C461   C459    1.388   1_554 D
C461   C465    1.388   .     S
C462   H463    1.069   .     S
C462   C464    1.404   .     S
C462   C465    1.385   .     D
C464   C467    1.403   1_554 D
C464   C585    1.542   .     S
C465   H466    1.075   .     S
C467   C464    1.403   1_556 D
C467   H468    1.074   .     S
O469   B470    1.450   .     S
B470   C473    1.554   .     S
B470   O493    1.457   .     S
C471   H472    1.074   .     S
C471   C473    1.388   .     S
C471   C479    1.385   .     D
C473   C477    1.388   .     D
C474   H475    1.069   .     S
C474   C476    1.404   .     D
C474   C477    1.385   .     S
C476   C479    1.403   .     S
C476   C586    1.542   .     S
C477   H478    1.075   .     S
C479   H480    1.074   .     S
O481   B482    1.450   .     S
B482   C485    1.554   .     S
C483   H484    1.074   .     S
C483   C485    1.388   1_545 S
C483   C491    1.385   .     D
C485   C483    1.388   1_565 S
C485   C489    1.388   .     D
C486   H487    1.069   .     S
C486   C488    1.404   .     D
C486   C489    1.385   .     S
C488   C491    1.403   1_565 S
C488   C583    1.542   1_565 S
C489   H490    1.075   .     S
C491   C488    1.403   1_545 S
C491   H492    1.074   .     S
O493   B494    1.450   .     S
B494   C497    1.554   1_455 S
C495   H496    1.074   1_655 S
C495   C497    1.388   .     D
C495   C503    1.385   .     S
H496   C495    1.074   1_455 S
C497   B494    1.554   1_655 S
C497   C501    1.388   .     S
C498   H499    1.069   .     S
C498   C500    1.404   .     S
C498   C501    1.385   .     D
C500   C503    1.403   .     D
C500   C584    1.542   .     S
C501   H502    1.075   .     S
C503   H504    1.074   .     S
O505   B506    1.450   .     S
B506   C509    1.554   1_455 S
C507   H508    1.074   1_655 S
C507   C509    1.388   .     D
C507   C515    1.385   .     S
H508   C507    1.074   1_455 S
C509   B506    1.554   1_655 S
C509   C513    1.388   .     S
C510   H511    1.069   .     S
C510   C512    1.404   .     S
C510   C513    1.385   .     D
C512   C515    1.403   .     D
C512   C584    1.542   .     S
C513   H514    1.075   .     S
C515   H516    1.074   .     S
O517   B518    1.450   .     S
B518   C521    1.554   .     S
C519   H520    1.074   .     S
C519   C521    1.388   1_565 D
C519   C527    1.385   .     S
C521   C519    1.388   1_545 D
C521   C525    1.388   .     S
C522   H523    1.069   .     S
C522   C524    1.404   .     S
C522   C525    1.385   .     D
C524   C527    1.403   1_545 D
C524   C583    1.542   .     S
C525   H526    1.075   .     S
C527   C524    1.403   1_565 D
C527   H528    1.074   .     S
O529   B530    1.450   .     S
B530   C533    1.554   .     S
C531   H532    1.074   .     S
C531   C533    1.388   .     D
C531   C539    1.385   .     S
C533   C537    1.388   .     S
C534   H535    1.069   .     S
C534   C536    1.404   .     S
C534   C537    1.385   .     D
C536   C539    1.403   .     D
C536   C582    1.542   .     S
C537   H538    1.075   .     S
C539   H540    1.074   .     S
O541   B542    1.450   .     S
B542   C545    1.554   1_655 S
C543   H544    1.074   1_455 S
C543   C545    1.388   1_545 S
C543   C551    1.385   .     D
H544   C543    1.074   1_655 S
C545   C543    1.388   1_565 S
C545   B542    1.554   1_455 S
C545   C549    1.388   .     D
C546   H547    1.069   .     S
C546   C548    1.404   .     D
C546   C549    1.385   .     S
C548   C551    1.403   1_565 S
C548   C581    1.542   1_565 S
C549   H550    1.075   .     S
C551   C548    1.403   1_545 S
C551   H552    1.074   .     S
O553   B554    1.450   .     S
B554   C557    1.554   1_655 S
C555   H556    1.074   1_455 S
C555   C557    1.388   1_565 S
C555   C563    1.385   .     D
H556   C555    1.074   1_655 S
C557   B554    1.554   1_455 S
C557   C555    1.388   1_545 S
C557   C561    1.388   .     D
C558   H559    1.069   .     S
C558   C560    1.404   .     D
C558   C561    1.385   .     S
C560   C563    1.403   1_545 S
C560   C581    1.542   .     S
C561   H562    1.075   .     S
C563   C560    1.403   1_565 S
C563   H564    1.074   .     S
O565   B566    1.450   .     S
B566   C569    1.554   .     S
C567   H568    1.074   .     S
C567   C569    1.388   .     S
C567   C575    1.385   .     D
C569   C573    1.388   .     D
C570   H571    1.069   .     S
C570   C572    1.404   .     D
C570   C573    1.385   .     S
C572   C575    1.403   .     S
C572   C582    1.542   .     S
C573   H574    1.075   .     S
C575   H576    1.074   .     S
C577   C356    1.542   1_455 S
C577   C8      1.542   1_455 S
C579   C92     1.542   1_455 S
C579   C296    1.542   1_455 S
C581   C104    1.542   1_545 S
C581   C548    1.542   1_545 S
C583   C488    1.542   1_545 S
C583   C188    1.542   1_545 S
C585   C200    1.542   1_554 S
C585   C452    1.542   1_554 S
C587   C392    1.542   1_554 S
C587   C284    1.542   1_554 S
