data_894
_audit_creation_date              2023-09-08
_audit_creation_method            'Materials Studio'
_symmetry_space_group_name_H-M    'P1'
_symmetry_Int_Tables_number       1
_symmetry_cell_setting            triclinic
loop_
_symmetry_equiv_pos_as_xyz
  x,y,z
_cell_length_a                    40.5302
_cell_length_b                    40.5302
_cell_length_c                    7.1003
_cell_angle_alpha                 90.0000
_cell_angle_beta                  90.0000
_cell_angle_gamma                 90.0000
loop_
_atom_site_label
_atom_site_type_symbol
_atom_site_fract_x
_atom_site_fract_y
_atom_site_fract_z
_atom_site_U_iso_or_equiv
_atom_site_adp_type
_atom_site_occupancy
C1     C     0.52540   0.46594   0.26628   0.00000  Uiso   1.00
C2     C     0.52624   0.43897   0.38864   0.00000  Uiso   1.00
C3     C     0.50149   0.41514   0.38396   0.00000  Uiso   1.00
C4     C     0.47499   0.41911   0.25899   0.00000  Uiso   1.00
C5     C     0.47380   0.44624   0.13769   0.00000  Uiso   1.00
C6     C     0.49973   0.46961   0.13316   0.00000  Uiso   1.00
C7     C     0.48833   0.36013   0.49798   0.00000  Uiso   1.00
N8     N     0.50300   0.38847   0.51639   0.00000  Uiso   1.00
C9     C     0.50672   0.34158   0.81863   0.00000  Uiso   1.00
C10    C     0.50909   0.31719   0.95733   0.00000  Uiso   1.00
C11    C     0.49573   0.28586   0.92519   0.00000  Uiso   1.00
C12    C     0.47970   0.27905   0.75503   0.00000  Uiso   1.00
C13    C     0.47742   0.30336   0.61588   0.00000  Uiso   1.00
C14    C     0.49099   0.33479   0.64629   0.00000  Uiso   1.00
C15    C     0.49872   0.26060   0.06608   0.00000  Uiso   1.00
H16    H     0.54513   0.48396   0.27299   0.00000  Uiso   1.00
H17    H     0.54634   0.43631   0.48743   0.00000  Uiso   1.00
H18    H     0.45448   0.40207   0.25986   0.00000  Uiso   1.00
H19    H     0.45198   0.44887   0.05183   0.00000  Uiso   1.00
H20    H     0.47461   0.35427   0.37140   0.00000  Uiso   1.00
H21    H     0.51714   0.36575   0.84536   0.00000  Uiso   1.00
H22    H     0.52139   0.32268   0.08924   0.00000  Uiso   1.00
H23    H     0.46921   0.25485   0.72968   0.00000  Uiso   1.00
H24    H     0.46520   0.29759   0.48418   0.00000  Uiso   1.00
C25    C     0.02540   0.96594   0.76628   0.00000  Uiso   1.00
C26    C     0.02624   0.93897   0.88864   0.00000  Uiso   1.00
C27    C     0.00149   0.91514   0.88396   0.00000  Uiso   1.00
C28    C     0.97499   0.91911   0.75899   0.00000  Uiso   1.00
C29    C     0.97380   0.94624   0.63769   0.00000  Uiso   1.00
C30    C     0.99973   0.96961   0.63316   0.00000  Uiso   1.00
C31    C     0.98833   0.86013   0.99798   0.00000  Uiso   1.00
N32    N     0.00300   0.88847   0.01639   0.00000  Uiso   1.00
C33    C     0.00672   0.84158   0.31863   0.00000  Uiso   1.00
C34    C     0.00909   0.81719   0.45733   0.00000  Uiso   1.00
C35    C     0.99573   0.78586   0.42519   0.00000  Uiso   1.00
C36    C     0.97970   0.77905   0.25503   0.00000  Uiso   1.00
C37    C     0.97742   0.80336   0.11588   0.00000  Uiso   1.00
C38    C     0.99099   0.83479   0.14629   0.00000  Uiso   1.00
C39    C     0.99872   0.76060   0.56608   0.00000  Uiso   1.00
H40    H     0.04513   0.98396   0.77299   0.00000  Uiso   1.00
H41    H     0.04634   0.93631   0.98743   0.00000  Uiso   1.00
H42    H     0.95448   0.90207   0.75986   0.00000  Uiso   1.00
H43    H     0.95198   0.94887   0.55183   0.00000  Uiso   1.00
H44    H     0.97461   0.85427   0.87140   0.00000  Uiso   1.00
H45    H     0.01714   0.86575   0.34536   0.00000  Uiso   1.00
H46    H     0.02139   0.82268   0.58924   0.00000  Uiso   1.00
H47    H     0.96921   0.75485   0.22968   0.00000  Uiso   1.00
H48    H     0.96520   0.79759   0.98418   0.00000  Uiso   1.00
C49    C     0.97460   0.03406   0.76628   0.00000  Uiso   1.00
C50    C     0.97376   0.06103   0.88864   0.00000  Uiso   1.00
C51    C     0.99851   0.08486   0.88396   0.00000  Uiso   1.00
C52    C     0.02501   0.08089   0.75899   0.00000  Uiso   1.00
C53    C     0.02620   0.05376   0.63769   0.00000  Uiso   1.00
C54    C     0.00027   0.03039   0.63316   0.00000  Uiso   1.00
C55    C     0.01167   0.13987   0.99798   0.00000  Uiso   1.00
N56    N     0.99700   0.11153   0.01639   0.00000  Uiso   1.00
C57    C     0.99328   0.15842   0.31863   0.00000  Uiso   1.00
C58    C     0.99091   0.18281   0.45733   0.00000  Uiso   1.00
C59    C     0.00427   0.21414   0.42519   0.00000  Uiso   1.00
C60    C     0.02030   0.22095   0.25503   0.00000  Uiso   1.00
C61    C     0.02258   0.19664   0.11588   0.00000  Uiso   1.00
C62    C     0.00901   0.16521   0.14629   0.00000  Uiso   1.00
C63    C     0.00128   0.23940   0.56608   0.00000  Uiso   1.00
H64    H     0.95487   0.01604   0.77299   0.00000  Uiso   1.00
H65    H     0.95366   0.06369   0.98743   0.00000  Uiso   1.00
H66    H     0.04552   0.09793   0.75986   0.00000  Uiso   1.00
H67    H     0.04802   0.05113   0.55183   0.00000  Uiso   1.00
H68    H     0.02539   0.14573   0.87140   0.00000  Uiso   1.00
H69    H     0.98286   0.13425   0.34536   0.00000  Uiso   1.00
H70    H     0.97861   0.17732   0.58924   0.00000  Uiso   1.00
H71    H     0.03079   0.24515   0.22968   0.00000  Uiso   1.00
H72    H     0.03480   0.20241   0.98418   0.00000  Uiso   1.00
C73    C     0.47460   0.53406   0.26628   0.00000  Uiso   1.00
C74    C     0.47376   0.56103   0.38864   0.00000  Uiso   1.00
C75    C     0.49851   0.58486   0.38396   0.00000  Uiso   1.00
C76    C     0.52501   0.58089   0.25899   0.00000  Uiso   1.00
C77    C     0.52620   0.55376   0.13769   0.00000  Uiso   1.00
C78    C     0.50027   0.53039   0.13316   0.00000  Uiso   1.00
C79    C     0.51167   0.63987   0.49798   0.00000  Uiso   1.00
N80    N     0.49700   0.61153   0.51639   0.00000  Uiso   1.00
C81    C     0.49328   0.65842   0.81863   0.00000  Uiso   1.00
C82    C     0.49091   0.68281   0.95733   0.00000  Uiso   1.00
C83    C     0.50427   0.71414   0.92519   0.00000  Uiso   1.00
C84    C     0.52030   0.72095   0.75503   0.00000  Uiso   1.00
C85    C     0.52258   0.69664   0.61588   0.00000  Uiso   1.00
C86    C     0.50901   0.66521   0.64629   0.00000  Uiso   1.00
C87    C     0.50128   0.73940   0.06608   0.00000  Uiso   1.00
H88    H     0.45487   0.51604   0.27299   0.00000  Uiso   1.00
H89    H     0.45366   0.56369   0.48743   0.00000  Uiso   1.00
H90    H     0.54552   0.59793   0.25986   0.00000  Uiso   1.00
H91    H     0.54802   0.55113   0.05183   0.00000  Uiso   1.00
H92    H     0.52539   0.64573   0.37140   0.00000  Uiso   1.00
H93    H     0.48286   0.63425   0.84536   0.00000  Uiso   1.00
H94    H     0.47861   0.67732   0.08924   0.00000  Uiso   1.00
H95    H     0.53079   0.74515   0.72968   0.00000  Uiso   1.00
H96    H     0.53480   0.70241   0.48418   0.00000  Uiso   1.00
C97    C     0.53406   0.02540   0.51628   0.00000  Uiso   1.00
C98    C     0.56103   0.02624   0.63864   0.00000  Uiso   1.00
C99    C     0.58486   0.00149   0.63396   0.00000  Uiso   1.00
C100   C     0.58089   0.97499   0.50899   0.00000  Uiso   1.00
C101   C     0.55376   0.97380   0.38769   0.00000  Uiso   1.00
C102   C     0.53039   0.99973   0.38316   0.00000  Uiso   1.00
C103   C     0.63987   0.98833   0.74798   0.00000  Uiso   1.00
N104   N     0.61153   0.00300   0.76639   0.00000  Uiso   1.00
C105   C     0.65842   0.00672   0.06863   0.00000  Uiso   1.00
C106   C     0.68281   0.00909   0.20733   0.00000  Uiso   1.00
C107   C     0.71414   0.99573   0.17519   0.00000  Uiso   1.00
C108   C     0.72095   0.97970   0.00503   0.00000  Uiso   1.00
C109   C     0.69664   0.97742   0.86588   0.00000  Uiso   1.00
C110   C     0.66521   0.99099   0.89629   0.00000  Uiso   1.00
C111   C     0.73940   0.99872   0.31608   0.00000  Uiso   1.00
H112   H     0.51604   0.04513   0.52299   0.00000  Uiso   1.00
H113   H     0.56369   0.04634   0.73743   0.00000  Uiso   1.00
H114   H     0.59793   0.95448   0.50986   0.00000  Uiso   1.00
H115   H     0.55113   0.95198   0.30183   0.00000  Uiso   1.00
H116   H     0.64573   0.97461   0.62140   0.00000  Uiso   1.00
H117   H     0.63425   0.01714   0.09536   0.00000  Uiso   1.00
H118   H     0.67732   0.02139   0.33924   0.00000  Uiso   1.00
H119   H     0.74515   0.96921   0.97968   0.00000  Uiso   1.00
H120   H     0.70241   0.96520   0.73418   0.00000  Uiso   1.00
C121   C     0.03406   0.52540   0.01628   0.00000  Uiso   1.00
C122   C     0.06103   0.52624   0.13864   0.00000  Uiso   1.00
C123   C     0.08486   0.50149   0.13396   0.00000  Uiso   1.00
C124   C     0.08089   0.47499   0.00899   0.00000  Uiso   1.00
C125   C     0.05376   0.47380   0.88769   0.00000  Uiso   1.00
C126   C     0.03039   0.49973   0.88316   0.00000  Uiso   1.00
C127   C     0.13987   0.48833   0.24798   0.00000  Uiso   1.00
N128   N     0.11153   0.50300   0.26639   0.00000  Uiso   1.00
C129   C     0.15842   0.50672   0.56863   0.00000  Uiso   1.00
C130   C     0.18281   0.50909   0.70733   0.00000  Uiso   1.00
C131   C     0.21414   0.49573   0.67519   0.00000  Uiso   1.00
C132   C     0.22095   0.47970   0.50503   0.00000  Uiso   1.00
C133   C     0.19664   0.47742   0.36588   0.00000  Uiso   1.00
C134   C     0.16521   0.49099   0.39629   0.00000  Uiso   1.00
C135   C     0.23940   0.49872   0.81608   0.00000  Uiso   1.00
H136   H     0.01604   0.54513   0.02299   0.00000  Uiso   1.00
H137   H     0.06369   0.54634   0.23743   0.00000  Uiso   1.00
H138   H     0.09793   0.45448   0.00986   0.00000  Uiso   1.00
H139   H     0.05113   0.45198   0.80183   0.00000  Uiso   1.00
H140   H     0.14573   0.47461   0.12140   0.00000  Uiso   1.00
H141   H     0.13425   0.51714   0.59536   0.00000  Uiso   1.00
H142   H     0.17732   0.52139   0.83924   0.00000  Uiso   1.00
H143   H     0.24515   0.46921   0.47968   0.00000  Uiso   1.00
H144   H     0.20241   0.46520   0.23418   0.00000  Uiso   1.00
C145   C     0.96594   0.47460   0.01628   0.00000  Uiso   1.00
C146   C     0.93897   0.47376   0.13864   0.00000  Uiso   1.00
C147   C     0.91514   0.49851   0.13396   0.00000  Uiso   1.00
C148   C     0.91911   0.52501   0.00899   0.00000  Uiso   1.00
C149   C     0.94624   0.52620   0.88769   0.00000  Uiso   1.00
C150   C     0.96961   0.50027   0.88316   0.00000  Uiso   1.00
C151   C     0.86013   0.51167   0.24798   0.00000  Uiso   1.00
N152   N     0.88847   0.49700   0.26639   0.00000  Uiso   1.00
C153   C     0.84158   0.49328   0.56863   0.00000  Uiso   1.00
C154   C     0.81719   0.49091   0.70733   0.00000  Uiso   1.00
C155   C     0.78586   0.50427   0.67519   0.00000  Uiso   1.00
C156   C     0.77905   0.52030   0.50503   0.00000  Uiso   1.00
C157   C     0.80336   0.52258   0.36588   0.00000  Uiso   1.00
C158   C     0.83479   0.50901   0.39629   0.00000  Uiso   1.00
C159   C     0.76060   0.50128   0.81608   0.00000  Uiso   1.00
H160   H     0.98396   0.45487   0.02299   0.00000  Uiso   1.00
H161   H     0.93631   0.45366   0.23743   0.00000  Uiso   1.00
H162   H     0.90207   0.54552   0.00986   0.00000  Uiso   1.00
H163   H     0.94887   0.54802   0.80183   0.00000  Uiso   1.00
H164   H     0.85427   0.52539   0.12140   0.00000  Uiso   1.00
H165   H     0.86575   0.48286   0.59536   0.00000  Uiso   1.00
H166   H     0.82268   0.47861   0.83924   0.00000  Uiso   1.00
H167   H     0.75485   0.53079   0.47968   0.00000  Uiso   1.00
H168   H     0.79759   0.53480   0.23418   0.00000  Uiso   1.00
C169   C     0.46594   0.97460   0.51628   0.00000  Uiso   1.00
C170   C     0.43897   0.97376   0.63864   0.00000  Uiso   1.00
C171   C     0.41514   0.99851   0.63396   0.00000  Uiso   1.00
C172   C     0.41911   0.02501   0.50899   0.00000  Uiso   1.00
C173   C     0.44624   0.02620   0.38769   0.00000  Uiso   1.00
C174   C     0.46961   0.00027   0.38316   0.00000  Uiso   1.00
C175   C     0.36013   0.01167   0.74798   0.00000  Uiso   1.00
N176   N     0.38847   0.99700   0.76639   0.00000  Uiso   1.00
C177   C     0.34158   0.99328   0.06863   0.00000  Uiso   1.00
C178   C     0.31719   0.99091   0.20733   0.00000  Uiso   1.00
C179   C     0.28586   0.00427   0.17519   0.00000  Uiso   1.00
C180   C     0.27905   0.02030   0.00503   0.00000  Uiso   1.00
C181   C     0.30336   0.02258   0.86588   0.00000  Uiso   1.00
C182   C     0.33479   0.00901   0.89629   0.00000  Uiso   1.00
C183   C     0.26060   0.00128   0.31608   0.00000  Uiso   1.00
H184   H     0.48396   0.95487   0.52299   0.00000  Uiso   1.00
H185   H     0.43631   0.95366   0.73743   0.00000  Uiso   1.00
H186   H     0.40207   0.04552   0.50986   0.00000  Uiso   1.00
H187   H     0.44887   0.04802   0.30183   0.00000  Uiso   1.00
H188   H     0.35427   0.02539   0.62140   0.00000  Uiso   1.00
H189   H     0.36575   0.98286   0.09536   0.00000  Uiso   1.00
H190   H     0.32268   0.97861   0.33924   0.00000  Uiso   1.00
H191   H     0.25485   0.03079   0.97968   0.00000  Uiso   1.00
H192   H     0.29759   0.03480   0.73418   0.00000  Uiso   1.00
C193   C     0.47460   0.03406   0.98372   0.00000  Uiso   1.00
C194   C     0.47376   0.06103   0.86136   0.00000  Uiso   1.00
C195   C     0.49851   0.08486   0.86604   0.00000  Uiso   1.00
C196   C     0.52501   0.08089   0.99101   0.00000  Uiso   1.00
C197   C     0.52620   0.05376   0.11231   0.00000  Uiso   1.00
C198   C     0.50027   0.03039   0.11684   0.00000  Uiso   1.00
C199   C     0.51167   0.13987   0.75202   0.00000  Uiso   1.00
N200   N     0.49700   0.11153   0.73361   0.00000  Uiso   1.00
C201   C     0.49328   0.15842   0.43137   0.00000  Uiso   1.00
C202   C     0.49091   0.18281   0.29267   0.00000  Uiso   1.00
C203   C     0.50427   0.21414   0.32481   0.00000  Uiso   1.00
C204   C     0.52030   0.22095   0.49497   0.00000  Uiso   1.00
C205   C     0.52258   0.19664   0.63412   0.00000  Uiso   1.00
C206   C     0.50901   0.16521   0.60371   0.00000  Uiso   1.00
C207   C     0.50128   0.23940   0.18392   0.00000  Uiso   1.00
H208   H     0.45487   0.01604   0.97701   0.00000  Uiso   1.00
H209   H     0.45366   0.06369   0.76257   0.00000  Uiso   1.00
H210   H     0.54552   0.09793   0.99014   0.00000  Uiso   1.00
H211   H     0.54802   0.05113   0.19817   0.00000  Uiso   1.00
H212   H     0.52539   0.14573   0.87860   0.00000  Uiso   1.00
H213   H     0.48286   0.13425   0.40464   0.00000  Uiso   1.00
H214   H     0.47861   0.17732   0.16076   0.00000  Uiso   1.00
H215   H     0.53079   0.24515   0.52032   0.00000  Uiso   1.00
H216   H     0.53480   0.20241   0.76582   0.00000  Uiso   1.00
C217   C     0.97460   0.53406   0.48372   0.00000  Uiso   1.00
C218   C     0.97376   0.56103   0.36136   0.00000  Uiso   1.00
C219   C     0.99851   0.58486   0.36604   0.00000  Uiso   1.00
C220   C     0.02501   0.58089   0.49101   0.00000  Uiso   1.00
C221   C     0.02620   0.55376   0.61231   0.00000  Uiso   1.00
C222   C     0.00027   0.53039   0.61684   0.00000  Uiso   1.00
C223   C     0.01167   0.63987   0.25202   0.00000  Uiso   1.00
N224   N     0.99700   0.61153   0.23361   0.00000  Uiso   1.00
C225   C     0.99328   0.65842   0.93137   0.00000  Uiso   1.00
C226   C     0.99091   0.68281   0.79267   0.00000  Uiso   1.00
C227   C     0.00427   0.71414   0.82481   0.00000  Uiso   1.00
C228   C     0.02030   0.72095   0.99497   0.00000  Uiso   1.00
C229   C     0.02258   0.69664   0.13412   0.00000  Uiso   1.00
C230   C     0.00901   0.66521   0.10371   0.00000  Uiso   1.00
C231   C     0.00128   0.73940   0.68392   0.00000  Uiso   1.00
H232   H     0.95487   0.51604   0.47701   0.00000  Uiso   1.00
H233   H     0.95366   0.56369   0.26257   0.00000  Uiso   1.00
H234   H     0.04552   0.59793   0.49014   0.00000  Uiso   1.00
H235   H     0.04802   0.55113   0.69817   0.00000  Uiso   1.00
H236   H     0.02539   0.64573   0.37860   0.00000  Uiso   1.00
H237   H     0.98286   0.63425   0.90464   0.00000  Uiso   1.00
H238   H     0.97861   0.67732   0.66076   0.00000  Uiso   1.00
H239   H     0.03079   0.74515   0.02032   0.00000  Uiso   1.00
H240   H     0.03480   0.70241   0.26582   0.00000  Uiso   1.00
C241   C     0.02540   0.46594   0.48372   0.00000  Uiso   1.00
C242   C     0.02624   0.43897   0.36136   0.00000  Uiso   1.00
C243   C     0.00149   0.41514   0.36604   0.00000  Uiso   1.00
C244   C     0.97499   0.41911   0.49101   0.00000  Uiso   1.00
C245   C     0.97380   0.44624   0.61231   0.00000  Uiso   1.00
C246   C     0.99973   0.46961   0.61684   0.00000  Uiso   1.00
C247   C     0.98833   0.36013   0.25202   0.00000  Uiso   1.00
N248   N     0.00300   0.38847   0.23361   0.00000  Uiso   1.00
C249   C     0.00672   0.34158   0.93137   0.00000  Uiso   1.00
C250   C     0.00909   0.31719   0.79267   0.00000  Uiso   1.00
C251   C     0.99573   0.28586   0.82481   0.00000  Uiso   1.00
C252   C     0.97970   0.27905   0.99497   0.00000  Uiso   1.00
C253   C     0.97742   0.30336   0.13412   0.00000  Uiso   1.00
C254   C     0.99099   0.33479   0.10371   0.00000  Uiso   1.00
C255   C     0.99872   0.26060   0.68392   0.00000  Uiso   1.00
H256   H     0.04513   0.48396   0.47701   0.00000  Uiso   1.00
H257   H     0.04634   0.43631   0.26257   0.00000  Uiso   1.00
H258   H     0.95448   0.40207   0.49014   0.00000  Uiso   1.00
H259   H     0.95198   0.44887   0.69817   0.00000  Uiso   1.00
H260   H     0.97461   0.35427   0.37860   0.00000  Uiso   1.00
H261   H     0.01714   0.36575   0.90464   0.00000  Uiso   1.00
H262   H     0.02139   0.32268   0.66076   0.00000  Uiso   1.00
H263   H     0.96921   0.25485   0.02032   0.00000  Uiso   1.00
H264   H     0.96520   0.29759   0.26582   0.00000  Uiso   1.00
C265   C     0.52540   0.96594   0.98372   0.00000  Uiso   1.00
C266   C     0.52624   0.93897   0.86136   0.00000  Uiso   1.00
C267   C     0.50149   0.91514   0.86604   0.00000  Uiso   1.00
C268   C     0.47499   0.91911   0.99101   0.00000  Uiso   1.00
C269   C     0.47380   0.94624   0.11231   0.00000  Uiso   1.00
C270   C     0.49973   0.96961   0.11684   0.00000  Uiso   1.00
C271   C     0.48833   0.86013   0.75202   0.00000  Uiso   1.00
N272   N     0.50300   0.88847   0.73361   0.00000  Uiso   1.00
C273   C     0.50672   0.84158   0.43137   0.00000  Uiso   1.00
C274   C     0.50909   0.81719   0.29267   0.00000  Uiso   1.00
C275   C     0.49573   0.78586   0.32481   0.00000  Uiso   1.00
C276   C     0.47970   0.77905   0.49497   0.00000  Uiso   1.00
C277   C     0.47742   0.80336   0.63412   0.00000  Uiso   1.00
C278   C     0.49099   0.83479   0.60371   0.00000  Uiso   1.00
C279   C     0.49872   0.76060   0.18392   0.00000  Uiso   1.00
H280   H     0.54513   0.98396   0.97701   0.00000  Uiso   1.00
H281   H     0.54634   0.93631   0.76257   0.00000  Uiso   1.00
H282   H     0.45448   0.90207   0.99014   0.00000  Uiso   1.00
H283   H     0.45198   0.94887   0.19817   0.00000  Uiso   1.00
H284   H     0.47461   0.85427   0.87860   0.00000  Uiso   1.00
H285   H     0.51714   0.86575   0.40464   0.00000  Uiso   1.00
H286   H     0.52139   0.82268   0.16076   0.00000  Uiso   1.00
H287   H     0.46921   0.75485   0.52032   0.00000  Uiso   1.00
H288   H     0.46520   0.79759   0.76582   0.00000  Uiso   1.00
C289   C     0.46594   0.47460   0.73372   0.00000  Uiso   1.00
C290   C     0.43897   0.47376   0.61136   0.00000  Uiso   1.00
C291   C     0.41514   0.49851   0.61604   0.00000  Uiso   1.00
C292   C     0.41911   0.52501   0.74101   0.00000  Uiso   1.00
C293   C     0.44624   0.52620   0.86231   0.00000  Uiso   1.00
C294   C     0.46961   0.50027   0.86684   0.00000  Uiso   1.00
C295   C     0.36013   0.51167   0.50202   0.00000  Uiso   1.00
N296   N     0.38847   0.49700   0.48361   0.00000  Uiso   1.00
C297   C     0.34158   0.49328   0.18137   0.00000  Uiso   1.00
C298   C     0.31719   0.49091   0.04267   0.00000  Uiso   1.00
C299   C     0.28586   0.50427   0.07481   0.00000  Uiso   1.00
C300   C     0.27905   0.52030   0.24497   0.00000  Uiso   1.00
C301   C     0.30336   0.52258   0.38412   0.00000  Uiso   1.00
C302   C     0.33479   0.50901   0.35371   0.00000  Uiso   1.00
C303   C     0.26060   0.50128   0.93392   0.00000  Uiso   1.00
H304   H     0.48396   0.45487   0.72701   0.00000  Uiso   1.00
H305   H     0.43631   0.45366   0.51257   0.00000  Uiso   1.00
H306   H     0.40207   0.54552   0.74014   0.00000  Uiso   1.00
H307   H     0.44887   0.54802   0.94817   0.00000  Uiso   1.00
H308   H     0.35427   0.52539   0.62860   0.00000  Uiso   1.00
H309   H     0.36575   0.48286   0.15464   0.00000  Uiso   1.00
H310   H     0.32268   0.47861   0.91076   0.00000  Uiso   1.00
H311   H     0.25485   0.53079   0.27032   0.00000  Uiso   1.00
H312   H     0.29759   0.53480   0.51582   0.00000  Uiso   1.00
C313   C     0.96594   0.97460   0.23372   0.00000  Uiso   1.00
C314   C     0.93897   0.97376   0.11136   0.00000  Uiso   1.00
C315   C     0.91514   0.99851   0.11604   0.00000  Uiso   1.00
C316   C     0.91911   0.02501   0.24101   0.00000  Uiso   1.00
C317   C     0.94624   0.02620   0.36231   0.00000  Uiso   1.00
C318   C     0.96961   0.00027   0.36684   0.00000  Uiso   1.00
C319   C     0.86013   0.01167   0.00202   0.00000  Uiso   1.00
N320   N     0.88847   0.99700   0.98361   0.00000  Uiso   1.00
C321   C     0.84158   0.99328   0.68137   0.00000  Uiso   1.00
C322   C     0.81719   0.99091   0.54267   0.00000  Uiso   1.00
C323   C     0.78586   0.00427   0.57481   0.00000  Uiso   1.00
C324   C     0.77905   0.02030   0.74497   0.00000  Uiso   1.00
C325   C     0.80336   0.02258   0.88412   0.00000  Uiso   1.00
C326   C     0.83479   0.00901   0.85371   0.00000  Uiso   1.00
C327   C     0.76060   0.00128   0.43392   0.00000  Uiso   1.00
H328   H     0.98396   0.95487   0.22701   0.00000  Uiso   1.00
H329   H     0.93631   0.95366   0.01257   0.00000  Uiso   1.00
H330   H     0.90207   0.04552   0.24014   0.00000  Uiso   1.00
H331   H     0.94887   0.04802   0.44817   0.00000  Uiso   1.00
H332   H     0.85427   0.02539   0.12860   0.00000  Uiso   1.00
H333   H     0.86575   0.98286   0.65464   0.00000  Uiso   1.00
H334   H     0.82268   0.97861   0.41076   0.00000  Uiso   1.00
H335   H     0.75485   0.03079   0.77032   0.00000  Uiso   1.00
H336   H     0.79759   0.03480   0.01582   0.00000  Uiso   1.00
C337   C     0.03406   0.02540   0.23372   0.00000  Uiso   1.00
C338   C     0.06103   0.02624   0.11136   0.00000  Uiso   1.00
C339   C     0.08486   0.00149   0.11604   0.00000  Uiso   1.00
C340   C     0.08089   0.97499   0.24101   0.00000  Uiso   1.00
C341   C     0.05376   0.97380   0.36231   0.00000  Uiso   1.00
C342   C     0.03039   0.99973   0.36684   0.00000  Uiso   1.00
C343   C     0.13987   0.98833   0.00202   0.00000  Uiso   1.00
N344   N     0.11153   0.00300   0.98361   0.00000  Uiso   1.00
C345   C     0.15842   0.00672   0.68137   0.00000  Uiso   1.00
C346   C     0.18281   0.00909   0.54267   0.00000  Uiso   1.00
C347   C     0.21414   0.99573   0.57481   0.00000  Uiso   1.00
C348   C     0.22095   0.97970   0.74497   0.00000  Uiso   1.00
C349   C     0.19664   0.97742   0.88412   0.00000  Uiso   1.00
C350   C     0.16521   0.99099   0.85371   0.00000  Uiso   1.00
C351   C     0.23940   0.99872   0.43392   0.00000  Uiso   1.00
H352   H     0.01604   0.04513   0.22701   0.00000  Uiso   1.00
H353   H     0.06369   0.04634   0.01257   0.00000  Uiso   1.00
H354   H     0.09793   0.95448   0.24014   0.00000  Uiso   1.00
H355   H     0.05113   0.95198   0.44817   0.00000  Uiso   1.00
H356   H     0.14573   0.97461   0.12860   0.00000  Uiso   1.00
H357   H     0.13425   0.01714   0.65464   0.00000  Uiso   1.00
H358   H     0.17732   0.02139   0.41076   0.00000  Uiso   1.00
H359   H     0.24515   0.96921   0.77032   0.00000  Uiso   1.00
H360   H     0.20241   0.96520   0.01582   0.00000  Uiso   1.00
C361   C     0.53406   0.52540   0.73372   0.00000  Uiso   1.00
C362   C     0.56103   0.52624   0.61136   0.00000  Uiso   1.00
C363   C     0.58486   0.50149   0.61604   0.00000  Uiso   1.00
C364   C     0.58089   0.47499   0.74101   0.00000  Uiso   1.00
C365   C     0.55376   0.47380   0.86231   0.00000  Uiso   1.00
C366   C     0.53039   0.49973   0.86684   0.00000  Uiso   1.00
C367   C     0.63987   0.48833   0.50202   0.00000  Uiso   1.00
N368   N     0.61153   0.50300   0.48361   0.00000  Uiso   1.00
C369   C     0.65842   0.50672   0.18137   0.00000  Uiso   1.00
C370   C     0.68281   0.50909   0.04267   0.00000  Uiso   1.00
C371   C     0.71414   0.49573   0.07481   0.00000  Uiso   1.00
C372   C     0.72095   0.47970   0.24497   0.00000  Uiso   1.00
C373   C     0.69664   0.47742   0.38412   0.00000  Uiso   1.00
C374   C     0.66521   0.49099   0.35371   0.00000  Uiso   1.00
C375   C     0.73940   0.49872   0.93392   0.00000  Uiso   1.00
H376   H     0.51604   0.54513   0.72701   0.00000  Uiso   1.00
H377   H     0.56369   0.54634   0.51257   0.00000  Uiso   1.00
H378   H     0.59793   0.45448   0.74014   0.00000  Uiso   1.00
H379   H     0.55113   0.45198   0.94817   0.00000  Uiso   1.00
H380   H     0.64573   0.47461   0.62860   0.00000  Uiso   1.00
H381   H     0.63425   0.51714   0.15464   0.00000  Uiso   1.00
H382   H     0.67732   0.52139   0.91076   0.00000  Uiso   1.00
H383   H     0.74515   0.46921   0.27032   0.00000  Uiso   1.00
H384   H     0.70241   0.46520   0.51582   0.00000  Uiso   1.00
C385   C     0.50000   0.50000   0.00000   0.00000  Uiso   1.00
C386   C     0.00000   0.00000   0.50000   0.00000  Uiso   1.00
C387   C     0.50000   0.00000   0.25000   0.00000  Uiso   1.00
C388   C     0.00000   0.50000   0.75000   0.00000  Uiso   1.00
loop_
_geom_bond_atom_site_label_1
_geom_bond_atom_site_label_2
_geom_bond_distance
_geom_bond_site_symmetry_2
_ccdc_geom_bond_type
C1     C2      1.397   .     S
C1     C6      1.413   .     D
C1     H16     1.084   .     S
C2     C3      1.393   .     D
C2     H17     1.080   .     S
C3     C4      1.402   .     S
C3     N8      1.434   .     S
C4     C5      1.398   .     D
C4     H18     1.081   .     S
C5     C6      1.415   .     S
C5     H19     1.079   .     S
C6     C385    1.553   .     S
C7     N8      1.300   .     D
C7     C14     1.475   .     S
C7     H20     1.083   .     S
C9     C10     1.399   .     S
C9     C14     1.407   .     D
C9     H21     1.084   .     S
C10    C11     1.399   .     D
C10    H22     1.084   1_556 S
C11    C12     1.399   .     S
C11    C15     1.437   1_556 S
C12    C13     1.398   .     D
C12    H23     1.084   .     S
C13    C14     1.404   .     S
C13    H24     1.084   .     S
C15    C207    1.204   .     T
C15    C11     1.437   1_554 S
H22    C10     1.084   1_554 S
C25    C26     1.397   .     S
C25    H40     1.084   .     S
C25    C30     1.413   1_455 D
C26    C27     1.393   .     D
C26    H41     1.080   .     S
C27    C28     1.402   1_455 S
C27    N32     1.434   1_556 S
C28    C29     1.398   .     D
C28    H42     1.081   .     S
C28    C27     1.402   1_655 S
C29    C30     1.415   .     S
C29    H43     1.079   .     S
C30    C25     1.413   1_655 D
C30    C386    1.553   1_665 S
C31    H44     1.083   .     S
C31    N32     1.300   1_656 D
C31    C38     1.475   1_556 S
N32    C27     1.434   1_554 S
N32    C31     1.300   1_454 D
C33    C34     1.399   .     S
C33    H45     1.084   .     S
C33    C38     1.407   1_455 D
C34    H46     1.084   .     S
C34    C35     1.399   1_455 D
C35    C36     1.399   .     S
C35    C39     1.437   .     S
C35    C34     1.399   1_655 D
C36    C37     1.398   .     D
C36    H47     1.084   .     S
C37    C38     1.404   .     S
C37    H48     1.084   1_554 S
C38    C31     1.475   1_554 S
C38    C33     1.407   1_655 D
C39    C231    1.204   1_655 T
H48    C37     1.084   1_556 S
C49    C50     1.397   .     S
C49    H64     1.084   .     S
C49    C54     1.413   1_655 D
C50    C51     1.393   .     D
C50    H65     1.080   .     S
C51    C52     1.402   1_655 S
C51    N56     1.434   1_556 S
C52    C53     1.398   .     D
C52    H66     1.081   .     S
C52    C51     1.402   1_455 S
C53    C54     1.415   .     S
C53    H67     1.079   .     S
C54    C386    1.553   .     S
C54    C49     1.413   1_455 D
C55    H68     1.083   .     S
C55    N56     1.300   1_456 D
C55    C62     1.475   1_556 S
N56    C51     1.434   1_554 S
N56    C55     1.300   1_654 D
C57    C58     1.399   .     S
C57    H69     1.084   .     S
C57    C62     1.407   1_655 D
C58    H70     1.084   .     S
C58    C59     1.399   1_655 D
C59    C60     1.399   .     S
C59    C63     1.437   .     S
C59    C58     1.399   1_455 D
C60    C61     1.398   .     D
C60    H71     1.084   .     S
C61    C62     1.404   .     S
C61    H72     1.084   1_554 S
C62    C55     1.475   1_554 S
C62    C57     1.407   1_455 D
C63    C255    1.204   1_455 T
H72    C61     1.084   1_556 S
C73    C74     1.397   .     S
C73    C78     1.413   .     D
C73    H88     1.084   .     S
C74    C75     1.393   .     D
C74    H89     1.080   .     S
C75    C76     1.402   .     S
C75    N80     1.434   .     S
C76    C77     1.398   .     D
C76    H90     1.081   .     S
C77    C78     1.415   .     S
C77    H91     1.079   .     S
C78    C385    1.553   .     S
C79    N80     1.300   .     D
C79    C86     1.475   .     S
C79    H92     1.083   .     S
C81    C82     1.399   .     S
C81    C86     1.407   .     D
C81    H93     1.084   .     S
C82    C83     1.399   .     D
C82    H94     1.084   1_556 S
C83    C84     1.399   .     S
C83    C87     1.437   1_556 S
C84    C85     1.398   .     D
C84    H95     1.084   .     S
C85    C86     1.404   .     S
C85    H96     1.084   .     S
C87    C279    1.204   .     T
C87    C83     1.437   1_554 S
H94    C82     1.084   1_554 S
C97    C98     1.397   .     D
C97    H112    1.084   .     S
C97    C102    1.413   1_545 S
C98    C99     1.393   .     S
C98    H113    1.080   .     S
C99    N104    1.434   .     S
C99    C100    1.402   1_545 D
C100   C101    1.398   .     S
C100   H114    1.081   .     S
C100   C99     1.402   1_565 D
C101   C102    1.415   .     D
C101   H115    1.079   .     S
C102   C97     1.413   1_565 S
C102   C387    1.553   1_565 S
C103   C110    1.475   .     S
C103   H116    1.083   .     S
C103   N104    1.300   1_565 D
N104   C103    1.300   1_545 D
C105   C106    1.399   .     S
C105   H117    1.084   .     S
C105   C110    1.407   1_544 D
C106   H118    1.084   .     S
C106   C107    1.399   1_545 D
C107   C108    1.399   .     S
C107   C111    1.437   .     S
C107   C106    1.399   1_565 D
C108   C109    1.398   1_554 D
C108   H119    1.084   1_554 S
C109   C110    1.404   .     S
C109   H120    1.084   .     S
C109   C108    1.398   1_556 D
C110   C105    1.407   1_566 D
C111   C327    1.204   1_565 T
H119   C108    1.084   1_556 S
C121   C122    1.397   .     S
C121   H136    1.084   .     S
C121   C126    1.413   1_554 D
C122   C123    1.393   .     D
C122   H137    1.080   .     S
C123   C124    1.402   .     S
C123   N128    1.434   .     S
C124   H138    1.081   .     S
C124   C125    1.398   1_554 D
C125   C126    1.415   .     S
C125   H139    1.079   .     S
C125   C124    1.398   1_556 D
C126   C388    1.553   .     S
C126   C121    1.413   1_556 D
C127   N128    1.300   .     D
C127   C134    1.475   .     S
C127   H140    1.083   .     S
C129   C130    1.399   .     S
C129   C134    1.407   .     D
C129   H141    1.084   .     S
C130   C131    1.399   .     D
C130   H142    1.084   .     S
C131   C132    1.399   .     S
C131   C135    1.437   .     S
C132   C133    1.398   .     D
C132   H143    1.084   .     S
C133   C134    1.404   .     S
C133   H144    1.084   .     S
C135   C303    1.204   .     T
C145   C146    1.397   .     S
C145   H160    1.084   .     S
C145   C150    1.413   1_554 D
C146   C147    1.393   .     D
C146   H161    1.080   .     S
C147   C148    1.402   .     S
C147   N152    1.434   .     S
C148   H162    1.081   .     S
C148   C149    1.398   1_554 D
C149   C150    1.415   .     S
C149   H163    1.079   .     S
C149   C148    1.398   1_556 D
C150   C145    1.413   1_556 D
C150   C388    1.553   1_655 S
C151   N152    1.300   .     D
C151   C158    1.475   .     S
C151   H164    1.083   .     S
C153   C154    1.399   .     S
C153   C158    1.407   .     D
C153   H165    1.084   .     S
C154   C155    1.399   .     D
C154   H166    1.084   .     S
C155   C156    1.399   .     S
C155   C159    1.437   .     S
C156   C157    1.398   .     D
C156   H167    1.084   .     S
C157   C158    1.404   .     S
C157   H168    1.084   .     S
C159   C375    1.204   .     T
C169   C170    1.397   .     D
C169   H184    1.084   .     S
C169   C174    1.413   1_565 S
C170   C171    1.393   .     S
C170   H185    1.080   .     S
C171   N176    1.434   .     S
C171   C172    1.402   1_565 D
C172   C173    1.398   .     S
C172   H186    1.081   .     S
C172   C171    1.402   1_545 D
C173   C174    1.415   .     D
C173   H187    1.079   .     S
C174   C387    1.553   .     S
C174   C169    1.413   1_545 S
C175   C182    1.475   .     S
C175   H188    1.083   .     S
C175   N176    1.300   1_545 D
N176   C175    1.300   1_565 D
C177   C178    1.399   .     S
C177   H189    1.084   .     S
C177   C182    1.407   1_564 D
C178   H190    1.084   .     S
C178   C179    1.399   1_565 D
C179   C180    1.399   .     S
C179   C183    1.437   .     S
C179   C178    1.399   1_545 D
C180   C181    1.398   1_554 D
C180   H191    1.084   1_554 S
C181   C182    1.404   .     S
C181   H192    1.084   .     S
C181   C180    1.398   1_556 D
C182   C177    1.407   1_546 D
C183   C351    1.204   1_545 T
H191   C180    1.084   1_556 S
C193   C194    1.397   .     D
C193   H208    1.084   .     S
C193   C198    1.413   1_556 S
C194   C195    1.393   .     S
C194   H209    1.080   .     S
C195   C196    1.402   .     D
C195   N200    1.434   .     S
C196   H210    1.081   .     S
C196   C197    1.398   1_556 S
C197   C198    1.415   .     D
C197   H211    1.079   .     S
C197   C196    1.398   1_554 S
C198   C387    1.553   .     S
C198   C193    1.413   1_554 S
C199   N200    1.300   .     D
C199   C206    1.475   .     S
C199   H212    1.083   .     S
C201   C202    1.399   .     S
C201   C206    1.407   .     D
C201   H213    1.084   .     S
C202   C203    1.399   .     D
C202   H214    1.084   .     S
C203   C204    1.399   .     S
C203   C207    1.437   .     S
C204   C205    1.398   .     D
C204   H215    1.084   .     S
C205   C206    1.404   .     S
C205   H216    1.084   .     S
C217   C218    1.397   .     D
C217   H232    1.084   .     S
C217   C222    1.413   1_655 S
C218   C219    1.393   .     S
C218   H233    1.080   .     S
C219   N224    1.434   .     S
C219   C220    1.402   1_655 D
C220   C221    1.398   .     S
C220   H234    1.081   .     S
C220   C219    1.402   1_455 D
C221   C222    1.415   .     D
C221   H235    1.079   .     S
C222   C388    1.553   .     S
C222   C217    1.413   1_455 S
C223   C230    1.475   .     S
C223   H236    1.083   .     S
C223   N224    1.300   1_455 D
N224   C223    1.300   1_655 D
C225   C226    1.399   .     S
C225   H237    1.084   .     S
C225   C230    1.407   1_656 D
C226   H238    1.084   .     S
C226   C227    1.399   1_655 D
C227   C228    1.399   .     S
C227   C231    1.437   .     S
C227   C226    1.399   1_455 D
C228   C229    1.398   1_556 D
C228   H239    1.084   1_556 S
C229   C230    1.404   .     S
C229   H240    1.084   .     S
C229   C228    1.398   1_554 D
C230   C225    1.407   1_454 D
C231   C39     1.204   1_455 T
H239   C228    1.084   1_554 S
C241   C242    1.397   .     D
C241   H256    1.084   .     S
C241   C246    1.413   1_455 S
C242   C243    1.393   .     S
C242   H257    1.080   .     S
C243   N248    1.434   .     S
C243   C244    1.402   1_455 D
C244   C245    1.398   .     S
C244   H258    1.081   .     S
C244   C243    1.402   1_655 D
C245   C246    1.415   .     D
C245   H259    1.079   .     S
C246   C241    1.413   1_655 S
C246   C388    1.553   1_655 S
C247   C254    1.475   .     S
C247   H260    1.083   .     S
C247   N248    1.300   1_655 D
N248   C247    1.300   1_455 D
C249   C250    1.399   .     S
C249   H261    1.084   .     S
C249   C254    1.407   1_456 D
C250   H262    1.084   .     S
C250   C251    1.399   1_455 D
C251   C252    1.399   .     S
C251   C255    1.437   .     S
C251   C250    1.399   1_655 D
C252   C253    1.398   1_556 D
C252   H263    1.084   1_556 S
C253   C254    1.404   .     S
C253   H264    1.084   .     S
C253   C252    1.398   1_554 D
C254   C249    1.407   1_654 D
C255   C63     1.204   1_655 T
H263   C252    1.084   1_554 S
C265   C266    1.397   .     D
C265   H280    1.084   .     S
C265   C270    1.413   1_556 S
C266   C267    1.393   .     S
C266   H281    1.080   .     S
C267   C268    1.402   .     D
C267   N272    1.434   .     S
C268   H282    1.081   .     S
C268   C269    1.398   1_556 S
C269   C270    1.415   .     D
C269   H283    1.079   .     S
C269   C268    1.398   1_554 S
C270   C265    1.413   1_554 S
C270   C387    1.553   1_565 S
C271   N272    1.300   .     D
C271   C278    1.475   .     S
C271   H284    1.083   .     S
C273   C274    1.399   .     S
C273   C278    1.407   .     D
C273   H285    1.084   .     S
C274   C275    1.399   .     D
C274   H286    1.084   .     S
C275   C276    1.399   .     S
C275   C279    1.437   .     S
C276   C277    1.398   .     D
C276   H287    1.084   .     S
C277   C278    1.404   .     S
C277   H288    1.084   .     S
C289   C290    1.397   .     D
C289   C294    1.413   .     S
C289   H304    1.084   .     S
C290   C291    1.393   .     S
C290   H305    1.080   .     S
C291   C292    1.402   .     D
C291   N296    1.434   .     S
C292   C293    1.398   .     S
C292   H306    1.081   .     S
C293   C294    1.415   .     D
C293   H307    1.079   .     S
C294   C385    1.553   1_556 S
C295   N296    1.300   .     D
C295   C302    1.475   .     S
C295   H308    1.083   .     S
C297   C298    1.399   .     S
C297   C302    1.407   .     D
C297   H309    1.084   .     S
C298   C299    1.399   .     D
C298   H310    1.084   1_554 S
C299   C300    1.399   .     S
C299   C303    1.437   1_554 S
C300   C301    1.398   .     D
C300   H311    1.084   .     S
C301   C302    1.404   .     S
C301   H312    1.084   .     S
C303   C299    1.437   1_556 S
H310   C298    1.084   1_556 S
C313   C314    1.397   .     S
C313   H328    1.084   .     S
C313   C318    1.413   1_565 D
C314   C315    1.393   .     D
C314   H329    1.080   .     S
C315   C316    1.402   1_565 S
C315   N320    1.434   1_554 S
C316   C317    1.398   .     D
C316   H330    1.081   .     S
C316   C315    1.402   1_545 S
C317   C318    1.415   .     S
C317   H331    1.079   .     S
C318   C313    1.413   1_545 D
C318   C386    1.553   1_655 S
C319   H332    1.083   .     S
C319   N320    1.300   1_544 D
C319   C326    1.475   1_554 S
N320   C315    1.434   1_556 S
N320   C319    1.300   1_566 D
C321   C322    1.399   .     S
C321   H333    1.084   .     S
C321   C326    1.407   1_565 D
C322   H334    1.084   .     S
C322   C323    1.399   1_565 D
C323   C324    1.399   .     S
C323   C327    1.437   .     S
C323   C322    1.399   1_545 D
C324   C325    1.398   .     D
C324   H335    1.084   .     S
C325   C326    1.404   .     S
C325   H336    1.084   1_556 S
C326   C319    1.475   1_556 S
C326   C321    1.407   1_545 D
C327   C111    1.204   1_545 T
H336   C325    1.084   1_554 S
C337   C338    1.397   .     S
C337   H352    1.084   .     S
C337   C342    1.413   1_545 D
C338   C339    1.393   .     D
C338   H353    1.080   .     S
C339   C340    1.402   1_545 S
C339   N344    1.434   1_554 S
C340   C341    1.398   .     D
C340   H354    1.081   .     S
C340   C339    1.402   1_565 S
C341   C342    1.415   .     S
C341   H355    1.079   .     S
C342   C337    1.413   1_565 D
C342   C386    1.553   1_565 S
C343   H356    1.083   .     S
C343   N344    1.300   1_564 D
C343   C350    1.475   1_554 S
N344   C339    1.434   1_556 S
N344   C343    1.300   1_546 D
C345   C346    1.399   .     S
C345   H357    1.084   .     S
C345   C350    1.407   1_545 D
C346   H358    1.084   .     S
C346   C347    1.399   1_545 D
C347   C348    1.399   .     S
C347   C351    1.437   .     S
C347   C346    1.399   1_565 D
C348   C349    1.398   .     D
C348   H359    1.084   .     S
C349   C350    1.404   .     S
C349   H360    1.084   1_556 S
C350   C343    1.475   1_556 S
C350   C345    1.407   1_565 D
C351   C183    1.204   1_565 T
H360   C349    1.084   1_554 S
C361   C362    1.397   .     D
C361   C366    1.413   .     S
C361   H376    1.084   .     S
C362   C363    1.393   .     S
C362   H377    1.080   .     S
C363   C364    1.402   .     D
C363   N368    1.434   .     S
C364   C365    1.398   .     S
C364   H378    1.081   .     S
C365   C366    1.415   .     D
C365   H379    1.079   .     S
C366   C385    1.553   1_556 S
C367   N368    1.300   .     D
C367   C374    1.475   .     S
C367   H380    1.083   .     S
C369   C370    1.399   .     S
C369   C374    1.407   .     D
C369   H381    1.084   .     S
C370   C371    1.399   .     D
C370   H382    1.084   1_554 S
C371   C372    1.399   .     S
C371   C375    1.437   1_554 S
C372   C373    1.398   .     D
C372   H383    1.084   .     S
C373   C374    1.404   .     S
C373   H384    1.084   .     S
C375   C371    1.437   1_556 S
H382   C370    1.084   1_556 S
C385   C294    1.553   1_554 S
C385   C366    1.553   1_554 S
C386   C30     1.553   1_445 S
C386   C318    1.553   1_455 S
C386   C342    1.553   1_545 S
C387   C102    1.553   1_545 S
C387   C270    1.553   1_545 S
C388   C150    1.553   1_455 S
C388   C246    1.553   1_455 S
