data_895
_audit_creation_date              2023-09-08
_audit_creation_method            'Materials Studio'
_symmetry_space_group_name_H-M    'P1'
_symmetry_Int_Tables_number       1
_symmetry_cell_setting            triclinic
loop_
_symmetry_equiv_pos_as_xyz
  x,y,z
_cell_length_a                    43.6198
_cell_length_b                    43.6198
_cell_length_c                    6.5346
_cell_angle_alpha                 90.0000
_cell_angle_beta                  90.0000
_cell_angle_gamma                 90.0000
loop_
_atom_site_label
_atom_site_type_symbol
_atom_site_fract_x
_atom_site_fract_y
_atom_site_fract_z
_atom_site_U_iso_or_equiv
_atom_site_adp_type
_atom_site_occupancy
C1     C     0.47458   0.04916   0.90289   0.00000  Uiso   1.00
C2     C     0.47628   0.07558   0.02300   0.00000  Uiso   1.00
C3     C     0.50209   0.08108   0.14500   0.00000  Uiso   1.00
C4     C     0.52584   0.05981   0.14664   0.00000  Uiso   1.00
C5     C     0.52430   0.03337   0.02691   0.00000  Uiso   1.00
C6     C     0.49937   0.02826   0.89380   0.00000  Uiso   1.00
C7     C     0.48784   0.13130   0.27601   0.00000  Uiso   1.00
N8     N     0.50360   0.10611   0.28604   0.00000  Uiso   1.00
C9     C     0.47592   0.18281   0.41825   0.00000  Uiso   1.00
C10    C     0.47798   0.20467   0.57404   0.00000  Uiso   1.00
C11    C     0.49435   0.19804   0.75274   0.00000  Uiso   1.00
C12    C     0.50860   0.16956   0.77644   0.00000  Uiso   1.00
C13    C     0.50664   0.14773   0.62086   0.00000  Uiso   1.00
C14    C     0.49036   0.15425   0.44011   0.00000  Uiso   1.00
C15    C     0.49874   0.23911   0.04638   0.00000  Uiso   1.00
C16    C     0.49664   0.22044   0.91209   0.00000  Uiso   1.00
H17    H     0.45336   0.04514   0.82233   0.00000  Uiso   1.00
H18    H     0.45671   0.09075   0.02771   0.00000  Uiso   1.00
H19    H     0.54559   0.06405   0.24194   0.00000  Uiso   1.00
H20    H     0.54323   0.01733   0.03057   0.00000  Uiso   1.00
H21    H     0.47293   0.13597   0.14721   0.00000  Uiso   1.00
H22    H     0.46319   0.18819   0.28053   0.00000  Uiso   1.00
H23    H     0.46689   0.22673   0.55546   0.00000  Uiso   1.00
H24    H     0.52121   0.16430   0.91503   0.00000  Uiso   1.00
H25    H     0.51766   0.12569   0.64165   0.00000  Uiso   1.00
C26    C     0.97458   0.54916   0.40289   0.00000  Uiso   1.00
C27    C     0.97628   0.57558   0.52300   0.00000  Uiso   1.00
C28    C     0.00209   0.58108   0.64500   0.00000  Uiso   1.00
C29    C     0.02584   0.55981   0.64664   0.00000  Uiso   1.00
C30    C     0.02430   0.53337   0.52691   0.00000  Uiso   1.00
C31    C     0.99937   0.52826   0.39380   0.00000  Uiso   1.00
C32    C     0.98784   0.63130   0.77601   0.00000  Uiso   1.00
N33    N     0.00360   0.60611   0.78604   0.00000  Uiso   1.00
C34    C     0.97592   0.68281   0.91825   0.00000  Uiso   1.00
C35    C     0.97798   0.70467   0.07404   0.00000  Uiso   1.00
C36    C     0.99435   0.69804   0.25274   0.00000  Uiso   1.00
C37    C     0.00860   0.66956   0.27644   0.00000  Uiso   1.00
C38    C     0.00664   0.64773   0.12086   0.00000  Uiso   1.00
C39    C     0.99036   0.65425   0.94011   0.00000  Uiso   1.00
C40    C     0.99874   0.73911   0.54638   0.00000  Uiso   1.00
C41    C     0.99664   0.72044   0.41209   0.00000  Uiso   1.00
H42    H     0.95336   0.54514   0.32233   0.00000  Uiso   1.00
H43    H     0.95671   0.59075   0.52771   0.00000  Uiso   1.00
H44    H     0.04559   0.56405   0.74194   0.00000  Uiso   1.00
H45    H     0.04323   0.51733   0.53057   0.00000  Uiso   1.00
H46    H     0.97293   0.63597   0.64721   0.00000  Uiso   1.00
H47    H     0.96319   0.68819   0.78053   0.00000  Uiso   1.00
H48    H     0.96689   0.72673   0.05546   0.00000  Uiso   1.00
H49    H     0.02121   0.66430   0.41503   0.00000  Uiso   1.00
H50    H     0.01766   0.62569   0.14165   0.00000  Uiso   1.00
C51    C     0.02542   0.45084   0.40289   0.00000  Uiso   1.00
C52    C     0.02372   0.42442   0.52300   0.00000  Uiso   1.00
C53    C     0.99791   0.41892   0.64500   0.00000  Uiso   1.00
C54    C     0.97416   0.44019   0.64664   0.00000  Uiso   1.00
C55    C     0.97570   0.46663   0.52691   0.00000  Uiso   1.00
C56    C     0.00063   0.47174   0.39380   0.00000  Uiso   1.00
C57    C     0.01216   0.36870   0.77601   0.00000  Uiso   1.00
N58    N     0.99640   0.39389   0.78604   0.00000  Uiso   1.00
C59    C     0.02408   0.31719   0.91825   0.00000  Uiso   1.00
C60    C     0.02202   0.29533   0.07404   0.00000  Uiso   1.00
C61    C     0.00565   0.30196   0.25274   0.00000  Uiso   1.00
C62    C     0.99140   0.33044   0.27644   0.00000  Uiso   1.00
C63    C     0.99336   0.35227   0.12086   0.00000  Uiso   1.00
C64    C     0.00964   0.34575   0.94011   0.00000  Uiso   1.00
C65    C     0.00126   0.26089   0.54638   0.00000  Uiso   1.00
C66    C     0.00336   0.27956   0.41209   0.00000  Uiso   1.00
H67    H     0.04664   0.45486   0.32233   0.00000  Uiso   1.00
H68    H     0.04329   0.40925   0.52771   0.00000  Uiso   1.00
H69    H     0.95441   0.43595   0.74194   0.00000  Uiso   1.00
H70    H     0.95677   0.48267   0.53057   0.00000  Uiso   1.00
H71    H     0.02707   0.36403   0.64721   0.00000  Uiso   1.00
H72    H     0.03681   0.31181   0.78053   0.00000  Uiso   1.00
H73    H     0.03311   0.27327   0.05546   0.00000  Uiso   1.00
H74    H     0.97879   0.33570   0.41503   0.00000  Uiso   1.00
H75    H     0.98234   0.37431   0.14165   0.00000  Uiso   1.00
C76    C     0.52542   0.95084   0.90289   0.00000  Uiso   1.00
C77    C     0.52372   0.92442   0.02300   0.00000  Uiso   1.00
C78    C     0.49791   0.91892   0.14500   0.00000  Uiso   1.00
C79    C     0.47416   0.94019   0.14664   0.00000  Uiso   1.00
C80    C     0.47570   0.96663   0.02691   0.00000  Uiso   1.00
C81    C     0.50063   0.97174   0.89380   0.00000  Uiso   1.00
C82    C     0.51216   0.86870   0.27601   0.00000  Uiso   1.00
N83    N     0.49640   0.89389   0.28604   0.00000  Uiso   1.00
C84    C     0.52408   0.81719   0.41825   0.00000  Uiso   1.00
C85    C     0.52202   0.79533   0.57404   0.00000  Uiso   1.00
C86    C     0.50565   0.80196   0.75274   0.00000  Uiso   1.00
C87    C     0.49140   0.83044   0.77644   0.00000  Uiso   1.00
C88    C     0.49336   0.85227   0.62086   0.00000  Uiso   1.00
C89    C     0.50964   0.84575   0.44011   0.00000  Uiso   1.00
C90    C     0.50126   0.76089   0.04638   0.00000  Uiso   1.00
C91    C     0.50336   0.77956   0.91209   0.00000  Uiso   1.00
H92    H     0.54664   0.95486   0.82233   0.00000  Uiso   1.00
H93    H     0.54329   0.90925   0.02771   0.00000  Uiso   1.00
H94    H     0.45441   0.93595   0.24194   0.00000  Uiso   1.00
H95    H     0.45677   0.98267   0.03057   0.00000  Uiso   1.00
H96    H     0.52707   0.86403   0.14721   0.00000  Uiso   1.00
H97    H     0.53681   0.81181   0.28053   0.00000  Uiso   1.00
H98    H     0.53311   0.77327   0.55546   0.00000  Uiso   1.00
H99    H     0.47879   0.83570   0.91503   0.00000  Uiso   1.00
H100   H     0.48234   0.87431   0.64165   0.00000  Uiso   1.00
C101   C     0.95084   0.97458   0.15289   0.00000  Uiso   1.00
C102   C     0.92442   0.97628   0.27300   0.00000  Uiso   1.00
C103   C     0.91892   0.00209   0.39500   0.00000  Uiso   1.00
C104   C     0.94019   0.02584   0.39664   0.00000  Uiso   1.00
C105   C     0.96663   0.02430   0.27691   0.00000  Uiso   1.00
C106   C     0.97174   0.99937   0.14380   0.00000  Uiso   1.00
C107   C     0.86870   0.98784   0.52601   0.00000  Uiso   1.00
N108   N     0.89389   0.00360   0.53604   0.00000  Uiso   1.00
C109   C     0.81719   0.97592   0.66825   0.00000  Uiso   1.00
C110   C     0.79533   0.97798   0.82404   0.00000  Uiso   1.00
C111   C     0.80196   0.99435   0.00274   0.00000  Uiso   1.00
C112   C     0.83044   0.00860   0.02644   0.00000  Uiso   1.00
C113   C     0.85227   0.00664   0.87086   0.00000  Uiso   1.00
C114   C     0.84575   0.99036   0.69011   0.00000  Uiso   1.00
C115   C     0.76089   0.99874   0.29638   0.00000  Uiso   1.00
C116   C     0.77956   0.99664   0.16209   0.00000  Uiso   1.00
H117   H     0.95486   0.95336   0.07233   0.00000  Uiso   1.00
H118   H     0.90925   0.95671   0.27771   0.00000  Uiso   1.00
H119   H     0.93595   0.04559   0.49194   0.00000  Uiso   1.00
H120   H     0.98267   0.04323   0.28057   0.00000  Uiso   1.00
H121   H     0.86403   0.97293   0.39721   0.00000  Uiso   1.00
H122   H     0.81181   0.96319   0.53053   0.00000  Uiso   1.00
H123   H     0.77327   0.96689   0.80546   0.00000  Uiso   1.00
H124   H     0.83570   0.02121   0.16503   0.00000  Uiso   1.00
H125   H     0.87431   0.01766   0.89165   0.00000  Uiso   1.00
C126   C     0.45084   0.47458   0.65289   0.00000  Uiso   1.00
C127   C     0.42442   0.47628   0.77300   0.00000  Uiso   1.00
C128   C     0.41892   0.50209   0.89500   0.00000  Uiso   1.00
C129   C     0.44019   0.52584   0.89664   0.00000  Uiso   1.00
C130   C     0.46663   0.52430   0.77691   0.00000  Uiso   1.00
C131   C     0.47174   0.49937   0.64380   0.00000  Uiso   1.00
C132   C     0.36870   0.48784   0.02601   0.00000  Uiso   1.00
N133   N     0.39389   0.50360   0.03604   0.00000  Uiso   1.00
C134   C     0.31719   0.47592   0.16825   0.00000  Uiso   1.00
C135   C     0.29533   0.47798   0.32404   0.00000  Uiso   1.00
C136   C     0.30196   0.49435   0.50274   0.00000  Uiso   1.00
C137   C     0.33044   0.50860   0.52644   0.00000  Uiso   1.00
C138   C     0.35227   0.50664   0.37086   0.00000  Uiso   1.00
C139   C     0.34575   0.49036   0.19011   0.00000  Uiso   1.00
C140   C     0.26089   0.49874   0.79638   0.00000  Uiso   1.00
C141   C     0.27956   0.49664   0.66209   0.00000  Uiso   1.00
H142   H     0.45486   0.45336   0.57233   0.00000  Uiso   1.00
H143   H     0.40925   0.45671   0.77771   0.00000  Uiso   1.00
H144   H     0.43595   0.54559   0.99194   0.00000  Uiso   1.00
H145   H     0.48267   0.54323   0.78057   0.00000  Uiso   1.00
H146   H     0.36403   0.47293   0.89721   0.00000  Uiso   1.00
H147   H     0.31181   0.46319   0.03053   0.00000  Uiso   1.00
H148   H     0.27327   0.46689   0.30546   0.00000  Uiso   1.00
H149   H     0.33570   0.52121   0.66503   0.00000  Uiso   1.00
H150   H     0.37431   0.51766   0.39165   0.00000  Uiso   1.00
C151   C     0.54916   0.52542   0.65289   0.00000  Uiso   1.00
C152   C     0.57558   0.52372   0.77300   0.00000  Uiso   1.00
C153   C     0.58108   0.49791   0.89500   0.00000  Uiso   1.00
C154   C     0.55981   0.47416   0.89664   0.00000  Uiso   1.00
C155   C     0.53337   0.47570   0.77691   0.00000  Uiso   1.00
C156   C     0.52826   0.50063   0.64380   0.00000  Uiso   1.00
C157   C     0.63130   0.51216   0.02601   0.00000  Uiso   1.00
N158   N     0.60611   0.49640   0.03604   0.00000  Uiso   1.00
C159   C     0.68281   0.52408   0.16825   0.00000  Uiso   1.00
C160   C     0.70467   0.52202   0.32404   0.00000  Uiso   1.00
C161   C     0.69804   0.50565   0.50274   0.00000  Uiso   1.00
C162   C     0.66956   0.49140   0.52644   0.00000  Uiso   1.00
C163   C     0.64773   0.49336   0.37086   0.00000  Uiso   1.00
C164   C     0.65425   0.50964   0.19011   0.00000  Uiso   1.00
C165   C     0.73911   0.50126   0.79638   0.00000  Uiso   1.00
C166   C     0.72044   0.50336   0.66209   0.00000  Uiso   1.00
H167   H     0.54514   0.54664   0.57233   0.00000  Uiso   1.00
H168   H     0.59075   0.54329   0.77771   0.00000  Uiso   1.00
H169   H     0.56405   0.45441   0.99194   0.00000  Uiso   1.00
H170   H     0.51733   0.45677   0.78057   0.00000  Uiso   1.00
H171   H     0.63597   0.52707   0.89721   0.00000  Uiso   1.00
H172   H     0.68819   0.53681   0.03053   0.00000  Uiso   1.00
H173   H     0.72673   0.53311   0.30546   0.00000  Uiso   1.00
H174   H     0.66430   0.47879   0.66503   0.00000  Uiso   1.00
H175   H     0.62569   0.48234   0.39165   0.00000  Uiso   1.00
C176   C     0.04916   0.02542   0.15289   0.00000  Uiso   1.00
C177   C     0.07558   0.02372   0.27300   0.00000  Uiso   1.00
C178   C     0.08108   0.99791   0.39500   0.00000  Uiso   1.00
C179   C     0.05981   0.97416   0.39664   0.00000  Uiso   1.00
C180   C     0.03337   0.97570   0.27691   0.00000  Uiso   1.00
C181   C     0.02826   0.00063   0.14380   0.00000  Uiso   1.00
C182   C     0.13130   0.01216   0.52601   0.00000  Uiso   1.00
N183   N     0.10611   0.99640   0.53604   0.00000  Uiso   1.00
C184   C     0.18281   0.02408   0.66825   0.00000  Uiso   1.00
C185   C     0.20467   0.02202   0.82404   0.00000  Uiso   1.00
C186   C     0.19804   0.00565   0.00274   0.00000  Uiso   1.00
C187   C     0.16956   0.99140   0.02644   0.00000  Uiso   1.00
C188   C     0.14773   0.99336   0.87086   0.00000  Uiso   1.00
C189   C     0.15425   0.00964   0.69011   0.00000  Uiso   1.00
C190   C     0.23911   0.00126   0.29638   0.00000  Uiso   1.00
C191   C     0.22044   0.00336   0.16209   0.00000  Uiso   1.00
H192   H     0.04514   0.04664   0.07233   0.00000  Uiso   1.00
H193   H     0.09075   0.04329   0.27771   0.00000  Uiso   1.00
H194   H     0.06405   0.95441   0.49194   0.00000  Uiso   1.00
H195   H     0.01733   0.95677   0.28057   0.00000  Uiso   1.00
H196   H     0.13597   0.02707   0.39721   0.00000  Uiso   1.00
H197   H     0.18819   0.03681   0.53053   0.00000  Uiso   1.00
H198   H     0.22673   0.03311   0.80546   0.00000  Uiso   1.00
H199   H     0.16430   0.97879   0.16503   0.00000  Uiso   1.00
H200   H     0.12569   0.98234   0.89165   0.00000  Uiso   1.00
C201   C     0.52542   0.45084   0.34711   0.00000  Uiso   1.00
C202   C     0.52372   0.42442   0.22700   0.00000  Uiso   1.00
C203   C     0.49791   0.41892   0.10500   0.00000  Uiso   1.00
C204   C     0.47416   0.44019   0.10336   0.00000  Uiso   1.00
C205   C     0.47570   0.46663   0.22309   0.00000  Uiso   1.00
C206   C     0.50063   0.47174   0.35620   0.00000  Uiso   1.00
C207   C     0.51216   0.36870   0.97399   0.00000  Uiso   1.00
N208   N     0.49640   0.39389   0.96396   0.00000  Uiso   1.00
C209   C     0.52408   0.31719   0.83175   0.00000  Uiso   1.00
C210   C     0.52202   0.29533   0.67596   0.00000  Uiso   1.00
C211   C     0.50565   0.30196   0.49726   0.00000  Uiso   1.00
C212   C     0.49140   0.33044   0.47356   0.00000  Uiso   1.00
C213   C     0.49336   0.35227   0.62914   0.00000  Uiso   1.00
C214   C     0.50964   0.34575   0.80989   0.00000  Uiso   1.00
C215   C     0.50126   0.26089   0.20362   0.00000  Uiso   1.00
C216   C     0.50336   0.27956   0.33791   0.00000  Uiso   1.00
H217   H     0.54664   0.45486   0.42767   0.00000  Uiso   1.00
H218   H     0.54329   0.40925   0.22229   0.00000  Uiso   1.00
H219   H     0.45441   0.43595   0.00806   0.00000  Uiso   1.00
H220   H     0.45677   0.48267   0.21943   0.00000  Uiso   1.00
H221   H     0.52707   0.36403   0.10279   0.00000  Uiso   1.00
H222   H     0.53681   0.31181   0.96947   0.00000  Uiso   1.00
H223   H     0.53311   0.27327   0.69454   0.00000  Uiso   1.00
H224   H     0.47879   0.33570   0.33497   0.00000  Uiso   1.00
H225   H     0.48234   0.37431   0.60835   0.00000  Uiso   1.00
C226   C     0.02542   0.95084   0.84711   0.00000  Uiso   1.00
C227   C     0.02372   0.92442   0.72700   0.00000  Uiso   1.00
C228   C     0.99791   0.91892   0.60500   0.00000  Uiso   1.00
C229   C     0.97416   0.94019   0.60336   0.00000  Uiso   1.00
C230   C     0.97570   0.96663   0.72309   0.00000  Uiso   1.00
C231   C     0.00063   0.97174   0.85620   0.00000  Uiso   1.00
C232   C     0.01216   0.86870   0.47399   0.00000  Uiso   1.00
N233   N     0.99640   0.89389   0.46396   0.00000  Uiso   1.00
C234   C     0.02408   0.81719   0.33175   0.00000  Uiso   1.00
C235   C     0.02202   0.79533   0.17596   0.00000  Uiso   1.00
C236   C     0.00565   0.80196   0.99726   0.00000  Uiso   1.00
C237   C     0.99140   0.83044   0.97356   0.00000  Uiso   1.00
C238   C     0.99336   0.85227   0.12914   0.00000  Uiso   1.00
C239   C     0.00964   0.84575   0.30989   0.00000  Uiso   1.00
C240   C     0.00126   0.76089   0.70362   0.00000  Uiso   1.00
C241   C     0.00336   0.77956   0.83791   0.00000  Uiso   1.00
H242   H     0.04664   0.95486   0.92767   0.00000  Uiso   1.00
H243   H     0.04329   0.90925   0.72229   0.00000  Uiso   1.00
H244   H     0.95441   0.93595   0.50806   0.00000  Uiso   1.00
H245   H     0.95677   0.98267   0.71943   0.00000  Uiso   1.00
H246   H     0.02707   0.86403   0.60279   0.00000  Uiso   1.00
H247   H     0.03681   0.81181   0.46947   0.00000  Uiso   1.00
H248   H     0.03311   0.77327   0.19454   0.00000  Uiso   1.00
H249   H     0.97879   0.83570   0.83497   0.00000  Uiso   1.00
H250   H     0.98234   0.87431   0.10835   0.00000  Uiso   1.00
C251   C     0.97458   0.04916   0.84711   0.00000  Uiso   1.00
C252   C     0.97628   0.07558   0.72700   0.00000  Uiso   1.00
C253   C     0.00209   0.08108   0.60500   0.00000  Uiso   1.00
C254   C     0.02584   0.05981   0.60336   0.00000  Uiso   1.00
C255   C     0.02430   0.03337   0.72309   0.00000  Uiso   1.00
C256   C     0.99937   0.02826   0.85620   0.00000  Uiso   1.00
C257   C     0.98784   0.13130   0.47399   0.00000  Uiso   1.00
N258   N     0.00360   0.10611   0.46396   0.00000  Uiso   1.00
C259   C     0.97592   0.18281   0.33175   0.00000  Uiso   1.00
C260   C     0.97798   0.20467   0.17596   0.00000  Uiso   1.00
C261   C     0.99435   0.19804   0.99726   0.00000  Uiso   1.00
C262   C     0.00860   0.16956   0.97356   0.00000  Uiso   1.00
C263   C     0.00664   0.14773   0.12914   0.00000  Uiso   1.00
C264   C     0.99036   0.15425   0.30989   0.00000  Uiso   1.00
C265   C     0.99874   0.23911   0.70362   0.00000  Uiso   1.00
C266   C     0.99664   0.22044   0.83791   0.00000  Uiso   1.00
H267   H     0.95336   0.04514   0.92767   0.00000  Uiso   1.00
H268   H     0.95671   0.09075   0.72229   0.00000  Uiso   1.00
H269   H     0.04559   0.06405   0.50806   0.00000  Uiso   1.00
H270   H     0.04323   0.01733   0.71943   0.00000  Uiso   1.00
H271   H     0.97293   0.13597   0.60279   0.00000  Uiso   1.00
H272   H     0.96319   0.18819   0.46947   0.00000  Uiso   1.00
H273   H     0.96689   0.22673   0.19454   0.00000  Uiso   1.00
H274   H     0.02121   0.16430   0.83497   0.00000  Uiso   1.00
H275   H     0.01766   0.12569   0.10835   0.00000  Uiso   1.00
C276   C     0.47458   0.54916   0.34711   0.00000  Uiso   1.00
C277   C     0.47628   0.57558   0.22700   0.00000  Uiso   1.00
C278   C     0.50209   0.58108   0.10500   0.00000  Uiso   1.00
C279   C     0.52584   0.55981   0.10336   0.00000  Uiso   1.00
C280   C     0.52430   0.53337   0.22309   0.00000  Uiso   1.00
C281   C     0.49937   0.52826   0.35620   0.00000  Uiso   1.00
C282   C     0.48784   0.63130   0.97399   0.00000  Uiso   1.00
N283   N     0.50360   0.60611   0.96396   0.00000  Uiso   1.00
C284   C     0.47592   0.68281   0.83175   0.00000  Uiso   1.00
C285   C     0.47798   0.70467   0.67596   0.00000  Uiso   1.00
C286   C     0.49435   0.69804   0.49726   0.00000  Uiso   1.00
C287   C     0.50860   0.66956   0.47356   0.00000  Uiso   1.00
C288   C     0.50664   0.64773   0.62914   0.00000  Uiso   1.00
C289   C     0.49036   0.65425   0.80989   0.00000  Uiso   1.00
C290   C     0.49874   0.73911   0.20362   0.00000  Uiso   1.00
C291   C     0.49664   0.72044   0.33791   0.00000  Uiso   1.00
H292   H     0.45336   0.54514   0.42767   0.00000  Uiso   1.00
H293   H     0.45671   0.59075   0.22229   0.00000  Uiso   1.00
H294   H     0.54559   0.56405   0.00806   0.00000  Uiso   1.00
H295   H     0.54323   0.51733   0.21943   0.00000  Uiso   1.00
H296   H     0.47293   0.63597   0.10279   0.00000  Uiso   1.00
H297   H     0.46319   0.68819   0.96947   0.00000  Uiso   1.00
H298   H     0.46689   0.72673   0.69454   0.00000  Uiso   1.00
H299   H     0.52121   0.66430   0.33497   0.00000  Uiso   1.00
H300   H     0.51766   0.62569   0.60835   0.00000  Uiso   1.00
C301   C     0.04916   0.52542   0.09711   0.00000  Uiso   1.00
C302   C     0.07558   0.52372   0.97700   0.00000  Uiso   1.00
C303   C     0.08108   0.49791   0.85500   0.00000  Uiso   1.00
C304   C     0.05981   0.47416   0.85336   0.00000  Uiso   1.00
C305   C     0.03337   0.47570   0.97309   0.00000  Uiso   1.00
C306   C     0.02826   0.50063   0.10620   0.00000  Uiso   1.00
C307   C     0.13130   0.51216   0.72399   0.00000  Uiso   1.00
N308   N     0.10611   0.49640   0.71396   0.00000  Uiso   1.00
C309   C     0.18281   0.52408   0.58175   0.00000  Uiso   1.00
C310   C     0.20467   0.52202   0.42596   0.00000  Uiso   1.00
C311   C     0.19804   0.50565   0.24726   0.00000  Uiso   1.00
C312   C     0.16956   0.49140   0.22356   0.00000  Uiso   1.00
C313   C     0.14773   0.49336   0.37914   0.00000  Uiso   1.00
C314   C     0.15425   0.50964   0.55989   0.00000  Uiso   1.00
C315   C     0.23911   0.50126   0.95362   0.00000  Uiso   1.00
C316   C     0.22044   0.50336   0.08791   0.00000  Uiso   1.00
H317   H     0.04514   0.54664   0.17767   0.00000  Uiso   1.00
H318   H     0.09075   0.54329   0.97229   0.00000  Uiso   1.00
H319   H     0.06405   0.45441   0.75806   0.00000  Uiso   1.00
H320   H     0.01733   0.45677   0.96943   0.00000  Uiso   1.00
H321   H     0.13597   0.52707   0.85279   0.00000  Uiso   1.00
H322   H     0.18819   0.53681   0.71947   0.00000  Uiso   1.00
H323   H     0.22673   0.53311   0.44454   0.00000  Uiso   1.00
H324   H     0.16430   0.47879   0.08497   0.00000  Uiso   1.00
H325   H     0.12569   0.48234   0.35835   0.00000  Uiso   1.00
C326   C     0.54916   0.02542   0.59711   0.00000  Uiso   1.00
C327   C     0.57558   0.02372   0.47700   0.00000  Uiso   1.00
C328   C     0.58108   0.99791   0.35500   0.00000  Uiso   1.00
C329   C     0.55981   0.97416   0.35336   0.00000  Uiso   1.00
C330   C     0.53337   0.97570   0.47309   0.00000  Uiso   1.00
C331   C     0.52826   0.00063   0.60620   0.00000  Uiso   1.00
C332   C     0.63130   0.01216   0.22399   0.00000  Uiso   1.00
N333   N     0.60611   0.99640   0.21396   0.00000  Uiso   1.00
C334   C     0.68281   0.02408   0.08175   0.00000  Uiso   1.00
C335   C     0.70467   0.02202   0.92596   0.00000  Uiso   1.00
C336   C     0.69804   0.00565   0.74726   0.00000  Uiso   1.00
C337   C     0.66956   0.99140   0.72356   0.00000  Uiso   1.00
C338   C     0.64773   0.99336   0.87914   0.00000  Uiso   1.00
C339   C     0.65425   0.00964   0.05989   0.00000  Uiso   1.00
C340   C     0.73911   0.00126   0.45362   0.00000  Uiso   1.00
C341   C     0.72044   0.00336   0.58791   0.00000  Uiso   1.00
H342   H     0.54514   0.04664   0.67767   0.00000  Uiso   1.00
H343   H     0.59075   0.04329   0.47229   0.00000  Uiso   1.00
H344   H     0.56405   0.95441   0.25806   0.00000  Uiso   1.00
H345   H     0.51733   0.95677   0.46943   0.00000  Uiso   1.00
H346   H     0.63597   0.02707   0.35279   0.00000  Uiso   1.00
H347   H     0.68819   0.03681   0.21947   0.00000  Uiso   1.00
H348   H     0.72673   0.03311   0.94454   0.00000  Uiso   1.00
H349   H     0.66430   0.97879   0.58497   0.00000  Uiso   1.00
H350   H     0.62569   0.98234   0.85835   0.00000  Uiso   1.00
C351   C     0.45084   0.97458   0.59711   0.00000  Uiso   1.00
C352   C     0.42442   0.97628   0.47700   0.00000  Uiso   1.00
C353   C     0.41892   0.00209   0.35500   0.00000  Uiso   1.00
C354   C     0.44019   0.02584   0.35336   0.00000  Uiso   1.00
C355   C     0.46663   0.02430   0.47309   0.00000  Uiso   1.00
C356   C     0.47174   0.99937   0.60620   0.00000  Uiso   1.00
C357   C     0.36870   0.98784   0.22399   0.00000  Uiso   1.00
N358   N     0.39389   0.00360   0.21396   0.00000  Uiso   1.00
C359   C     0.31719   0.97592   0.08175   0.00000  Uiso   1.00
C360   C     0.29533   0.97798   0.92596   0.00000  Uiso   1.00
C361   C     0.30196   0.99435   0.74726   0.00000  Uiso   1.00
C362   C     0.33044   0.00860   0.72356   0.00000  Uiso   1.00
C363   C     0.35227   0.00664   0.87914   0.00000  Uiso   1.00
C364   C     0.34575   0.99036   0.05989   0.00000  Uiso   1.00
C365   C     0.26089   0.99874   0.45362   0.00000  Uiso   1.00
C366   C     0.27956   0.99664   0.58791   0.00000  Uiso   1.00
H367   H     0.45486   0.95336   0.67767   0.00000  Uiso   1.00
H368   H     0.40925   0.95671   0.47229   0.00000  Uiso   1.00
H369   H     0.43595   0.04559   0.25806   0.00000  Uiso   1.00
H370   H     0.48267   0.04323   0.46943   0.00000  Uiso   1.00
H371   H     0.36403   0.97293   0.35279   0.00000  Uiso   1.00
H372   H     0.31181   0.96319   0.21947   0.00000  Uiso   1.00
H373   H     0.27327   0.96689   0.94454   0.00000  Uiso   1.00
H374   H     0.33570   0.02121   0.58497   0.00000  Uiso   1.00
H375   H     0.37431   0.01766   0.85835   0.00000  Uiso   1.00
C376   C     0.95084   0.47458   0.09711   0.00000  Uiso   1.00
C377   C     0.92442   0.47628   0.97700   0.00000  Uiso   1.00
C378   C     0.91892   0.50209   0.85500   0.00000  Uiso   1.00
C379   C     0.94019   0.52584   0.85336   0.00000  Uiso   1.00
C380   C     0.96663   0.52430   0.97309   0.00000  Uiso   1.00
C381   C     0.97174   0.49937   0.10620   0.00000  Uiso   1.00
C382   C     0.86870   0.48784   0.72399   0.00000  Uiso   1.00
N383   N     0.89389   0.50360   0.71396   0.00000  Uiso   1.00
C384   C     0.81719   0.47592   0.58175   0.00000  Uiso   1.00
C385   C     0.79533   0.47798   0.42596   0.00000  Uiso   1.00
C386   C     0.80196   0.49435   0.24726   0.00000  Uiso   1.00
C387   C     0.83044   0.50860   0.22356   0.00000  Uiso   1.00
C388   C     0.85227   0.50664   0.37914   0.00000  Uiso   1.00
C389   C     0.84575   0.49036   0.55989   0.00000  Uiso   1.00
C390   C     0.76089   0.49874   0.95362   0.00000  Uiso   1.00
C391   C     0.77956   0.49664   0.08791   0.00000  Uiso   1.00
H392   H     0.95486   0.45336   0.17767   0.00000  Uiso   1.00
H393   H     0.90925   0.45671   0.97229   0.00000  Uiso   1.00
H394   H     0.93595   0.54559   0.75806   0.00000  Uiso   1.00
H395   H     0.98267   0.54323   0.96943   0.00000  Uiso   1.00
H396   H     0.86403   0.47293   0.85279   0.00000  Uiso   1.00
H397   H     0.81181   0.46319   0.71947   0.00000  Uiso   1.00
H398   H     0.77327   0.46689   0.44454   0.00000  Uiso   1.00
H399   H     0.83570   0.52121   0.08497   0.00000  Uiso   1.00
H400   H     0.87431   0.51766   0.35835   0.00000  Uiso   1.00
C401   C     0.50000   0.00000   0.75000   0.00000  Uiso   1.00
C402   C     0.00000   0.50000   0.25000   0.00000  Uiso   1.00
C403   C     0.00000   0.00000   0.00000   0.00000  Uiso   1.00
C404   C     0.50000   0.50000   0.50000   0.00000  Uiso   1.00
loop_
_geom_bond_atom_site_label_1
_geom_bond_atom_site_label_2
_geom_bond_distance
_geom_bond_site_symmetry_2
_ccdc_geom_bond_type
C1     C6      1.416   .     D
C1     H17     1.079   .     S
C1     C2      1.396   1_556 S
C2     C3      1.400   .     D
C2     H18     1.081   .     S
C2     C1      1.396   1_554 S
C3     C4      1.391   .     S
C3     N8      1.430   .     S
C4     C5      1.395   .     D
C4     H19     1.079   .     S
C5     H20     1.083   .     S
C5     C6      1.410   1_554 S
C6     C401    1.550   .     S
C6     C5      1.410   1_556 S
C7     N8      1.298   .     D
C7     C14     1.471   .     S
C7     H21     1.083   .     S
C9     C10     1.398   .     S
C9     C14     1.403   .     D
C9     H22     1.083   .     S
C10    C11     1.399   .     D
C10    H23     1.084   .     S
C11    C12     1.398   .     S
C11    C16     1.431   .     S
C12    C13     1.396   .     D
C12    H24     1.084   .     S
C13    C14     1.407   .     S
C13    H25     1.083   .     S
C15    C215    1.404   .     S
C15    C16     1.201   1_554 T
C16    C15     1.201   1_556 T
C26    C27     1.396   .     D
C26    C31     1.416   .     S
C26    H42     1.079   .     S
C27    H43     1.081   .     S
C27    C28     1.400   1_655 S
C28    C29     1.391   .     D
C28    N33     1.430   .     S
C28    C27     1.400   1_455 S
C29    C30     1.395   .     S
C29    H44     1.079   .     S
C30    H45     1.083   .     S
C30    C31     1.410   1_455 D
C31    C30     1.410   1_655 D
C31    C402    1.550   1_655 S
C32    C39     1.471   .     S
C32    H46     1.083   .     S
C32    N33     1.298   1_655 D
N33    C32     1.298   1_455 D
C34    C39     1.403   .     D
C34    H47     1.083   .     S
C34    C35     1.398   1_556 S
C35    C36     1.399   .     D
C35    H48     1.084   .     S
C35    C34     1.398   1_554 S
C36    C41     1.431   .     S
C36    C37     1.398   1_655 S
C37    C38     1.396   .     D
C37    H49     1.084   .     S
C37    C36     1.398   1_455 S
C38    H50     1.083   .     S
C38    C39     1.407   1_454 S
C39    C38     1.407   1_656 S
C40    C41     1.201   .     T
C40    C240    1.404   1_655 S
C51    C52     1.396   .     D
C51    C56     1.416   .     S
C51    H67     1.079   .     S
C52    H68     1.081   .     S
C52    C53     1.400   1_455 S
C53    C54     1.391   .     D
C53    N58     1.430   .     S
C53    C52     1.400   1_655 S
C54    C55     1.395   .     S
C54    H69     1.079   .     S
C55    H70     1.083   .     S
C55    C56     1.410   1_655 D
C56    C402    1.550   .     S
C56    C55     1.410   1_455 D
C57    C64     1.471   .     S
C57    H71     1.083   .     S
C57    N58     1.298   1_455 D
N58    C57     1.298   1_655 D
C59    C64     1.403   .     D
C59    H72     1.083   .     S
C59    C60     1.398   1_556 S
C60    C61     1.399   .     D
C60    H73     1.084   .     S
C60    C59     1.398   1_554 S
C61    C66     1.431   .     S
C61    C62     1.398   1_455 S
C62    C63     1.396   .     D
C62    H74     1.084   .     S
C62    C61     1.398   1_655 S
C63    H75     1.083   .     S
C63    C64     1.407   1_654 S
C64    C63     1.407   1_456 S
C65    C66     1.201   .     T
C65    C265    1.404   1_455 S
C76    C81     1.416   .     D
C76    H92     1.079   .     S
C76    C77     1.396   1_556 S
C77    C78     1.400   .     D
C77    H93     1.081   .     S
C77    C76     1.396   1_554 S
C78    C79     1.391   .     S
C78    N83     1.430   .     S
C79    C80     1.395   .     D
C79    H94     1.079   .     S
C80    H95     1.083   .     S
C80    C81     1.410   1_554 S
C81    C80     1.410   1_556 S
C81    C401    1.550   1_565 S
C82    N83     1.298   .     D
C82    C89     1.471   .     S
C82    H96     1.083   .     S
C84    C85     1.398   .     S
C84    C89     1.403   .     D
C84    H97     1.083   .     S
C85    C86     1.399   .     D
C85    H98     1.084   .     S
C86    C87     1.398   .     S
C86    C91     1.431   .     S
C87    C88     1.396   .     D
C87    H99     1.084   .     S
C88    C89     1.407   .     S
C88    H100    1.083   .     S
C90    C290    1.404   .     S
C90    C91     1.201   1_554 T
C91    C90     1.201   1_556 T
C101   C102    1.396   .     D
C101   C106    1.416   .     S
C101   H117    1.079   .     S
C102   H118    1.081   .     S
C102   C103    1.400   1_565 S
C103   C104    1.391   .     D
C103   N108    1.430   .     S
C103   C102    1.400   1_545 S
C104   C105    1.395   .     S
C104   H119    1.079   .     S
C105   H120    1.083   .     S
C105   C106    1.410   1_545 D
C106   C105    1.410   1_565 D
C106   C403    1.550   1_665 S
C107   C114    1.471   .     S
C107   H121    1.083   .     S
C107   N108    1.298   1_565 D
N108   C107    1.298   1_545 D
C109   C110    1.398   .     S
C109   C114    1.403   .     D
C109   H122    1.083   .     S
C110   H123    1.084   .     S
C110   C111    1.399   1_556 D
C111   C116    1.431   .     S
C111   C110    1.399   1_554 D
C111   C112    1.398   1_565 S
C112   H124    1.084   .     S
C112   C111    1.398   1_545 S
C112   C113    1.396   1_554 D
C113   H125    1.083   .     S
C113   C112    1.396   1_556 D
C113   C114    1.407   1_545 S
C114   C113    1.407   1_565 S
C115   C116    1.201   .     T
C115   C340    1.404   1_565 S
C126   C127    1.396   .     S
C126   C131    1.416   .     D
C126   H142    1.079   .     S
C127   C128    1.400   .     D
C127   H143    1.081   .     S
C128   C129    1.391   .     S
C128   N133    1.430   1_556 S
C129   C130    1.395   .     D
C129   H144    1.079   .     S
C130   C131    1.410   .     S
C130   H145    1.083   .     S
C131   C404    1.550   .     S
C132   N133    1.298   .     D
C132   C139    1.471   .     S
C132   H146    1.083   1_554 S
N133   C128    1.430   1_554 S
C134   C135    1.398   .     S
C134   C139    1.403   .     D
C134   H147    1.083   .     S
C135   C136    1.399   .     D
C135   H148    1.084   .     S
C136   C137    1.398   .     S
C136   C141    1.431   .     S
C137   C138    1.396   .     D
C137   H149    1.084   .     S
C138   C139    1.407   .     S
C138   H150    1.083   .     S
C140   C141    1.201   .     T
C140   C315    1.404   .     S
H146   C132    1.083   1_556 S
C151   C152    1.396   .     S
C151   C156    1.416   .     D
C151   H167    1.079   .     S
C152   C153    1.400   .     D
C152   H168    1.081   .     S
C153   C154    1.391   .     S
C153   N158    1.430   1_556 S
C154   C155    1.395   .     D
C154   H169    1.079   .     S
C155   C156    1.410   .     S
C155   H170    1.083   .     S
C156   C404    1.550   .     S
C157   N158    1.298   .     D
C157   C164    1.471   .     S
C157   H171    1.083   1_554 S
N158   C153    1.430   1_554 S
C159   C160    1.398   .     S
C159   C164    1.403   .     D
C159   H172    1.083   .     S
C160   C161    1.399   .     D
C160   H173    1.084   .     S
C161   C162    1.398   .     S
C161   C166    1.431   .     S
C162   C163    1.396   .     D
C162   H174    1.084   .     S
C163   C164    1.407   .     S
C163   H175    1.083   .     S
C165   C166    1.201   .     T
C165   C390    1.404   .     S
H171   C157    1.083   1_556 S
C176   C177    1.396   .     D
C176   C181    1.416   .     S
C176   H192    1.079   .     S
C177   H193    1.081   .     S
C177   C178    1.400   1_545 S
C178   C179    1.391   .     D
C178   N183    1.430   .     S
C178   C177    1.400   1_565 S
C179   C180    1.395   .     S
C179   H194    1.079   .     S
C180   H195    1.083   .     S
C180   C181    1.410   1_565 D
C181   C403    1.550   .     S
C181   C180    1.410   1_545 D
C182   C189    1.471   .     S
C182   H196    1.083   .     S
C182   N183    1.298   1_545 D
N183   C182    1.298   1_565 D
C184   C185    1.398   .     S
C184   C189    1.403   .     D
C184   H197    1.083   .     S
C185   H198    1.084   .     S
C185   C186    1.399   1_556 D
C186   C191    1.431   .     S
C186   C185    1.399   1_554 D
C186   C187    1.398   1_545 S
C187   H199    1.084   .     S
C187   C186    1.398   1_565 S
C187   C188    1.396   1_554 D
C188   H200    1.083   .     S
C188   C187    1.396   1_556 D
C188   C189    1.407   1_565 S
C189   C188    1.407   1_545 S
C190   C191    1.201   .     T
C190   C365    1.404   1_545 S
C201   C202    1.396   .     D
C201   C206    1.416   .     S
C201   H217    1.079   .     S
C202   C203    1.400   .     S
C202   H218    1.081   .     S
C203   C204    1.391   .     D
C203   N208    1.430   1_554 S
C204   C205    1.395   .     S
C204   H219    1.079   .     S
C205   C206    1.410   .     D
C205   H220    1.083   .     S
C206   C404    1.550   .     S
C207   N208    1.298   .     D
C207   C214    1.471   .     S
C207   H221    1.083   1_556 S
N208   C203    1.430   1_556 S
C209   C210    1.398   .     S
C209   C214    1.403   .     D
C209   H222    1.083   .     S
C210   C211    1.399   .     D
C210   H223    1.084   .     S
C211   C212    1.398   .     S
C211   C216    1.431   .     S
C212   C213    1.396   .     D
C212   H224    1.084   .     S
C213   C214    1.407   .     S
C213   H225    1.083   .     S
C215   C216    1.201   .     T
H221   C207    1.083   1_554 S
C226   C227    1.396   .     D
C226   C231    1.416   .     S
C226   H242    1.079   .     S
C227   H243    1.081   .     S
C227   C228    1.400   1_455 S
C228   C229    1.391   .     D
C228   N233    1.430   .     S
C228   C227    1.400   1_655 S
C229   C230    1.395   .     S
C229   H244    1.079   .     S
C230   H245    1.083   .     S
C230   C231    1.410   1_655 D
C231   C230    1.410   1_455 D
C231   C403    1.550   1_566 S
C232   C239    1.471   .     S
C232   H246    1.083   .     S
C232   N233    1.298   1_455 D
N233   C232    1.298   1_655 D
C234   C235    1.398   .     S
C234   C239    1.403   .     D
C234   H247    1.083   .     S
C235   H248    1.084   .     S
C235   C236    1.399   1_554 D
C236   C241    1.431   .     S
C236   C235    1.399   1_556 D
C236   C237    1.398   1_455 S
C237   H249    1.084   .     S
C237   C236    1.398   1_655 S
C237   C238    1.396   1_556 D
C238   H250    1.083   .     S
C238   C237    1.396   1_554 D
C238   C239    1.407   1_655 S
C239   C238    1.407   1_455 S
C240   C241    1.201   .     T
C240   C40     1.404   1_455 S
C251   C252    1.396   .     D
C251   C256    1.416   .     S
C251   H267    1.079   .     S
C252   H268    1.081   .     S
C252   C253    1.400   1_655 S
C253   C254    1.391   .     D
C253   N258    1.430   .     S
C253   C252    1.400   1_455 S
C254   C255    1.395   .     S
C254   H269    1.079   .     S
C255   H270    1.083   .     S
C255   C256    1.410   1_455 D
C256   C255    1.410   1_655 D
C256   C403    1.550   1_656 S
C257   C264    1.471   .     S
C257   H271    1.083   .     S
C257   N258    1.298   1_655 D
N258   C257    1.298   1_455 D
C259   C260    1.398   .     S
C259   C264    1.403   .     D
C259   H272    1.083   .     S
C260   H273    1.084   .     S
C260   C261    1.399   1_554 D
C261   C266    1.431   .     S
C261   C260    1.399   1_556 D
C261   C262    1.398   1_655 S
C262   H274    1.084   .     S
C262   C261    1.398   1_455 S
C262   C263    1.396   1_556 D
C263   H275    1.083   .     S
C263   C262    1.396   1_554 D
C263   C264    1.407   1_455 S
C264   C263    1.407   1_655 S
C265   C266    1.201   .     T
C265   C65     1.404   1_655 S
C276   C277    1.396   .     D
C276   C281    1.416   .     S
C276   H292    1.079   .     S
C277   C278    1.400   .     S
C277   H293    1.081   .     S
C278   C279    1.391   .     D
C278   N283    1.430   1_554 S
C279   C280    1.395   .     S
C279   H294    1.079   .     S
C280   C281    1.410   .     D
C280   H295    1.083   .     S
C281   C404    1.550   .     S
C282   N283    1.298   .     D
C282   C289    1.471   .     S
C282   H296    1.083   1_556 S
N283   C278    1.430   1_556 S
C284   C285    1.398   .     S
C284   C289    1.403   .     D
C284   H297    1.083   .     S
C285   C286    1.399   .     D
C285   H298    1.084   .     S
C286   C287    1.398   .     S
C286   C291    1.431   .     S
C287   C288    1.396   .     D
C287   H299    1.084   .     S
C288   C289    1.407   .     S
C288   H300    1.083   .     S
C290   C291    1.201   .     T
H296   C282    1.083   1_554 S
C301   C306    1.416   .     S
C301   H317    1.079   .     S
C301   C302    1.396   1_554 D
C302   C303    1.400   .     S
C302   H318    1.081   .     S
C302   C301    1.396   1_556 D
C303   C304    1.391   .     D
C303   N308    1.430   .     S
C304   C305    1.395   .     S
C304   H319    1.079   .     S
C305   H320    1.083   .     S
C305   C306    1.410   1_556 D
C306   C402    1.550   .     S
C306   C305    1.410   1_554 D
C307   N308    1.298   .     D
C307   C314    1.471   .     S
C307   H321    1.083   .     S
C309   C310    1.398   .     S
C309   C314    1.403   .     D
C309   H322    1.083   .     S
C310   C311    1.399   .     D
C310   H323    1.084   .     S
C311   C312    1.398   .     S
C311   C316    1.431   .     S
C312   C313    1.396   .     D
C312   H324    1.084   .     S
C313   C314    1.407   .     S
C313   H325    1.083   .     S
C315   C316    1.201   1_556 T
C316   C315    1.201   1_554 T
C326   C327    1.396   .     D
C326   C331    1.416   .     S
C326   H342    1.079   .     S
C327   H343    1.081   .     S
C327   C328    1.400   1_545 S
C328   C329    1.391   .     D
C328   N333    1.430   .     S
C328   C327    1.400   1_565 S
C329   C330    1.395   .     S
C329   H344    1.079   .     S
C330   H345    1.083   .     S
C330   C331    1.410   1_565 D
C331   C401    1.550   .     S
C331   C330    1.410   1_545 D
C332   C339    1.471   .     S
C332   H346    1.083   .     S
C332   N333    1.298   1_545 D
N333   C332    1.298   1_565 D
C334   C339    1.403   .     D
C334   H347    1.083   .     S
C334   C335    1.398   1_554 S
C335   C336    1.399   .     D
C335   H348    1.084   .     S
C335   C334    1.398   1_556 S
C336   C341    1.431   .     S
C336   C337    1.398   1_545 S
C337   C338    1.396   .     D
C337   H349    1.084   .     S
C337   C336    1.398   1_565 S
C338   H350    1.083   .     S
C338   C339    1.407   1_566 S
C339   C338    1.407   1_544 S
C340   C341    1.201   .     T
C340   C115    1.404   1_545 S
C351   C352    1.396   .     D
C351   C356    1.416   .     S
C351   H367    1.079   .     S
C352   H368    1.081   .     S
C352   C353    1.400   1_565 S
C353   C354    1.391   .     D
C353   N358    1.430   .     S
C353   C352    1.400   1_545 S
C354   C355    1.395   .     S
C354   H369    1.079   .     S
C355   H370    1.083   .     S
C355   C356    1.410   1_545 D
C356   C355    1.410   1_565 D
C356   C401    1.550   1_565 S
C357   C364    1.471   .     S
C357   H371    1.083   .     S
C357   N358    1.298   1_565 D
N358   C357    1.298   1_545 D
C359   C364    1.403   .     D
C359   H372    1.083   .     S
C359   C360    1.398   1_554 S
C360   C361    1.399   .     D
C360   H373    1.084   .     S
C360   C359    1.398   1_556 S
C361   C366    1.431   .     S
C361   C362    1.398   1_565 S
C362   C363    1.396   .     D
C362   H374    1.084   .     S
C362   C361    1.398   1_545 S
C363   H375    1.083   .     S
C363   C364    1.407   1_546 S
C364   C363    1.407   1_564 S
C365   C366    1.201   .     T
C365   C190    1.404   1_565 S
C376   C381    1.416   .     S
C376   H392    1.079   .     S
C376   C377    1.396   1_554 D
C377   C378    1.400   .     S
C377   H393    1.081   .     S
C377   C376    1.396   1_556 D
C378   C379    1.391   .     D
C378   N383    1.430   .     S
C379   C380    1.395   .     S
C379   H394    1.079   .     S
C380   H395    1.083   .     S
C380   C381    1.410   1_556 D
C381   C380    1.410   1_554 D
C381   C402    1.550   1_655 S
C382   N383    1.298   .     D
C382   C389    1.471   .     S
C382   H396    1.083   .     S
C384   C385    1.398   .     S
C384   C389    1.403   .     D
C384   H397    1.083   .     S
C385   C386    1.399   .     D
C385   H398    1.084   .     S
C386   C387    1.398   .     S
C386   C391    1.431   .     S
C387   C388    1.396   .     D
C387   H399    1.084   .     S
C388   C389    1.407   .     S
C388   H400    1.083   .     S
C390   C391    1.201   1_556 T
C391   C390    1.201   1_554 T
C401   C81     1.550   1_545 S
C401   C356    1.550   1_545 S
C402   C31     1.550   1_455 S
C402   C381    1.550   1_455 S
C403   C106    1.550   1_445 S
C403   C231    1.550   1_544 S
C403   C256    1.550   1_454 S
