data_9
_audit_creation_date              2023-09-08
_audit_creation_method            'Materials Studio'
_symmetry_space_group_name_H-M    'P1'
_symmetry_Int_Tables_number       1
_symmetry_cell_setting            triclinic
loop_
_symmetry_equiv_pos_as_xyz
  x,y,z
_cell_length_a                    43.7788
_cell_length_b                    23.4757
_cell_length_c                    21.3782
_cell_angle_alpha                 90.0000
_cell_angle_beta                  90.0000
_cell_angle_gamma                 90.0000
loop_
_atom_site_label
_atom_site_type_symbol
_atom_site_fract_x
_atom_site_fract_y
_atom_site_fract_z
_atom_site_U_iso_or_equiv
_atom_site_adp_type
_atom_site_occupancy
C1     C     0.42058   0.57478   0.69528   0.00000  Uiso   1.00
C2     C     0.57942   0.42522   0.19528   0.00000  Uiso   1.00
C3     C     0.42058   0.42522   0.19528   0.00000  Uiso   1.00
C4     C     0.57942   0.57478   0.69528   0.00000  Uiso   1.00
C5     C     0.39758   0.57272   0.74017   0.00000  Uiso   1.00
C6     C     0.60242   0.42728   0.24017   0.00000  Uiso   1.00
C7     C     0.39758   0.42728   0.24017   0.00000  Uiso   1.00
C8     C     0.60242   0.57272   0.74017   0.00000  Uiso   1.00
C9     C     0.29270   0.59968   0.85938   0.00000  Uiso   1.00
C10    C     0.70730   0.40032   0.35938   0.00000  Uiso   1.00
C11    C     0.29270   0.40032   0.35938   0.00000  Uiso   1.00
C12    C     0.70730   0.59968   0.85938   0.00000  Uiso   1.00
C13    C     0.26997   0.60084   0.90488   0.00000  Uiso   1.00
C14    C     0.73003   0.39916   0.40488   0.00000  Uiso   1.00
C15    C     0.26997   0.39916   0.40488   0.00000  Uiso   1.00
C16    C     0.73003   0.60084   0.90488   0.00000  Uiso   1.00
C17    C     0.08285   0.65984   0.47406   0.00000  Uiso   1.00
C18    C     0.91715   0.34016   0.97406   0.00000  Uiso   1.00
C19    C     0.08285   0.34016   0.97406   0.00000  Uiso   1.00
C20    C     0.91715   0.65984   0.47406   0.00000  Uiso   1.00
C21    C     0.10500   0.61741   0.47786   0.00000  Uiso   1.00
C22    C     0.89500   0.38259   0.97786   0.00000  Uiso   1.00
C23    C     0.10500   0.38259   0.97786   0.00000  Uiso   1.00
C24    C     0.89500   0.61741   0.47786   0.00000  Uiso   1.00
C25    C     0.18067   0.46029   0.43615   0.00000  Uiso   1.00
C26    C     0.81933   0.53971   0.93615   0.00000  Uiso   1.00
C27    C     0.18067   0.53971   0.93615   0.00000  Uiso   1.00
C28    C     0.81933   0.46029   0.43615   0.00000  Uiso   1.00
C29    C     0.20175   0.41589   0.43434   0.00000  Uiso   1.00
C30    C     0.79825   0.58411   0.93434   0.00000  Uiso   1.00
C31    C     0.20175   0.58411   0.93434   0.00000  Uiso   1.00
C32    C     0.79825   0.41589   0.43434   0.00000  Uiso   1.00
H33    H     0.60139   0.69437   0.61748   0.00000  Uiso   1.00
H34    H     0.39861   0.30563   0.11748   0.00000  Uiso   1.00
H35    H     0.60139   0.30563   0.11748   0.00000  Uiso   1.00
H36    H     0.39861   0.69437   0.61748   0.00000  Uiso   1.00
H37    H     0.64206   0.69054   0.69630   0.00000  Uiso   1.00
H38    H     0.35794   0.30946   0.19630   0.00000  Uiso   1.00
H39    H     0.64206   0.30946   0.19630   0.00000  Uiso   1.00
H40    H     0.35794   0.69054   0.69630   0.00000  Uiso   1.00
H41    H     0.69339   0.74130   0.84782   0.00000  Uiso   1.00
H42    H     0.30661   0.25870   0.34782   0.00000  Uiso   1.00
H43    H     0.69339   0.25870   0.34782   0.00000  Uiso   1.00
H44    H     0.30661   0.74130   0.84782   0.00000  Uiso   1.00
H45    H     0.73224   0.74407   0.92972   0.00000  Uiso   1.00
H46    H     0.26776   0.25593   0.42972   0.00000  Uiso   1.00
H47    H     0.73224   0.25593   0.42972   0.00000  Uiso   1.00
H48    H     0.26776   0.74407   0.92972   0.00000  Uiso   1.00
H49    H     0.90607   0.72263   0.61590   0.00000  Uiso   1.00
H50    H     0.09393   0.27737   0.11590   0.00000  Uiso   1.00
H51    H     0.90607   0.27737   0.11590   0.00000  Uiso   1.00
H52    H     0.09393   0.72263   0.61590   0.00000  Uiso   1.00
H53    H     0.86701   0.64832   0.62264   0.00000  Uiso   1.00
H54    H     0.13299   0.35168   0.12264   0.00000  Uiso   1.00
H55    H     0.86701   0.35168   0.12264   0.00000  Uiso   1.00
H56    H     0.13299   0.64832   0.62264   0.00000  Uiso   1.00
H57    H     0.82150   0.48104   0.59351   0.00000  Uiso   1.00
H58    H     0.17850   0.51896   0.09351   0.00000  Uiso   1.00
H59    H     0.82150   0.51896   0.09351   0.00000  Uiso   1.00
H60    H     0.17850   0.48104   0.59351   0.00000  Uiso   1.00
H61    H     0.78504   0.40410   0.59084   0.00000  Uiso   1.00
H62    H     0.21496   0.59590   0.09084   0.00000  Uiso   1.00
H63    H     0.78504   0.59590   0.09084   0.00000  Uiso   1.00
H64    H     0.21496   0.40410   0.59084   0.00000  Uiso   1.00
C65    C     0.39845   0.33967   0.15164   0.00000  Uiso   1.00
C66    C     0.60155   0.66033   0.65164   0.00000  Uiso   1.00
C67    C     0.39845   0.66033   0.65164   0.00000  Uiso   1.00
C68    C     0.60155   0.33967   0.15164   0.00000  Uiso   1.00
C69    C     0.37538   0.34186   0.19642   0.00000  Uiso   1.00
C70    C     0.62462   0.65814   0.69642   0.00000  Uiso   1.00
C71    C     0.37538   0.65814   0.69642   0.00000  Uiso   1.00
C72    C     0.62462   0.34186   0.19642   0.00000  Uiso   1.00
C73    C     0.29605   0.29788   0.36305   0.00000  Uiso   1.00
C74    C     0.70395   0.70212   0.86305   0.00000  Uiso   1.00
C75    C     0.29605   0.70212   0.86305   0.00000  Uiso   1.00
C76    C     0.70395   0.29788   0.36305   0.00000  Uiso   1.00
C77    C     0.27358   0.29654   0.40909   0.00000  Uiso   1.00
C78    C     0.72642   0.70346   0.90909   0.00000  Uiso   1.00
C79    C     0.27358   0.70346   0.90909   0.00000  Uiso   1.00
C80    C     0.72642   0.29654   0.40909   0.00000  Uiso   1.00
C81    C     0.08367   0.96920   0.97210   0.00000  Uiso   1.00
C82    C     0.91633   0.03080   0.47210   0.00000  Uiso   1.00
C83    C     0.08367   0.03080   0.47210   0.00000  Uiso   1.00
C84    C     0.91633   0.96920   0.97210   0.00000  Uiso   1.00
C85    C     0.10583   0.92678   0.97588   0.00000  Uiso   1.00
C86    C     0.89417   0.07322   0.47588   0.00000  Uiso   1.00
C87    C     0.10583   0.07322   0.47588   0.00000  Uiso   1.00
C88    C     0.89417   0.92678   0.97588   0.00000  Uiso   1.00
C89    C     0.18506   0.77526   0.93372   0.00000  Uiso   1.00
C90    C     0.81494   0.22474   0.43372   0.00000  Uiso   1.00
C91    C     0.18506   0.22474   0.43372   0.00000  Uiso   1.00
C92    C     0.81494   0.77526   0.93372   0.00000  Uiso   1.00
C93    C     0.20595   0.73051   0.93231   0.00000  Uiso   1.00
C94    C     0.79405   0.26949   0.43231   0.00000  Uiso   1.00
C95    C     0.20595   0.26949   0.43231   0.00000  Uiso   1.00
C96    C     0.79405   0.73051   0.93231   0.00000  Uiso   1.00
H97    H     0.56204   0.45772   0.19510   0.00000  Uiso   1.00
H98    H     0.43796   0.54228   0.69510   0.00000  Uiso   1.00
H99    H     0.56204   0.54228   0.69510   0.00000  Uiso   1.00
H100   H     0.43796   0.45772   0.19510   0.00000  Uiso   1.00
H101   H     0.60241   0.46119   0.27446   0.00000  Uiso   1.00
H102   H     0.39759   0.53881   0.77446   0.00000  Uiso   1.00
H103   H     0.60241   0.53881   0.77446   0.00000  Uiso   1.00
H104   H     0.39759   0.46119   0.27446   0.00000  Uiso   1.00
H105   H     0.70017   0.44088   0.34060   0.00000  Uiso   1.00
H106   H     0.29983   0.55912   0.84060   0.00000  Uiso   1.00
H107   H     0.70017   0.55912   0.84060   0.00000  Uiso   1.00
H108   H     0.29983   0.44088   0.34060   0.00000  Uiso   1.00
H109   H     0.73870   0.43937   0.42179   0.00000  Uiso   1.00
H110   H     0.26130   0.56063   0.92179   0.00000  Uiso   1.00
H111   H     0.73870   0.56063   0.92179   0.00000  Uiso   1.00
H112   H     0.26130   0.43937   0.42179   0.00000  Uiso   1.00
H113   H     0.90755   0.02797   0.11665   0.00000  Uiso   1.00
H114   H     0.09245   0.97203   0.61665   0.00000  Uiso   1.00
H115   H     0.90755   0.97203   0.61665   0.00000  Uiso   1.00
H116   H     0.09245   0.02797   0.11665   0.00000  Uiso   1.00
H117   H     0.86859   0.95343   0.12355   0.00000  Uiso   1.00
H118   H     0.13141   0.04657   0.62355   0.00000  Uiso   1.00
H119   H     0.86859   0.04657   0.62355   0.00000  Uiso   1.00
H120   H     0.13141   0.95343   0.12355   0.00000  Uiso   1.00
H121   H     0.82633   0.78215   0.09080   0.00000  Uiso   1.00
H122   H     0.17367   0.21785   0.59080   0.00000  Uiso   1.00
H123   H     0.82633   0.21785   0.59080   0.00000  Uiso   1.00
H124   H     0.17367   0.78215   0.09080   0.00000  Uiso   1.00
H125   H     0.79015   0.70423   0.08878   0.00000  Uiso   1.00
H126   H     0.20985   0.29577   0.58878   0.00000  Uiso   1.00
H127   H     0.79015   0.29577   0.58878   0.00000  Uiso   1.00
H128   H     0.20985   0.70423   0.08878   0.00000  Uiso   1.00
C129   C     0.35330   0.38429   0.68281   0.00000  Uiso   1.00
C130   C     0.64670   0.61571   0.18281   0.00000  Uiso   1.00
C131   C     0.35330   0.61571   0.18281   0.00000  Uiso   1.00
C132   C     0.64670   0.38429   0.68281   0.00000  Uiso   1.00
C133   C     0.14675   0.43185   0.03677   0.00000  Uiso   1.00
C134   C     0.85325   0.56815   0.53677   0.00000  Uiso   1.00
C135   C     0.14675   0.56815   0.53677   0.00000  Uiso   1.00
C136   C     0.85325   0.43185   0.03677   0.00000  Uiso   1.00
C137   C     0.43611   0.61292   0.53896   0.00000  Uiso   1.00
C138   C     0.56389   0.38708   0.03896   0.00000  Uiso   1.00
C139   C     0.43611   0.38708   0.03896   0.00000  Uiso   1.00
C140   C     0.56389   0.61292   0.53896   0.00000  Uiso   1.00
C141   C     0.44509   0.61976   0.60192   0.00000  Uiso   1.00
C142   C     0.55491   0.38024   0.10192   0.00000  Uiso   1.00
C143   C     0.44509   0.38024   0.10192   0.00000  Uiso   1.00
C144   C     0.55491   0.61976   0.60192   0.00000  Uiso   1.00
C145   C     0.42108   0.61844   0.65055   0.00000  Uiso   1.00
C146   C     0.57892   0.38156   0.15055   0.00000  Uiso   1.00
C147   C     0.42108   0.38156   0.15055   0.00000  Uiso   1.00
C148   C     0.57892   0.61844   0.65055   0.00000  Uiso   1.00
C149   C     0.37468   0.61407   0.74084   0.00000  Uiso   1.00
C150   C     0.62532   0.38593   0.24084   0.00000  Uiso   1.00
C151   C     0.37468   0.38593   0.24084   0.00000  Uiso   1.00
C152   C     0.62532   0.61407   0.74084   0.00000  Uiso   1.00
N153   N     0.33056   0.65083   0.79440   0.00000  Uiso   1.00
N154   N     0.66944   0.34917   0.29440   0.00000  Uiso   1.00
N155   N     0.33056   0.34917   0.29440   0.00000  Uiso   1.00
N156   N     0.66944   0.65083   0.79440   0.00000  Uiso   1.00
C157   C     0.30623   0.65040   0.83891   0.00000  Uiso   1.00
C158   C     0.69377   0.34960   0.33891   0.00000  Uiso   1.00
C159   C     0.30623   0.34960   0.33891   0.00000  Uiso   1.00
C160   C     0.69377   0.65040   0.83891   0.00000  Uiso   1.00
C161   C     0.25950   0.65291   0.92997   0.00000  Uiso   1.00
C162   C     0.74050   0.34709   0.42997   0.00000  Uiso   1.00
C163   C     0.25950   0.34709   0.42997   0.00000  Uiso   1.00
C164   C     0.74050   0.65291   0.92997   0.00000  Uiso   1.00
C165   C     0.59441   0.59771   0.51861   0.00000  Uiso   1.00
C166   C     0.40559   0.40229   0.01861   0.00000  Uiso   1.00
C167   C     0.59441   0.40229   0.01861   0.00000  Uiso   1.00
C168   C     0.40559   0.59771   0.51861   0.00000  Uiso   1.00
H169   H     0.61367   0.58940   0.42740   0.00000  Uiso   1.00
H170   H     0.38633   0.41060   0.92740   0.00000  Uiso   1.00
H171   H     0.61367   0.41060   0.92740   0.00000  Uiso   1.00
H172   H     0.38633   0.58940   0.42740   0.00000  Uiso   1.00
C173   C     0.97543   0.27492   0.02476   0.00000  Uiso   1.00
C174   C     0.02457   0.72508   0.52476   0.00000  Uiso   1.00
C175   C     0.97543   0.72508   0.52476   0.00000  Uiso   1.00
C176   C     0.02457   0.27492   0.02476   0.00000  Uiso   1.00
C177   C     0.98511   0.33353   0.03576   0.00000  Uiso   1.00
C178   C     0.01489   0.66647   0.53576   0.00000  Uiso   1.00
C179   C     0.98511   0.66647   0.53576   0.00000  Uiso   1.00
C180   C     0.01489   0.33353   0.03576   0.00000  Uiso   1.00
C181   C     0.92130   0.30200   0.02377   0.00000  Uiso   1.00
C182   C     0.07870   0.69800   0.52377   0.00000  Uiso   1.00
C183   C     0.92130   0.69800   0.52377   0.00000  Uiso   1.00
C184   C     0.07870   0.30200   0.02377   0.00000  Uiso   1.00
C185   C     0.87667   0.38727   0.03140   0.00000  Uiso   1.00
C186   C     0.12333   0.61273   0.53140   0.00000  Uiso   1.00
C187   C     0.87667   0.61273   0.53140   0.00000  Uiso   1.00
C188   C     0.12333   0.38727   0.03140   0.00000  Uiso   1.00
N189   N     0.84887   0.46849   0.99204   0.00000  Uiso   1.00
N190   N     0.15113   0.53151   0.49204   0.00000  Uiso   1.00
N191   N     0.84887   0.53151   0.49204   0.00000  Uiso   1.00
N192   N     0.15113   0.46849   0.99204   0.00000  Uiso   1.00
C193   C     0.82716   0.51405   0.99281   0.00000  Uiso   1.00
C194   C     0.17284   0.48595   0.49281   0.00000  Uiso   1.00
C195   C     0.82716   0.48595   0.49281   0.00000  Uiso   1.00
C196   C     0.17284   0.51405   0.99281   0.00000  Uiso   1.00
C197   C     0.78379   0.60307   0.98942   0.00000  Uiso   1.00
C198   C     0.21621   0.39693   0.48942   0.00000  Uiso   1.00
C199   C     0.78379   0.39693   0.48942   0.00000  Uiso   1.00
C200   C     0.21621   0.60307   0.98942   0.00000  Uiso   1.00
C201   C     0.05506   0.25731   0.02035   0.00000  Uiso   1.00
C202   C     0.94494   0.74269   0.52035   0.00000  Uiso   1.00
C203   C     0.05506   0.74269   0.52035   0.00000  Uiso   1.00
C204   C     0.94494   0.25731   0.02035   0.00000  Uiso   1.00
H205   H     0.97092   0.37049   0.04318   0.00000  Uiso   1.00
H206   H     0.02908   0.62951   0.54318   0.00000  Uiso   1.00
H207   H     0.97092   0.62951   0.54318   0.00000  Uiso   1.00
H208   H     0.02908   0.37049   0.04318   0.00000  Uiso   1.00
H209   H     0.35474   0.41888   0.64944   0.00000  Uiso   1.00
H210   H     0.64526   0.58112   0.14944   0.00000  Uiso   1.00
H211   H     0.35474   0.58112   0.14944   0.00000  Uiso   1.00
H212   H     0.64526   0.41888   0.64944   0.00000  Uiso   1.00
H213   H     0.16057   0.43251   0.07854   0.00000  Uiso   1.00
H214   H     0.83943   0.56749   0.57854   0.00000  Uiso   1.00
H215   H     0.16057   0.56749   0.57854   0.00000  Uiso   1.00
H216   H     0.83943   0.43251   0.07854   0.00000  Uiso   1.00
C217   C     0.39813   0.66343   0.32488   0.00000  Uiso   1.00
C218   C     0.60187   0.33657   0.82488   0.00000  Uiso   1.00
C219   C     0.39813   0.33657   0.82488   0.00000  Uiso   1.00
C220   C     0.60187   0.66343   0.32488   0.00000  Uiso   1.00
C221   C     0.37583   0.66157   0.27840   0.00000  Uiso   1.00
C222   C     0.62417   0.33843   0.77840   0.00000  Uiso   1.00
C223   C     0.37583   0.33843   0.77840   0.00000  Uiso   1.00
C224   C     0.62417   0.66157   0.27840   0.00000  Uiso   1.00
C225   C     0.29484   0.70382   0.11453   0.00000  Uiso   1.00
C226   C     0.70516   0.29618   0.61453   0.00000  Uiso   1.00
C227   C     0.29484   0.29618   0.61453   0.00000  Uiso   1.00
C228   C     0.70516   0.70382   0.11453   0.00000  Uiso   1.00
C229   C     0.27207   0.70474   0.06902   0.00000  Uiso   1.00
C230   C     0.72793   0.29526   0.56902   0.00000  Uiso   1.00
C231   C     0.27207   0.29526   0.56902   0.00000  Uiso   1.00
C232   C     0.72793   0.70474   0.06902   0.00000  Uiso   1.00
C233   C     0.09612   0.00014   0.57721   0.00000  Uiso   1.00
C234   C     0.90388   0.99986   0.07721   0.00000  Uiso   1.00
C235   C     0.09612   0.99986   0.07721   0.00000  Uiso   1.00
C236   C     0.90388   0.00014   0.57721   0.00000  Uiso   1.00
C237   C     0.11824   0.04252   0.58104   0.00000  Uiso   1.00
C238   C     0.88176   0.95748   0.08104   0.00000  Uiso   1.00
C239   C     0.11824   0.95748   0.08104   0.00000  Uiso   1.00
C240   C     0.88176   0.04252   0.58104   0.00000  Uiso   1.00
C241   C     0.18319   0.23041   0.54637   0.00000  Uiso   1.00
C242   C     0.81681   0.76959   0.04637   0.00000  Uiso   1.00
C243   C     0.18319   0.76959   0.04637   0.00000  Uiso   1.00
C244   C     0.81681   0.23041   0.54637   0.00000  Uiso   1.00
C245   C     0.20399   0.27521   0.54511   0.00000  Uiso   1.00
C246   C     0.79601   0.72479   0.04511   0.00000  Uiso   1.00
C247   C     0.20399   0.72479   0.04511   0.00000  Uiso   1.00
C248   C     0.79601   0.27521   0.54511   0.00000  Uiso   1.00
H249   H     0.55966   0.54949   0.27881   0.00000  Uiso   1.00
H250   H     0.44034   0.45051   0.77881   0.00000  Uiso   1.00
H251   H     0.55966   0.45051   0.77881   0.00000  Uiso   1.00
H252   H     0.44034   0.54949   0.27881   0.00000  Uiso   1.00
H253   H     0.59845   0.54704   0.19636   0.00000  Uiso   1.00
H254   H     0.40155   0.45296   0.69636   0.00000  Uiso   1.00
H255   H     0.59845   0.45296   0.69636   0.00000  Uiso   1.00
H256   H     0.40155   0.54704   0.19636   0.00000  Uiso   1.00
H257   H     0.69292   0.56105   0.12038   0.00000  Uiso   1.00
H258   H     0.30708   0.43895   0.62038   0.00000  Uiso   1.00
H259   H     0.69292   0.43895   0.62038   0.00000  Uiso   1.00
H260   H     0.30708   0.56105   0.12038   0.00000  Uiso   1.00
H261   H     0.73172   0.56230   0.03987   0.00000  Uiso   1.00
H262   H     0.26828   0.43770   0.53987   0.00000  Uiso   1.00
H263   H     0.73172   0.43770   0.53987   0.00000  Uiso   1.00
H264   H     0.26828   0.56230   0.03987   0.00000  Uiso   1.00
H265   H     0.92969   0.02656   0.42987   0.00000  Uiso   1.00
H266   H     0.07031   0.97344   0.92987   0.00000  Uiso   1.00
H267   H     0.92969   0.97344   0.92987   0.00000  Uiso   1.00
H268   H     0.07031   0.02656   0.42987   0.00000  Uiso   1.00
H269   H     0.89067   0.10137   0.43643   0.00000  Uiso   1.00
H270   H     0.10933   0.89863   0.93643   0.00000  Uiso   1.00
H271   H     0.89067   0.89863   0.93643   0.00000  Uiso   1.00
H272   H     0.10933   0.10137   0.43643   0.00000  Uiso   1.00
H273   H     0.82281   0.20606   0.39040   0.00000  Uiso   1.00
H274   H     0.17719   0.79394   0.89040   0.00000  Uiso   1.00
H275   H     0.82281   0.79394   0.89040   0.00000  Uiso   1.00
H276   H     0.17719   0.20606   0.39040   0.00000  Uiso   1.00
H277   H     0.78681   0.28543   0.38724   0.00000  Uiso   1.00
H278   H     0.21319   0.71457   0.88724   0.00000  Uiso   1.00
H279   H     0.78681   0.71457   0.88724   0.00000  Uiso   1.00
H280   H     0.21319   0.28543   0.38724   0.00000  Uiso   1.00
C281   C     0.42244   0.41900   0.77893   0.00000  Uiso   1.00
C282   C     0.57756   0.58100   0.27893   0.00000  Uiso   1.00
C283   C     0.42244   0.58100   0.27893   0.00000  Uiso   1.00
C284   C     0.57756   0.41900   0.77893   0.00000  Uiso   1.00
C285   C     0.40034   0.42050   0.73223   0.00000  Uiso   1.00
C286   C     0.59966   0.57950   0.23223   0.00000  Uiso   1.00
C287   C     0.40034   0.57950   0.23223   0.00000  Uiso   1.00
C288   C     0.59966   0.42050   0.73223   0.00000  Uiso   1.00
C289   C     0.29770   0.39847   0.60628   0.00000  Uiso   1.00
C290   C     0.70230   0.60153   0.10628   0.00000  Uiso   1.00
C291   C     0.29770   0.60153   0.10628   0.00000  Uiso   1.00
C292   C     0.70230   0.39847   0.60628   0.00000  Uiso   1.00
C293   C     0.27487   0.39776   0.56111   0.00000  Uiso   1.00
C294   C     0.72513   0.60224   0.06111   0.00000  Uiso   1.00
C295   C     0.27487   0.60224   0.06111   0.00000  Uiso   1.00
C296   C     0.72513   0.39776   0.56111   0.00000  Uiso   1.00
C297   C     0.09696   0.30656   0.07718   0.00000  Uiso   1.00
C298   C     0.90304   0.69344   0.57718   0.00000  Uiso   1.00
C299   C     0.09696   0.69344   0.57718   0.00000  Uiso   1.00
C300   C     0.90304   0.30656   0.07718   0.00000  Uiso   1.00
C301   C     0.11914   0.34883   0.08093   0.00000  Uiso   1.00
C302   C     0.88086   0.65117   0.58093   0.00000  Uiso   1.00
C303   C     0.11914   0.65117   0.58093   0.00000  Uiso   1.00
C304   C     0.88086   0.34883   0.08093   0.00000  Uiso   1.00
C305   C     0.18543   0.53524   0.04850   0.00000  Uiso   1.00
C306   C     0.81457   0.46476   0.54850   0.00000  Uiso   1.00
C307   C     0.18543   0.46476   0.54850   0.00000  Uiso   1.00
C308   C     0.81457   0.53524   0.04850   0.00000  Uiso   1.00
C309   C     0.20652   0.57956   0.04684   0.00000  Uiso   1.00
C310   C     0.79348   0.42044   0.54684   0.00000  Uiso   1.00
C311   C     0.20652   0.42044   0.54684   0.00000  Uiso   1.00
C312   C     0.79348   0.57956   0.04684   0.00000  Uiso   1.00
H313   H     0.60283   0.30381   0.86048   0.00000  Uiso   1.00
H314   H     0.39717   0.69619   0.36048   0.00000  Uiso   1.00
H315   H     0.60283   0.69619   0.36048   0.00000  Uiso   1.00
H316   H     0.39717   0.30381   0.86048   0.00000  Uiso   1.00
H317   H     0.64219   0.30719   0.77876   0.00000  Uiso   1.00
H318   H     0.35781   0.69281   0.27876   0.00000  Uiso   1.00
H319   H     0.64219   0.69281   0.27876   0.00000  Uiso   1.00
H320   H     0.35781   0.30719   0.77876   0.00000  Uiso   1.00
H321   H     0.69699   0.25670   0.63437   0.00000  Uiso   1.00
H322   H     0.30301   0.74330   0.13437   0.00000  Uiso   1.00
H323   H     0.69699   0.74330   0.13437   0.00000  Uiso   1.00
H324   H     0.30301   0.25670   0.63437   0.00000  Uiso   1.00
H325   H     0.73625   0.25435   0.55345   0.00000  Uiso   1.00
H326   H     0.26375   0.74565   0.05345   0.00000  Uiso   1.00
H327   H     0.73625   0.74565   0.05345   0.00000  Uiso   1.00
H328   H     0.26375   0.25435   0.55345   0.00000  Uiso   1.00
H329   H     0.93113   0.33708   0.93258   0.00000  Uiso   1.00
H330   H     0.06887   0.66292   0.43258   0.00000  Uiso   1.00
H331   H     0.93113   0.66292   0.43258   0.00000  Uiso   1.00
H332   H     0.06887   0.33708   0.93258   0.00000  Uiso   1.00
H333   H     0.89213   0.41186   0.93918   0.00000  Uiso   1.00
H334   H     0.10787   0.58814   0.43918   0.00000  Uiso   1.00
H335   H     0.89213   0.58814   0.43918   0.00000  Uiso   1.00
H336   H     0.10787   0.41186   0.93918   0.00000  Uiso   1.00
H337   H     0.82976   0.52501   0.89329   0.00000  Uiso   1.00
H338   H     0.17024   0.47499   0.39329   0.00000  Uiso   1.00
H339   H     0.82976   0.47499   0.39329   0.00000  Uiso   1.00
H340   H     0.17024   0.52501   0.89329   0.00000  Uiso   1.00
H341   H     0.79318   0.60372   0.88973   0.00000  Uiso   1.00
H342   H     0.20682   0.39628   0.38973   0.00000  Uiso   1.00
H343   H     0.79318   0.39628   0.38973   0.00000  Uiso   1.00
H344   H     0.20682   0.60372   0.88973   0.00000  Uiso   1.00
C345   C     0.35030   0.38981   0.28787   0.00000  Uiso   1.00
C346   C     0.64970   0.61019   0.78787   0.00000  Uiso   1.00
C347   C     0.35030   0.61019   0.78787   0.00000  Uiso   1.00
C348   C     0.64970   0.38981   0.28787   0.00000  Uiso   1.00
C349   C     0.14651   0.87561   0.03601   0.00000  Uiso   1.00
C350   C     0.85349   0.12439   0.53601   0.00000  Uiso   1.00
C351   C     0.14651   0.12439   0.53601   0.00000  Uiso   1.00
C352   C     0.85349   0.87561   0.03601   0.00000  Uiso   1.00
C353   C     0.43605   0.61512   0.43742   0.00000  Uiso   1.00
C354   C     0.56395   0.38488   0.93742   0.00000  Uiso   1.00
C355   C     0.43605   0.38488   0.93742   0.00000  Uiso   1.00
C356   C     0.56395   0.61512   0.43742   0.00000  Uiso   1.00
C357   C     0.44512   0.62440   0.37496   0.00000  Uiso   1.00
C358   C     0.55488   0.37560   0.87496   0.00000  Uiso   1.00
C359   C     0.44512   0.37560   0.87496   0.00000  Uiso   1.00
C360   C     0.55488   0.62440   0.37496   0.00000  Uiso   1.00
C361   C     0.42149   0.62296   0.32557   0.00000  Uiso   1.00
C362   C     0.57851   0.37704   0.82557   0.00000  Uiso   1.00
C363   C     0.42149   0.37704   0.82557   0.00000  Uiso   1.00
C364   C     0.57851   0.62296   0.32557   0.00000  Uiso   1.00
C365   C     0.37675   0.61941   0.23180   0.00000  Uiso   1.00
C366   C     0.62325   0.38059   0.73180   0.00000  Uiso   1.00
C367   C     0.37675   0.38059   0.73180   0.00000  Uiso   1.00
C368   C     0.62325   0.61941   0.23180   0.00000  Uiso   1.00
N369   N     0.33202   0.65373   0.17831   0.00000  Uiso   1.00
N370   N     0.66798   0.34627   0.67831   0.00000  Uiso   1.00
N371   N     0.33202   0.34627   0.67831   0.00000  Uiso   1.00
N372   N     0.66798   0.65373   0.17831   0.00000  Uiso   1.00
C373   C     0.30811   0.65254   0.13281   0.00000  Uiso   1.00
C374   C     0.69189   0.34746   0.63281   0.00000  Uiso   1.00
C375   C     0.30811   0.34746   0.63281   0.00000  Uiso   1.00
C376   C     0.69189   0.65254   0.13281   0.00000  Uiso   1.00
C377   C     0.26093   0.65369   0.04271   0.00000  Uiso   1.00
C378   C     0.73907   0.34631   0.54271   0.00000  Uiso   1.00
C379   C     0.26093   0.34631   0.54271   0.00000  Uiso   1.00
C380   C     0.73907   0.65369   0.04271   0.00000  Uiso   1.00
C381   C     0.59444   0.59898   0.45699   0.00000  Uiso   1.00
C382   C     0.40556   0.40102   0.95699   0.00000  Uiso   1.00
C383   C     0.59444   0.40102   0.95699   0.00000  Uiso   1.00
C384   C     0.40556   0.59898   0.45699   0.00000  Uiso   1.00
H385   H     0.61361   0.58694   0.54778   0.00000  Uiso   1.00
H386   H     0.38639   0.41306   0.04778   0.00000  Uiso   1.00
H387   H     0.61361   0.41306   0.04778   0.00000  Uiso   1.00
H388   H     0.38639   0.58694   0.54778   0.00000  Uiso   1.00
C389   C     0.97543   0.03272   0.02340   0.00000  Uiso   1.00
C390   C     0.02457   0.96728   0.52340   0.00000  Uiso   1.00
C391   C     0.97543   0.96728   0.52340   0.00000  Uiso   1.00
C392   C     0.02457   0.03272   0.02340   0.00000  Uiso   1.00
C393   C     0.98510   0.97397   0.03340   0.00000  Uiso   1.00
C394   C     0.01490   0.02603   0.53340   0.00000  Uiso   1.00
C395   C     0.98510   0.02603   0.53340   0.00000  Uiso   1.00
C396   C     0.01490   0.97397   0.03340   0.00000  Uiso   1.00
C397   C     0.92130   0.00587   0.02281   0.00000  Uiso   1.00
C398   C     0.07870   0.99413   0.52281   0.00000  Uiso   1.00
C399   C     0.92130   0.99413   0.52281   0.00000  Uiso   1.00
C400   C     0.07870   0.00587   0.02281   0.00000  Uiso   1.00
C401   C     0.87673   0.92053   0.03049   0.00000  Uiso   1.00
C402   C     0.12327   0.07947   0.53049   0.00000  Uiso   1.00
C403   C     0.87673   0.07947   0.53049   0.00000  Uiso   1.00
C404   C     0.12327   0.92053   0.03049   0.00000  Uiso   1.00
N405   N     0.84753   0.84176   0.98945   0.00000  Uiso   1.00
N406   N     0.15247   0.15824   0.48945   0.00000  Uiso   1.00
N407   N     0.84753   0.15824   0.48945   0.00000  Uiso   1.00
N408   N     0.15247   0.84176   0.98945   0.00000  Uiso   1.00
C409   C     0.82596   0.79600   0.99054   0.00000  Uiso   1.00
C410   C     0.17404   0.20400   0.49054   0.00000  Uiso   1.00
C411   C     0.82596   0.20400   0.49054   0.00000  Uiso   1.00
C412   C     0.17404   0.79600   0.99054   0.00000  Uiso   1.00
C413   C     0.78307   0.70611   0.98830   0.00000  Uiso   1.00
C414   C     0.21693   0.29389   0.48830   0.00000  Uiso   1.00
C415   C     0.78307   0.29389   0.48830   0.00000  Uiso   1.00
C416   C     0.21693   0.70611   0.98830   0.00000  Uiso   1.00
C417   C     0.05503   0.05050   0.01943   0.00000  Uiso   1.00
C418   C     0.94497   0.94950   0.51943   0.00000  Uiso   1.00
C419   C     0.05503   0.94950   0.51943   0.00000  Uiso   1.00
C420   C     0.94497   0.05050   0.01943   0.00000  Uiso   1.00
H421   H     0.97089   0.93691   0.04004   0.00000  Uiso   1.00
H422   H     0.02911   0.06309   0.54004   0.00000  Uiso   1.00
H423   H     0.97089   0.06309   0.54004   0.00000  Uiso   1.00
H424   H     0.02911   0.93691   0.04004   0.00000  Uiso   1.00
H425   H     0.34990   0.42647   0.31861   0.00000  Uiso   1.00
H426   H     0.65010   0.57353   0.81861   0.00000  Uiso   1.00
H427   H     0.34990   0.57353   0.81861   0.00000  Uiso   1.00
H428   H     0.65010   0.42647   0.31861   0.00000  Uiso   1.00
H429   H     0.15892   0.87233   0.07952   0.00000  Uiso   1.00
H430   H     0.84108   0.12767   0.57952   0.00000  Uiso   1.00
H431   H     0.15892   0.12767   0.57952   0.00000  Uiso   1.00
H432   H     0.84108   0.87233   0.07952   0.00000  Uiso   1.00
C433   C     0.76171   0.65406   0.98750   0.00000  Uiso   1.00
C434   C     0.23829   0.34594   0.48750   0.00000  Uiso   1.00
C435   C     0.76171   0.34594   0.48750   0.00000  Uiso   1.00
C436   C     0.23829   0.65406   0.98750   0.00000  Uiso   1.00
N437   N     0.95362   0.15393   0.01944   0.00000  Uiso   1.00
N438   N     0.04638   0.84607   0.51944   0.00000  Uiso   1.00
N439   N     0.95362   0.84607   0.51944   0.00000  Uiso   1.00
N440   N     0.04638   0.15393   0.01944   0.00000  Uiso   1.00
N441   N     0.45369   0.62293   0.48839   0.00000  Uiso   1.00
N442   N     0.54631   0.37707   0.98839   0.00000  Uiso   1.00
N443   N     0.45369   0.37707   0.98839   0.00000  Uiso   1.00
N444   N     0.54631   0.62293   0.48839   0.00000  Uiso   1.00
C445   C     0.47546   0.62697   0.62125   0.00000  Uiso   1.00
C446   C     0.52454   0.37303   0.12125   0.00000  Uiso   1.00
C447   C     0.47546   0.37303   0.12125   0.00000  Uiso   1.00
C448   C     0.52454   0.62697   0.62125   0.00000  Uiso   1.00
C449   C     0.48447   0.64042   0.68141   0.00000  Uiso   1.00
C450   C     0.51553   0.35958   0.18141   0.00000  Uiso   1.00
C451   C     0.48447   0.35958   0.18141   0.00000  Uiso   1.00
C452   C     0.51553   0.64042   0.68141   0.00000  Uiso   1.00
C453   C     0.47548   0.63343   0.35664   0.00000  Uiso   1.00
C454   C     0.52452   0.36657   0.85664   0.00000  Uiso   1.00
C455   C     0.47548   0.36657   0.85664   0.00000  Uiso   1.00
C456   C     0.52452   0.63343   0.35664   0.00000  Uiso   1.00
C457   C     0.48449   0.64926   0.29717   0.00000  Uiso   1.00
C458   C     0.51551   0.35074   0.79717   0.00000  Uiso   1.00
C459   C     0.48449   0.35074   0.79717   0.00000  Uiso   1.00
C460   C     0.51551   0.64926   0.29717   0.00000  Uiso   1.00
H461   H     0.47014   0.65928   0.25760   0.00000  Uiso   1.00
H462   H     0.52986   0.34072   0.75760   0.00000  Uiso   1.00
H463   H     0.47014   0.34072   0.75760   0.00000  Uiso   1.00
H464   H     0.52986   0.65928   0.25760   0.00000  Uiso   1.00
H465   H     0.47009   0.64917   0.72128   0.00000  Uiso   1.00
H466   H     0.52991   0.35083   0.22128   0.00000  Uiso   1.00
H467   H     0.47009   0.35083   0.22128   0.00000  Uiso   1.00
H468   H     0.52991   0.64917   0.72128   0.00000  Uiso   1.00
C469   C     0.06454   0.79994   0.51477   0.00000  Uiso   1.00
C470   C     0.93546   0.20006   0.01477   0.00000  Uiso   1.00
C471   C     0.06454   0.20006   0.01477   0.00000  Uiso   1.00
C472   C     0.93546   0.79994   0.51477   0.00000  Uiso   1.00
C473   C     0.09423   0.81691   0.50624   0.00000  Uiso   1.00
C474   C     0.90577   0.18309   0.00624   0.00000  Uiso   1.00
C475   C     0.09423   0.18309   0.00624   0.00000  Uiso   1.00
C476   C     0.90577   0.81691   0.50624   0.00000  Uiso   1.00
C477   C     0.06451   0.89220   0.51440   0.00000  Uiso   1.00
C478   C     0.93549   0.10780   0.01440   0.00000  Uiso   1.00
C479   C     0.06451   0.10780   0.01440   0.00000  Uiso   1.00
C480   C     0.93549   0.89220   0.51440   0.00000  Uiso   1.00
C481   C     0.09421   0.87523   0.50606   0.00000  Uiso   1.00
C482   C     0.90579   0.12477   0.00606   0.00000  Uiso   1.00
C483   C     0.09421   0.12477   0.00606   0.00000  Uiso   1.00
C484   C     0.90579   0.87523   0.50606   0.00000  Uiso   1.00
H485   H     0.11395   0.78995   0.50101   0.00000  Uiso   1.00
H486   H     0.88605   0.21005   0.00101   0.00000  Uiso   1.00
H487   H     0.11395   0.21005   0.00101   0.00000  Uiso   1.00
H488   H     0.88605   0.78995   0.50101   0.00000  Uiso   1.00
H489   H     0.11391   0.90222   0.50069   0.00000  Uiso   1.00
H490   H     0.88609   0.09778   0.00069   0.00000  Uiso   1.00
H491   H     0.11391   0.09778   0.00069   0.00000  Uiso   1.00
H492   H     0.88609   0.90222   0.50069   0.00000  Uiso   1.00
N493   N     0.50000   0.62421   0.39319   0.00000  Uiso   1.00
N494   N     0.50000   0.37579   0.89319   0.00000  Uiso   1.00
N495   N     0.50000   0.61886   0.58468   0.00000  Uiso   1.00
N496   N     0.50000   0.38114   0.08468   0.00000  Uiso   1.00
Cu497  Cu    0.50000   0.37864   0.98945   0.00000  Uiso   1.00
Cu498  Cu    0.50000   0.62136   0.48945   0.00000  Uiso   1.00
N499   N     0.00000   0.75897   0.51844   0.00000  Uiso   1.00
N500   N     0.00000   0.24103   0.01844   0.00000  Uiso   1.00
N501   N     0.00000   0.93341   0.51757   0.00000  Uiso   1.00
N502   N     0.00000   0.06659   0.01757   0.00000  Uiso   1.00
Cu503  Cu    0.00000   0.15363   0.01560   0.00000  Uiso   1.00
Cu504  Cu    0.00000   0.84637   0.51560   0.00000  Uiso   1.00
loop_
_geom_bond_atom_site_label_1
_geom_bond_atom_site_label_2
_geom_bond_distance
_geom_bond_site_symmetry_2
_ccdc_geom_bond_type
C1     C5      1.392   .     D
C1     H98     1.078   .     S
C1     C145    1.402   .     S
C2     C6      1.392   .     S
C2     H97     1.078   .     S
C2     C146    1.402   .     D
C3     C7      1.392   .     S
C3     H100    1.078   .     S
C3     C147    1.402   .     D
C4     C8      1.392   .     D
C4     H99     1.078   .     S
C4     C148    1.402   .     S
C5     H102    1.082   .     S
C5     C149    1.396   .     S
C6     H101    1.082   .     S
C6     C150    1.396   .     D
C7     H104    1.082   .     S
C7     C151    1.396   .     D
C8     H103    1.082   .     S
C8     C152    1.396   .     S
C9     C13     1.392   .     S
C9     H106    1.079   .     S
C9     C157    1.400   .     D
C10    C14     1.392   .     D
C10    H105    1.079   .     S
C10    C158    1.400   .     S
C11    C15     1.392   .     D
C11    H108    1.079   .     S
C11    C159    1.400   .     S
C12    C16     1.392   .     S
C12    H107    1.079   .     S
C12    C160    1.400   .     D
C13    H110    1.080   .     S
C13    C161    1.411   .     D
C14    H109    1.080   .     S
C14    C162    1.411   .     S
C15    H112    1.080   .     S
C15    C163    1.411   .     S
C16    H111    1.080   .     S
C16    C164    1.411   .     D
C17    C21     1.393   .     S
C17    C182    1.402   .     D
C17    H330    1.080   .     S
C18    C22     1.393   .     S
C18    C181    1.402   1_556 D
C18    H329    1.080   .     S
C19    C23     1.393   .     S
C19    C184    1.402   1_556 D
C19    H332    1.080   .     S
C20    C24     1.393   .     S
C20    C183    1.402   .     D
C20    H331    1.080   .     S
C21    C186    1.402   .     D
C21    H334    1.082   .     S
C22    C185    1.402   1_556 D
C22    H333    1.082   .     S
C23    C188    1.402   1_556 D
C23    H336    1.082   .     S
C24    C187    1.402   .     D
C24    H335    1.082   .     S
C25    C29     1.393   .     S
C25    C194    1.396   .     D
C25    H338    1.080   .     S
C26    C30     1.393   .     S
C26    C193    1.396   .     D
C26    H337    1.080   .     S
C27    C31     1.393   .     S
C27    C196    1.396   .     D
C27    H340    1.080   .     S
C28    C32     1.393   .     S
C28    C195    1.396   .     D
C28    H339    1.080   .     S
C29    C198    1.409   .     D
C29    H342    1.082   .     S
C30    C197    1.409   .     D
C30    H341    1.082   .     S
C31    C200    1.409   .     D
C31    H344    1.082   .     S
C32    C199    1.409   .     D
C32    H343    1.082   .     S
H33    C66     1.083   .     S
H34    C65     1.083   .     S
H35    C68     1.083   .     S
H36    C67     1.083   .     S
H37    C70     1.078   .     S
H38    C69     1.078   .     S
H39    C72     1.078   .     S
H40    C71     1.078   .     S
H41    C74     1.080   .     S
H42    C73     1.080   .     S
H43    C76     1.080   .     S
H44    C75     1.080   .     S
H45    C78     1.081   .     S
H46    C77     1.081   .     S
H47    C80     1.081   .     S
H48    C79     1.081   .     S
H49    C298    1.083   .     S
H50    C297    1.083   .     S
H51    C300    1.083   .     S
H52    C299    1.083   .     S
H53    C302    1.080   .     S
H54    C301    1.080   .     S
H55    C304    1.080   .     S
H56    C303    1.080   .     S
H57    C306    1.079   .     S
H58    C305    1.079   .     S
H59    C308    1.079   .     S
H60    C307    1.079   .     S
H61    C310    1.081   .     S
H62    C309    1.081   .     S
H63    C312    1.081   .     S
H64    C311    1.081   .     S
C65    C69     1.393   .     D
C65    C147    1.396   .     S
C66    C70     1.393   .     S
C66    C148    1.396   .     D
C67    C71     1.393   .     S
C67    C145    1.396   .     D
C68    C72     1.393   .     D
C68    C146    1.396   .     S
C69    C151    1.405   .     S
C70    C152    1.405   .     D
C71    C149    1.405   .     D
C72    C150    1.405   .     S
C73    C77     1.392   .     S
C73    C159    1.393   .     D
C74    C78     1.392   .     D
C74    C160    1.393   .     S
C75    C79     1.392   .     D
C75    C157    1.393   .     S
C76    C80     1.392   .     S
C76    C158    1.393   .     D
C77    C163    1.410   .     D
C78    C164    1.410   .     S
C79    C161    1.410   .     S
C80    C162    1.410   .     D
C81    C85     1.393   .     S
C81    H266    1.080   .     S
C81    C400    1.401   1_566 D
C82    C86     1.393   .     S
C82    H265    1.080   .     S
C82    C399    1.401   1_545 D
C83    C87     1.393   .     S
C83    H268    1.080   .     S
C83    C398    1.401   1_545 D
C84    C88     1.393   .     S
C84    H267    1.080   .     S
C84    C397    1.401   1_566 D
C85    H270    1.082   .     S
C85    C404    1.403   1_556 D
C86    H269    1.082   .     S
C86    C403    1.403   .     D
C87    H272    1.082   .     S
C87    C402    1.403   .     D
C88    H271    1.082   .     S
C88    C401    1.403   1_556 D
C89    C93     1.393   .     D
C89    H274    1.081   .     S
C89    C412    1.395   .     S
C90    C94     1.393   .     D
C90    H273    1.081   .     S
C90    C411    1.395   .     S
C91    C95     1.393   .     D
C91    H276    1.081   .     S
C91    C410    1.395   .     S
C92    C96     1.393   .     D
C92    H275    1.081   .     S
C92    C409    1.395   .     S
C93    H278    1.081   .     S
C93    C416    1.411   .     S
C94    H277    1.081   .     S
C94    C415    1.411   .     S
C95    H280    1.081   .     S
C95    C414    1.411   .     S
C96    H279    1.081   .     S
C96    C413    1.411   .     S
H113   C234    1.083   1_545 S
H114   C233    1.083   1_565 S
H115   C236    1.083   1_565 S
H116   C235    1.083   1_545 S
H117   C238    1.080   .     S
H118   C237    1.080   .     S
H119   C240    1.080   .     S
H120   C239    1.080   .     S
H121   C242    1.078   .     S
H122   C241    1.078   .     S
H123   C244    1.078   .     S
H124   C243    1.078   .     S
H125   C246    1.082   .     S
H126   C245    1.082   .     S
H127   C248    1.082   .     S
H128   C247    1.082   .     S
C129   H209    1.083   .     S
C129   C367    1.469   .     S
C129   N371    1.294   .     D
C130   H210    1.083   .     S
C130   C368    1.469   .     S
C130   N372    1.294   .     D
C131   H211    1.083   .     S
C131   C365    1.469   .     S
C131   N369    1.294   .     D
C132   H212    1.083   .     S
C132   C366    1.469   .     S
C132   N370    1.294   .     D
C133   C188    1.470   .     S
C133   N192    1.300   1_554 D
C133   H213    1.079   .     S
C134   C187    1.470   .     S
C134   N191    1.300   .     D
C134   H214    1.079   .     S
C135   C186    1.470   .     S
C135   N190    1.300   .     D
C135   H215    1.079   .     S
C136   C185    1.470   .     S
C136   N189    1.300   1_554 D
C136   H216    1.079   .     S
C137   C141    1.411   .     D
C137   C168    1.450   .     S
C137   N441    1.348   .     S
C138   C142    1.411   .     S
C138   C167    1.450   .     S
C138   N442    1.348   1_554 D
C139   C143    1.411   .     D
C139   C166    1.450   .     S
C139   N443    1.348   1_554 S
C140   C144    1.411   .     S
C140   C165    1.450   .     S
C140   N444    1.348   .     D
C141   C145    1.479   .     S
C141   C445    1.403   .     S
C142   C146    1.479   .     S
C142   C446    1.403   .     D
C143   C147    1.479   .     S
C143   C447    1.403   .     S
C144   C148    1.479   .     S
C144   C448    1.403   .     D
C149   C347    1.469   .     S
C150   C348    1.469   .     S
C151   C345    1.469   .     S
C152   C346    1.469   .     S
N153   C157    1.428   .     S
N153   C347    1.295   .     D
N154   C158    1.428   .     S
N154   C348    1.295   .     D
N155   C159    1.428   .     S
N155   C345    1.295   .     D
N156   C160    1.428   .     S
N156   C346    1.295   .     D
C161   C436    1.541   .     S
C162   C435    1.541   .     S
C163   C434    1.541   .     S
C164   C433    1.541   .     S
C165   C381    1.318   .     D
C165   H385    1.077   .     S
C166   C382    1.318   1_554 D
C166   H386    1.077   .     S
C167   C383    1.318   1_554 D
C167   H387    1.077   .     S
C168   C384    1.318   .     D
C168   H388    1.077   .     S
H169   C381    1.077   .     S
H170   C382    1.077   .     S
H171   C383    1.077   .     S
H172   C384    1.077   .     S
C173   C177    1.459   .     S
C173   C204    1.401   .     S
C173   N500    1.345   1_655 D
C174   C178    1.459   .     S
C174   C203    1.401   .     D
C174   N499    1.345   .     S
C175   C179    1.459   .     S
C175   C202    1.401   .     S
C175   N499    1.345   1_655 D
C176   C180    1.459   .     S
C176   C201    1.401   .     D
C176   N500    1.345   .     S
C177   C180    1.304   1_655 D
C177   H205    1.079   .     S
C178   C179    1.304   1_455 D
C178   H206    1.079   .     S
C179   C178    1.304   1_655 D
C179   H207    1.079   .     S
C180   C177    1.304   1_455 D
C180   H208    1.079   .     S
C181   C18     1.402   1_554 D
C181   C204    1.475   .     S
C181   C300    1.398   .     S
C182   C203    1.475   .     S
C182   C299    1.398   .     S
C183   C202    1.475   .     S
C183   C298    1.398   .     S
C184   C19     1.402   1_554 D
C184   C201    1.475   .     S
C184   C297    1.398   .     S
C185   C22     1.402   1_554 D
C185   C304    1.403   .     S
C186   C303    1.403   .     S
C187   C302    1.403   .     S
C188   C23     1.402   1_554 D
C188   C301    1.403   .     S
N189   C136    1.300   1_556 D
N189   C193    1.431   .     S
N190   C194    1.431   .     S
N191   C195    1.431   .     S
N192   C133    1.300   1_556 D
N192   C196    1.431   .     S
C193   C308    1.403   1_556 S
C194   C307    1.403   .     S
C195   C306    1.403   .     S
C196   C305    1.403   1_556 S
C197   C312    1.411   1_556 S
C197   C433    1.539   .     S
C198   C311    1.411   .     S
C198   C434    1.539   .     S
C199   C310    1.411   .     S
C199   C435    1.539   .     S
C200   C309    1.411   1_556 S
C200   C436    1.539   .     S
C201   C471    1.412   .     S
C202   C472    1.412   .     D
C203   C469    1.412   .     S
C204   C470    1.412   .     D
C217   C221    1.394   .     D
C217   H314    1.083   .     S
C217   C361    1.396   .     S
C218   C222    1.394   .     D
C218   H313    1.083   .     S
C218   C362    1.396   .     S
C219   C223    1.394   .     D
C219   H316    1.083   .     S
C219   C363    1.396   .     S
C220   C224    1.394   .     D
C220   H315    1.083   .     S
C220   C364    1.396   .     S
C221   H318    1.077   .     S
C221   C365    1.405   .     S
C222   H317    1.077   .     S
C222   C366    1.405   .     S
C223   H320    1.077   .     S
C223   C367    1.405   .     S
C224   H319    1.077   .     S
C224   C368    1.405   .     S
C225   C229    1.393   .     D
C225   H322    1.080   .     S
C225   C373    1.393   .     S
C226   C230    1.393   .     D
C226   H321    1.080   .     S
C226   C374    1.393   .     S
C227   C231    1.393   .     D
C227   H324    1.080   .     S
C227   C375    1.393   .     S
C228   C232    1.393   .     D
C228   H323    1.080   .     S
C228   C376    1.393   .     S
C229   H326    1.080   .     S
C229   C377    1.411   .     S
C230   H325    1.080   .     S
C230   C378    1.411   .     S
C231   H328    1.080   .     S
C231   C379    1.411   .     S
C232   H327    1.080   .     S
C232   C380    1.411   .     S
C233   H114    1.083   1_545 S
C233   C237    1.391   .     D
C233   C398    1.398   1_545 S
C234   H113    1.083   1_565 S
C234   C238    1.391   .     D
C234   C397    1.398   1_565 S
C235   H116    1.083   1_565 S
C235   C239    1.391   .     D
C235   C400    1.398   1_565 S
C236   H115    1.083   1_545 S
C236   C240    1.391   .     D
C236   C399    1.398   1_545 S
C237   C402    1.403   .     S
C238   C401    1.403   .     S
C239   C404    1.403   .     S
C240   C403    1.403   .     S
C241   C245    1.391   .     S
C241   C410    1.403   .     D
C242   C246    1.391   .     S
C242   C409    1.403   1_554 D
C243   C247    1.391   .     S
C243   C412    1.403   1_554 D
C244   C248    1.391   .     S
C244   C411    1.403   .     D
C245   C414    1.410   .     D
C246   C413    1.410   1_554 D
C247   C416    1.410   1_554 D
C248   C415    1.410   .     D
H249   C282    1.078   .     S
H250   C281    1.078   .     S
H251   C284    1.078   .     S
H252   C283    1.078   .     S
H253   C286    1.082   .     S
H254   C285    1.082   .     S
H255   C288    1.082   .     S
H256   C287    1.082   .     S
H257   C290    1.078   .     S
H258   C289    1.078   .     S
H259   C292    1.078   .     S
H260   C291    1.078   .     S
H261   C294    1.081   .     S
H262   C293    1.081   .     S
H263   C296    1.081   .     S
H264   C295    1.081   .     S
C281   C285    1.391   .     S
C281   C363    1.402   .     D
C282   C286    1.391   .     S
C282   C364    1.402   .     D
C283   C287    1.391   .     S
C283   C361    1.402   .     D
C284   C288    1.391   .     S
C284   C362    1.402   .     D
C285   C367    1.394   .     D
C286   C368    1.394   .     D
C287   C365    1.394   .     D
C288   C366    1.394   .     D
C289   C293    1.390   .     S
C289   C375    1.401   .     D
C290   C294    1.390   .     S
C290   C376    1.401   .     D
C291   C295    1.390   .     S
C291   C373    1.401   .     D
C292   C296    1.390   .     S
C292   C374    1.401   .     D
C293   C379    1.409   .     D
C294   C380    1.409   .     D
C295   C377    1.409   .     D
C296   C378    1.409   .     D
C297   C301    1.391   .     D
C298   C302    1.391   .     D
C299   C303    1.391   .     D
C300   C304    1.391   .     D
C305   C196    1.403   1_554 S
C305   C309    1.391   .     D
C306   C310    1.391   .     D
C307   C311    1.391   .     D
C308   C193    1.403   1_554 S
C308   C312    1.391   .     D
C309   C200    1.411   1_554 S
C312   C197    1.411   1_554 S
C345   H425    1.083   .     S
C346   H426    1.083   .     S
C347   H427    1.083   .     S
C348   H428    1.083   .     S
C349   C404    1.470   .     S
C349   N408    1.300   1_554 D
C349   H429    1.080   .     S
C350   C403    1.470   .     S
C350   N407    1.300   .     D
C350   H430    1.080   .     S
C351   C402    1.470   .     S
C351   N406    1.300   .     D
C351   H431    1.080   .     S
C352   C401    1.470   .     S
C352   N405    1.300   1_554 D
C352   H432    1.080   .     S
C353   C357    1.410   .     S
C353   C384    1.449   .     S
C353   N441    1.348   .     D
C354   C358    1.410   .     D
C354   C383    1.449   .     S
C354   N442    1.348   .     S
C355   C359    1.410   .     S
C355   C382    1.449   .     S
C355   N443    1.348   .     D
C356   C360    1.410   .     D
C356   C381    1.449   .     S
C356   N444    1.348   .     S
C357   C361    1.479   .     S
C357   C453    1.402   .     D
C358   C362    1.479   .     S
C358   C454    1.402   .     S
C359   C363    1.479   .     S
C359   C455    1.402   .     D
C360   C364    1.479   .     S
C360   C456    1.402   .     S
N369   C373    1.429   .     S
N370   C374    1.429   .     S
N371   C375    1.429   .     S
N372   C376    1.429   .     S
C377   C436    1.541   1_554 S
C378   C435    1.541   .     S
C379   C434    1.541   .     S
C380   C433    1.541   1_554 S
C382   C166    1.318   1_556 D
C383   C167    1.318   1_556 D
C389   C393    1.458   1_545 S
C389   C420    1.400   .     D
C389   N502    1.343   1_655 S
C390   C394    1.458   1_565 S
C390   C419    1.400   .     S
C390   N501    1.343   .     D
C391   C395    1.458   1_565 S
C391   C418    1.400   .     D
C391   N501    1.343   1_655 S
C392   C396    1.458   1_545 S
C392   C417    1.400   .     S
C392   N502    1.343   .     D
C393   C389    1.458   1_565 S
C393   C396    1.305   1_655 D
C393   H421    1.079   .     S
C394   C390    1.458   1_545 S
C394   C395    1.305   1_455 D
C394   H422    1.079   .     S
C395   C394    1.305   1_655 D
C395   C391    1.458   1_545 S
C395   H423    1.079   .     S
C396   C392    1.458   1_565 S
C396   C393    1.305   1_455 D
C396   H424    1.079   .     S
C397   C234    1.398   1_545 S
C397   C84     1.401   1_544 D
C397   C420    1.475   .     S
C398   C233    1.398   1_565 S
C398   C83     1.401   1_565 D
C398   C419    1.475   .     S
C399   C236    1.398   1_565 S
C399   C82     1.401   1_565 D
C399   C418    1.475   .     S
C400   C235    1.398   1_545 S
C400   C81     1.401   1_544 D
C400   C417    1.475   .     S
C401   C88     1.403   1_554 D
C404   C85     1.403   1_554 D
N405   C352    1.300   1_556 D
N405   C409    1.430   .     S
N406   C410    1.430   .     S
N407   C411    1.430   .     S
N408   C349    1.300   1_556 D
N408   C412    1.430   .     S
C409   C242    1.403   1_556 D
C412   C243    1.403   1_556 D
C413   C246    1.410   1_556 D
C413   C433    1.539   .     S
C414   C434    1.539   .     S
C415   C435    1.539   .     S
C416   C247    1.410   1_556 D
C416   C436    1.539   .     S
C417   C479    1.412   .     D
C418   C480    1.412   .     S
C419   C477    1.412   .     D
C420   C478    1.412   .     S
C433   C380    1.541   1_556 S
C436   C377    1.541   1_556 S
N437   C470    1.347   .     S
N437   C478    1.347   .     D
N437   Cu503   2.032   1_655 S
N438   C469    1.347   .     D
N438   C477    1.347   .     S
N438   Cu504   2.032   .     S
N439   C472    1.347   .     S
N439   C480    1.347   .     D
N439   Cu504   2.032   1_655 S
N440   C471    1.347   .     D
N440   C479    1.347   .     S
N440   Cu503   2.032   .     S
N441   Cu498   2.028   .     S
N442   C138    1.348   1_556 D
N442   Cu497   2.028   .     S
N443   C139    1.348   1_556 S
N443   Cu497   2.028   .     S
N444   Cu498   2.028   .     S
C445   C449    1.382   .     S
C445   N495    1.342   .     D
C446   C450    1.382   .     S
C446   N496    1.342   .     S
C447   C451    1.382   .     S
C447   N496    1.342   .     D
C448   C452    1.382   .     S
C448   N495    1.342   .     S
C449   C452    1.360   .     D
C449   H465    1.079   .     S
C450   C451    1.360   .     D
C450   H466    1.079   .     S
C451   H467    1.079   .     S
C452   H468    1.079   .     S
C453   C457    1.382   .     S
C453   N493    1.345   .     S
C454   C458    1.382   .     S
C454   N494    1.345   .     D
C455   C459    1.382   .     S
C455   N494    1.345   .     S
C456   C460    1.382   .     S
C456   N493    1.345   .     D
C457   C460    1.358   .     D
C457   H461    1.080   .     S
C458   C459    1.358   .     D
C458   H462    1.080   .     S
C459   H463    1.080   .     S
C460   H464    1.080   .     S
C469   C473    1.372   .     S
C470   C474    1.372   .     S
C471   C475    1.372   .     S
C472   C476    1.372   .     S
C473   C481    1.369   .     D
C473   H485    1.076   .     S
C474   C482    1.369   .     D
C474   H486    1.076   .     S
C475   C483    1.369   .     D
C475   H487    1.076   .     S
C476   C484    1.369   .     D
C476   H488    1.076   .     S
C477   C481    1.372   .     S
C478   C482    1.372   .     S
C479   C483    1.372   .     S
C480   C484    1.372   .     S
C481   H489    1.076   .     S
C482   H490    1.076   .     S
C483   H491    1.076   .     S
C484   H492    1.076   .     S
N493   Cu498   2.059   .     S
N494   Cu497   2.059   .     S
N495   Cu498   2.037   .     S
N496   Cu497   2.037   1_554 S
Cu497  N496    2.037   1_556 S
N499   C175    1.345   1_455 D
N499   Cu504   2.053   .     S
N500   C173    1.345   1_455 D
N500   Cu503   2.053   .     S
N501   C391    1.343   1_455 S
N501   Cu504   2.044   .     S
N502   C389    1.343   1_455 S
N502   Cu503   2.044   .     S
Cu503  N437    2.032   1_455 S
Cu504  N439    2.032   1_455 S
