data_90
_audit_creation_date              2023-09-08
_audit_creation_method            'Materials Studio'
_symmetry_space_group_name_H-M    'P1'
_symmetry_Int_Tables_number       1
_symmetry_cell_setting            triclinic
loop_
_symmetry_equiv_pos_as_xyz
  x,y,z
_cell_length_a                    28.2477
_cell_length_b                    28.2477
_cell_length_c                    28.2477
_cell_angle_alpha                 90.0000
_cell_angle_beta                  90.0000
_cell_angle_gamma                 90.0000
loop_
_atom_site_label
_atom_site_type_symbol
_atom_site_fract_x
_atom_site_fract_y
_atom_site_fract_z
_atom_site_U_iso_or_equiv
_atom_site_adp_type
_atom_site_occupancy
C1     C     0.34070   0.07966   0.20001   0.00000  Uiso   1.00
C2     C     0.33591   0.05139   0.24007   0.00000  Uiso   1.00
C3     C     0.30021   0.06125   0.27253   0.00000  Uiso   1.00
C4     C     0.26989   0.09921   0.26533   0.00000  Uiso   1.00
C5     C     0.27496   0.12788   0.22549   0.00000  Uiso   1.00
C6     C     0.31062   0.11783   0.19290   0.00000  Uiso   1.00
H7     H     0.36748   0.07242   0.17407   0.00000  Uiso   1.00
H8     H     0.29575   0.03949   0.30345   0.00000  Uiso   1.00
H9     H     0.24263   0.10607   0.29100   0.00000  Uiso   1.00
H10    H     0.31517   0.13920   0.16171   0.00000  Uiso   1.00
B11    B     0.24102   0.17052   0.21731   0.00000  Uiso   1.00
O12    O     0.20173   0.17738   0.24979   0.00000  Uiso   1.00
C13    C     0.84070   0.57966   0.70001   0.00000  Uiso   1.00
C14    C     0.83591   0.55139   0.74007   0.00000  Uiso   1.00
C15    C     0.80021   0.56125   0.77253   0.00000  Uiso   1.00
C16    C     0.76989   0.59921   0.76533   0.00000  Uiso   1.00
C17    C     0.77496   0.62788   0.72549   0.00000  Uiso   1.00
C18    C     0.81062   0.61783   0.69290   0.00000  Uiso   1.00
H19    H     0.86748   0.57242   0.67407   0.00000  Uiso   1.00
H20    H     0.79575   0.53949   0.80345   0.00000  Uiso   1.00
H21    H     0.74263   0.60607   0.79100   0.00000  Uiso   1.00
H22    H     0.81517   0.63920   0.66171   0.00000  Uiso   1.00
B23    B     0.74102   0.67052   0.71731   0.00000  Uiso   1.00
O24    O     0.70173   0.67738   0.74979   0.00000  Uiso   1.00
C25    C     0.15930   0.92034   0.70001   0.00000  Uiso   1.00
C26    C     0.16409   0.94861   0.74007   0.00000  Uiso   1.00
C27    C     0.19979   0.93875   0.77253   0.00000  Uiso   1.00
C28    C     0.23011   0.90079   0.76533   0.00000  Uiso   1.00
C29    C     0.22504   0.87212   0.72549   0.00000  Uiso   1.00
C30    C     0.18938   0.88217   0.69290   0.00000  Uiso   1.00
H31    H     0.13252   0.92758   0.67407   0.00000  Uiso   1.00
H32    H     0.20425   0.96051   0.80345   0.00000  Uiso   1.00
H33    H     0.25737   0.89393   0.79100   0.00000  Uiso   1.00
H34    H     0.18483   0.86080   0.66171   0.00000  Uiso   1.00
B35    B     0.25898   0.82948   0.71731   0.00000  Uiso   1.00
O36    O     0.29827   0.82262   0.74979   0.00000  Uiso   1.00
C37    C     0.65930   0.42034   0.20001   0.00000  Uiso   1.00
C38    C     0.66409   0.44861   0.24007   0.00000  Uiso   1.00
C39    C     0.69979   0.43875   0.27253   0.00000  Uiso   1.00
C40    C     0.73011   0.40079   0.26533   0.00000  Uiso   1.00
C41    C     0.72504   0.37212   0.22549   0.00000  Uiso   1.00
C42    C     0.68938   0.38217   0.19290   0.00000  Uiso   1.00
H43    H     0.63252   0.42758   0.17407   0.00000  Uiso   1.00
H44    H     0.70425   0.46051   0.30345   0.00000  Uiso   1.00
H45    H     0.75737   0.39393   0.29100   0.00000  Uiso   1.00
H46    H     0.68483   0.36080   0.16171   0.00000  Uiso   1.00
B47    B     0.75898   0.32948   0.21731   0.00000  Uiso   1.00
O48    O     0.79827   0.32262   0.24979   0.00000  Uiso   1.00
C49    C     0.65930   0.57966   0.29999   0.00000  Uiso   1.00
C50    C     0.66409   0.55139   0.25993   0.00000  Uiso   1.00
C51    C     0.69979   0.56125   0.22747   0.00000  Uiso   1.00
C52    C     0.73011   0.59921   0.23467   0.00000  Uiso   1.00
C53    C     0.72504   0.62788   0.27451   0.00000  Uiso   1.00
C54    C     0.68938   0.61783   0.30710   0.00000  Uiso   1.00
H55    H     0.63252   0.57242   0.32593   0.00000  Uiso   1.00
H56    H     0.70425   0.53949   0.19655   0.00000  Uiso   1.00
H57    H     0.75737   0.60607   0.20900   0.00000  Uiso   1.00
H58    H     0.68483   0.63920   0.33829   0.00000  Uiso   1.00
B59    B     0.75898   0.67052   0.28269   0.00000  Uiso   1.00
O60    O     0.79827   0.67738   0.25021   0.00000  Uiso   1.00
C61    C     0.15930   0.07966   0.79999   0.00000  Uiso   1.00
C62    C     0.16409   0.05139   0.75993   0.00000  Uiso   1.00
C63    C     0.19979   0.06125   0.72747   0.00000  Uiso   1.00
C64    C     0.23011   0.09921   0.73467   0.00000  Uiso   1.00
C65    C     0.22504   0.12788   0.77451   0.00000  Uiso   1.00
C66    C     0.18938   0.11783   0.80710   0.00000  Uiso   1.00
H67    H     0.13252   0.07242   0.82593   0.00000  Uiso   1.00
H68    H     0.20425   0.03949   0.69655   0.00000  Uiso   1.00
H69    H     0.25737   0.10607   0.70900   0.00000  Uiso   1.00
H70    H     0.18483   0.13920   0.83829   0.00000  Uiso   1.00
B71    B     0.25898   0.17052   0.78269   0.00000  Uiso   1.00
O72    O     0.29827   0.17738   0.75021   0.00000  Uiso   1.00
C73    C     0.84070   0.42034   0.79999   0.00000  Uiso   1.00
C74    C     0.83591   0.44861   0.75993   0.00000  Uiso   1.00
C75    C     0.80021   0.43875   0.72747   0.00000  Uiso   1.00
C76    C     0.76989   0.40079   0.73467   0.00000  Uiso   1.00
C77    C     0.77496   0.37212   0.77451   0.00000  Uiso   1.00
C78    C     0.81062   0.38217   0.80710   0.00000  Uiso   1.00
H79    H     0.86748   0.42758   0.82593   0.00000  Uiso   1.00
H80    H     0.79575   0.46051   0.69655   0.00000  Uiso   1.00
H81    H     0.74263   0.39393   0.70900   0.00000  Uiso   1.00
H82    H     0.81517   0.36080   0.83829   0.00000  Uiso   1.00
B83    B     0.74102   0.32948   0.78269   0.00000  Uiso   1.00
O84    O     0.70173   0.32262   0.75021   0.00000  Uiso   1.00
C85    C     0.34070   0.92034   0.29999   0.00000  Uiso   1.00
C86    C     0.33591   0.94861   0.25993   0.00000  Uiso   1.00
C87    C     0.30021   0.93875   0.22747   0.00000  Uiso   1.00
C88    C     0.26989   0.90079   0.23467   0.00000  Uiso   1.00
C89    C     0.27496   0.87212   0.27451   0.00000  Uiso   1.00
C90    C     0.31062   0.88217   0.30710   0.00000  Uiso   1.00
H91    H     0.36748   0.92758   0.32593   0.00000  Uiso   1.00
H92    H     0.29575   0.96051   0.19655   0.00000  Uiso   1.00
H93    H     0.24263   0.89393   0.20900   0.00000  Uiso   1.00
H94    H     0.31517   0.86080   0.33829   0.00000  Uiso   1.00
B95    B     0.24102   0.82948   0.28269   0.00000  Uiso   1.00
O96    O     0.20173   0.82262   0.25021   0.00000  Uiso   1.00
C97    C     0.20001   0.34070   0.07966   0.00000  Uiso   1.00
C98    C     0.24007   0.33591   0.05139   0.00000  Uiso   1.00
C99    C     0.27253   0.30021   0.06125   0.00000  Uiso   1.00
C100   C     0.26533   0.26989   0.09921   0.00000  Uiso   1.00
C101   C     0.22549   0.27496   0.12788   0.00000  Uiso   1.00
C102   C     0.19290   0.31062   0.11783   0.00000  Uiso   1.00
H103   H     0.17407   0.36748   0.07242   0.00000  Uiso   1.00
H104   H     0.30345   0.29575   0.03949   0.00000  Uiso   1.00
H105   H     0.29100   0.24263   0.10607   0.00000  Uiso   1.00
H106   H     0.16171   0.31517   0.13920   0.00000  Uiso   1.00
B107   B     0.21731   0.24102   0.17052   0.00000  Uiso   1.00
O108   O     0.24979   0.20173   0.17738   0.00000  Uiso   1.00
C109   C     0.70001   0.84070   0.57966   0.00000  Uiso   1.00
C110   C     0.74007   0.83591   0.55139   0.00000  Uiso   1.00
C111   C     0.77253   0.80021   0.56125   0.00000  Uiso   1.00
C112   C     0.76533   0.76989   0.59921   0.00000  Uiso   1.00
C113   C     0.72549   0.77496   0.62788   0.00000  Uiso   1.00
C114   C     0.69290   0.81062   0.61783   0.00000  Uiso   1.00
H115   H     0.67407   0.86748   0.57242   0.00000  Uiso   1.00
H116   H     0.80345   0.79575   0.53949   0.00000  Uiso   1.00
H117   H     0.79100   0.74263   0.60607   0.00000  Uiso   1.00
H118   H     0.66171   0.81517   0.63920   0.00000  Uiso   1.00
B119   B     0.71731   0.74102   0.67052   0.00000  Uiso   1.00
O120   O     0.74979   0.70173   0.67738   0.00000  Uiso   1.00
C121   C     0.70001   0.15930   0.92034   0.00000  Uiso   1.00
C122   C     0.74007   0.16409   0.94861   0.00000  Uiso   1.00
C123   C     0.77253   0.19979   0.93875   0.00000  Uiso   1.00
C124   C     0.76533   0.23011   0.90079   0.00000  Uiso   1.00
C125   C     0.72549   0.22504   0.87212   0.00000  Uiso   1.00
C126   C     0.69290   0.18938   0.88217   0.00000  Uiso   1.00
H127   H     0.67407   0.13252   0.92758   0.00000  Uiso   1.00
H128   H     0.80345   0.20425   0.96051   0.00000  Uiso   1.00
H129   H     0.79100   0.25737   0.89393   0.00000  Uiso   1.00
H130   H     0.66171   0.18483   0.86080   0.00000  Uiso   1.00
B131   B     0.71731   0.25898   0.82948   0.00000  Uiso   1.00
O132   O     0.74979   0.29827   0.82262   0.00000  Uiso   1.00
C133   C     0.20001   0.65930   0.42034   0.00000  Uiso   1.00
C134   C     0.24007   0.66409   0.44861   0.00000  Uiso   1.00
C135   C     0.27253   0.69979   0.43875   0.00000  Uiso   1.00
C136   C     0.26533   0.73011   0.40079   0.00000  Uiso   1.00
C137   C     0.22549   0.72504   0.37212   0.00000  Uiso   1.00
C138   C     0.19290   0.68938   0.38217   0.00000  Uiso   1.00
H139   H     0.17407   0.63252   0.42758   0.00000  Uiso   1.00
H140   H     0.30345   0.70425   0.46051   0.00000  Uiso   1.00
H141   H     0.29100   0.75737   0.39393   0.00000  Uiso   1.00
H142   H     0.16171   0.68483   0.36080   0.00000  Uiso   1.00
B143   B     0.21731   0.75898   0.32948   0.00000  Uiso   1.00
O144   O     0.24979   0.79827   0.32262   0.00000  Uiso   1.00
C145   C     0.29999   0.65930   0.57966   0.00000  Uiso   1.00
C146   C     0.25993   0.66409   0.55139   0.00000  Uiso   1.00
C147   C     0.22747   0.69979   0.56125   0.00000  Uiso   1.00
C148   C     0.23467   0.73011   0.59921   0.00000  Uiso   1.00
C149   C     0.27451   0.72504   0.62788   0.00000  Uiso   1.00
C150   C     0.30710   0.68938   0.61783   0.00000  Uiso   1.00
H151   H     0.32593   0.63252   0.57242   0.00000  Uiso   1.00
H152   H     0.19655   0.70425   0.53949   0.00000  Uiso   1.00
H153   H     0.20900   0.75737   0.60607   0.00000  Uiso   1.00
H154   H     0.33829   0.68483   0.63920   0.00000  Uiso   1.00
B155   B     0.28269   0.75898   0.67052   0.00000  Uiso   1.00
O156   O     0.25021   0.79827   0.67738   0.00000  Uiso   1.00
C157   C     0.79999   0.15930   0.07966   0.00000  Uiso   1.00
C158   C     0.75993   0.16409   0.05139   0.00000  Uiso   1.00
C159   C     0.72747   0.19979   0.06125   0.00000  Uiso   1.00
C160   C     0.73467   0.23011   0.09921   0.00000  Uiso   1.00
C161   C     0.77451   0.22504   0.12788   0.00000  Uiso   1.00
C162   C     0.80710   0.18938   0.11783   0.00000  Uiso   1.00
H163   H     0.82593   0.13252   0.07242   0.00000  Uiso   1.00
H164   H     0.69655   0.20425   0.03949   0.00000  Uiso   1.00
H165   H     0.70900   0.25737   0.10607   0.00000  Uiso   1.00
H166   H     0.83829   0.18483   0.13920   0.00000  Uiso   1.00
B167   B     0.78269   0.25898   0.17052   0.00000  Uiso   1.00
O168   O     0.75021   0.29827   0.17738   0.00000  Uiso   1.00
C169   C     0.79999   0.84070   0.42034   0.00000  Uiso   1.00
C170   C     0.75993   0.83591   0.44861   0.00000  Uiso   1.00
C171   C     0.72747   0.80021   0.43875   0.00000  Uiso   1.00
C172   C     0.73467   0.76989   0.40079   0.00000  Uiso   1.00
C173   C     0.77451   0.77496   0.37212   0.00000  Uiso   1.00
C174   C     0.80710   0.81062   0.38217   0.00000  Uiso   1.00
H175   H     0.82593   0.86748   0.42758   0.00000  Uiso   1.00
H176   H     0.69655   0.79575   0.46051   0.00000  Uiso   1.00
H177   H     0.70900   0.74263   0.39393   0.00000  Uiso   1.00
H178   H     0.83829   0.81517   0.36080   0.00000  Uiso   1.00
B179   B     0.78269   0.74102   0.32948   0.00000  Uiso   1.00
O180   O     0.75021   0.70173   0.32262   0.00000  Uiso   1.00
C181   C     0.29999   0.34070   0.92034   0.00000  Uiso   1.00
C182   C     0.25993   0.33591   0.94861   0.00000  Uiso   1.00
C183   C     0.22747   0.30021   0.93875   0.00000  Uiso   1.00
C184   C     0.23467   0.26989   0.90079   0.00000  Uiso   1.00
C185   C     0.27451   0.27496   0.87212   0.00000  Uiso   1.00
C186   C     0.30710   0.31062   0.88217   0.00000  Uiso   1.00
H187   H     0.32593   0.36748   0.92758   0.00000  Uiso   1.00
H188   H     0.19655   0.29575   0.96051   0.00000  Uiso   1.00
H189   H     0.20900   0.24263   0.89393   0.00000  Uiso   1.00
H190   H     0.33829   0.31517   0.86080   0.00000  Uiso   1.00
B191   B     0.28269   0.24102   0.82948   0.00000  Uiso   1.00
O192   O     0.25021   0.20173   0.82262   0.00000  Uiso   1.00
C193   C     0.07966   0.20001   0.34070   0.00000  Uiso   1.00
C194   C     0.05139   0.24007   0.33591   0.00000  Uiso   1.00
C195   C     0.06125   0.27253   0.30021   0.00000  Uiso   1.00
C196   C     0.09921   0.26533   0.26989   0.00000  Uiso   1.00
C197   C     0.12788   0.22549   0.27496   0.00000  Uiso   1.00
C198   C     0.11783   0.19290   0.31062   0.00000  Uiso   1.00
H199   H     0.07242   0.17407   0.36748   0.00000  Uiso   1.00
H200   H     0.03949   0.30345   0.29575   0.00000  Uiso   1.00
H201   H     0.10607   0.29100   0.24263   0.00000  Uiso   1.00
H202   H     0.13920   0.16171   0.31517   0.00000  Uiso   1.00
B203   B     0.17052   0.21731   0.24102   0.00000  Uiso   1.00
O204   O     0.17738   0.24979   0.20173   0.00000  Uiso   1.00
C205   C     0.57966   0.70001   0.84070   0.00000  Uiso   1.00
C206   C     0.55139   0.74007   0.83591   0.00000  Uiso   1.00
C207   C     0.56125   0.77253   0.80021   0.00000  Uiso   1.00
C208   C     0.59921   0.76533   0.76989   0.00000  Uiso   1.00
C209   C     0.62788   0.72549   0.77496   0.00000  Uiso   1.00
C210   C     0.61783   0.69290   0.81062   0.00000  Uiso   1.00
H211   H     0.57242   0.67407   0.86748   0.00000  Uiso   1.00
H212   H     0.53949   0.80345   0.79575   0.00000  Uiso   1.00
H213   H     0.60607   0.79100   0.74263   0.00000  Uiso   1.00
H214   H     0.63920   0.66171   0.81517   0.00000  Uiso   1.00
B215   B     0.67052   0.71731   0.74102   0.00000  Uiso   1.00
O216   O     0.67738   0.74979   0.70173   0.00000  Uiso   1.00
C217   C     0.92034   0.70001   0.15930   0.00000  Uiso   1.00
C218   C     0.94861   0.74007   0.16409   0.00000  Uiso   1.00
C219   C     0.93875   0.77253   0.19979   0.00000  Uiso   1.00
C220   C     0.90079   0.76533   0.23011   0.00000  Uiso   1.00
C221   C     0.87212   0.72549   0.22504   0.00000  Uiso   1.00
C222   C     0.88217   0.69290   0.18938   0.00000  Uiso   1.00
H223   H     0.92758   0.67407   0.13252   0.00000  Uiso   1.00
H224   H     0.96051   0.80345   0.20425   0.00000  Uiso   1.00
H225   H     0.89393   0.79100   0.25737   0.00000  Uiso   1.00
H226   H     0.86080   0.66171   0.18483   0.00000  Uiso   1.00
B227   B     0.82948   0.71731   0.25898   0.00000  Uiso   1.00
O228   O     0.82262   0.74979   0.29827   0.00000  Uiso   1.00
C229   C     0.42034   0.20001   0.65930   0.00000  Uiso   1.00
C230   C     0.44861   0.24007   0.66409   0.00000  Uiso   1.00
C231   C     0.43875   0.27253   0.69979   0.00000  Uiso   1.00
C232   C     0.40079   0.26533   0.73011   0.00000  Uiso   1.00
C233   C     0.37212   0.22549   0.72504   0.00000  Uiso   1.00
C234   C     0.38217   0.19290   0.68938   0.00000  Uiso   1.00
H235   H     0.42758   0.17407   0.63252   0.00000  Uiso   1.00
H236   H     0.46051   0.30345   0.70425   0.00000  Uiso   1.00
H237   H     0.39393   0.29100   0.75737   0.00000  Uiso   1.00
H238   H     0.36080   0.16171   0.68483   0.00000  Uiso   1.00
B239   B     0.32948   0.21731   0.75898   0.00000  Uiso   1.00
O240   O     0.32262   0.24979   0.79827   0.00000  Uiso   1.00
C241   C     0.57966   0.29999   0.65930   0.00000  Uiso   1.00
C242   C     0.55139   0.25993   0.66409   0.00000  Uiso   1.00
C243   C     0.56125   0.22747   0.69979   0.00000  Uiso   1.00
C244   C     0.59921   0.23467   0.73011   0.00000  Uiso   1.00
C245   C     0.62788   0.27451   0.72504   0.00000  Uiso   1.00
C246   C     0.61783   0.30710   0.68938   0.00000  Uiso   1.00
H247   H     0.57242   0.32593   0.63252   0.00000  Uiso   1.00
H248   H     0.53949   0.19655   0.70425   0.00000  Uiso   1.00
H249   H     0.60607   0.20900   0.75737   0.00000  Uiso   1.00
H250   H     0.63920   0.33829   0.68483   0.00000  Uiso   1.00
B251   B     0.67052   0.28269   0.75898   0.00000  Uiso   1.00
O252   O     0.67738   0.25021   0.79827   0.00000  Uiso   1.00
C253   C     0.07966   0.79999   0.15930   0.00000  Uiso   1.00
C254   C     0.05139   0.75993   0.16409   0.00000  Uiso   1.00
C255   C     0.06125   0.72747   0.19979   0.00000  Uiso   1.00
C256   C     0.09921   0.73467   0.23011   0.00000  Uiso   1.00
C257   C     0.12788   0.77451   0.22504   0.00000  Uiso   1.00
C258   C     0.11783   0.80710   0.18938   0.00000  Uiso   1.00
H259   H     0.07242   0.82593   0.13252   0.00000  Uiso   1.00
H260   H     0.03949   0.69655   0.20425   0.00000  Uiso   1.00
H261   H     0.10607   0.70900   0.25737   0.00000  Uiso   1.00
H262   H     0.13920   0.83829   0.18483   0.00000  Uiso   1.00
B263   B     0.17052   0.78269   0.25898   0.00000  Uiso   1.00
O264   O     0.17738   0.75021   0.29827   0.00000  Uiso   1.00
C265   C     0.42034   0.79999   0.84070   0.00000  Uiso   1.00
C266   C     0.44861   0.75993   0.83591   0.00000  Uiso   1.00
C267   C     0.43875   0.72747   0.80021   0.00000  Uiso   1.00
C268   C     0.40079   0.73467   0.76989   0.00000  Uiso   1.00
C269   C     0.37212   0.77451   0.77496   0.00000  Uiso   1.00
C270   C     0.38217   0.80710   0.81062   0.00000  Uiso   1.00
H271   H     0.42758   0.82593   0.86748   0.00000  Uiso   1.00
H272   H     0.46051   0.69655   0.79575   0.00000  Uiso   1.00
H273   H     0.39393   0.70900   0.74263   0.00000  Uiso   1.00
H274   H     0.36080   0.83829   0.81517   0.00000  Uiso   1.00
B275   B     0.32948   0.78269   0.74102   0.00000  Uiso   1.00
O276   O     0.32262   0.75021   0.70173   0.00000  Uiso   1.00
C277   C     0.92034   0.29999   0.34070   0.00000  Uiso   1.00
C278   C     0.94861   0.25993   0.33591   0.00000  Uiso   1.00
C279   C     0.93875   0.22747   0.30021   0.00000  Uiso   1.00
C280   C     0.90079   0.23467   0.26989   0.00000  Uiso   1.00
C281   C     0.87212   0.27451   0.27496   0.00000  Uiso   1.00
C282   C     0.88217   0.30710   0.31062   0.00000  Uiso   1.00
H283   H     0.92758   0.32593   0.36748   0.00000  Uiso   1.00
H284   H     0.96051   0.19655   0.29575   0.00000  Uiso   1.00
H285   H     0.89393   0.20900   0.24263   0.00000  Uiso   1.00
H286   H     0.86080   0.33829   0.31517   0.00000  Uiso   1.00
B287   B     0.82948   0.28269   0.24102   0.00000  Uiso   1.00
O288   O     0.82262   0.25021   0.20173   0.00000  Uiso   1.00
C289   C     0.32966   0.59070   0.45001   0.00000  Uiso   1.00
C290   C     0.30139   0.58591   0.49007   0.00000  Uiso   1.00
C291   C     0.31125   0.55021   0.52253   0.00000  Uiso   1.00
C292   C     0.34921   0.51989   0.51533   0.00000  Uiso   1.00
C293   C     0.37788   0.52496   0.47549   0.00000  Uiso   1.00
C294   C     0.36783   0.56062   0.44290   0.00000  Uiso   1.00
H295   H     0.32242   0.61748   0.42407   0.00000  Uiso   1.00
H296   H     0.28949   0.54575   0.55345   0.00000  Uiso   1.00
H297   H     0.35607   0.49263   0.54100   0.00000  Uiso   1.00
H298   H     0.38920   0.56517   0.41171   0.00000  Uiso   1.00
B299   B     0.42052   0.49102   0.46731   0.00000  Uiso   1.00
O300   O     0.42738   0.45173   0.49979   0.00000  Uiso   1.00
C301   C     0.82966   0.09070   0.95001   0.00000  Uiso   1.00
C302   C     0.80139   0.08591   0.99007   0.00000  Uiso   1.00
C303   C     0.81125   0.05021   0.02253   0.00000  Uiso   1.00
C304   C     0.84921   0.01989   0.01533   0.00000  Uiso   1.00
C305   C     0.87788   0.02496   0.97549   0.00000  Uiso   1.00
C306   C     0.86783   0.06062   0.94290   0.00000  Uiso   1.00
H307   H     0.82242   0.11748   0.92407   0.00000  Uiso   1.00
H308   H     0.78949   0.04575   0.05345   0.00000  Uiso   1.00
H309   H     0.85607   0.99263   0.04100   0.00000  Uiso   1.00
H310   H     0.88920   0.06517   0.91171   0.00000  Uiso   1.00
B311   B     0.92052   0.99102   0.96731   0.00000  Uiso   1.00
O312   O     0.92738   0.95173   0.99979   0.00000  Uiso   1.00
C313   C     0.17034   0.40930   0.95001   0.00000  Uiso   1.00
C314   C     0.19861   0.41409   0.99007   0.00000  Uiso   1.00
C315   C     0.18875   0.44979   0.02253   0.00000  Uiso   1.00
C316   C     0.15079   0.48011   0.01533   0.00000  Uiso   1.00
C317   C     0.12212   0.47504   0.97549   0.00000  Uiso   1.00
C318   C     0.13217   0.43938   0.94290   0.00000  Uiso   1.00
H319   H     0.17758   0.38252   0.92407   0.00000  Uiso   1.00
H320   H     0.21051   0.45425   0.05345   0.00000  Uiso   1.00
H321   H     0.14393   0.50737   0.04100   0.00000  Uiso   1.00
H322   H     0.11080   0.43483   0.91171   0.00000  Uiso   1.00
B323   B     0.07948   0.50898   0.96731   0.00000  Uiso   1.00
O324   O     0.07262   0.54827   0.99979   0.00000  Uiso   1.00
C325   C     0.67034   0.90930   0.45001   0.00000  Uiso   1.00
C326   C     0.69861   0.91409   0.49007   0.00000  Uiso   1.00
C327   C     0.68875   0.94979   0.52253   0.00000  Uiso   1.00
C328   C     0.65079   0.98011   0.51533   0.00000  Uiso   1.00
C329   C     0.62212   0.97504   0.47549   0.00000  Uiso   1.00
C330   C     0.63217   0.93938   0.44290   0.00000  Uiso   1.00
H331   H     0.67758   0.88252   0.42407   0.00000  Uiso   1.00
H332   H     0.71051   0.95425   0.55345   0.00000  Uiso   1.00
H333   H     0.64393   0.00737   0.54100   0.00000  Uiso   1.00
H334   H     0.61080   0.93483   0.41171   0.00000  Uiso   1.00
B335   B     0.57948   0.00898   0.46731   0.00000  Uiso   1.00
O336   O     0.57262   0.04827   0.49979   0.00000  Uiso   1.00
C337   C     0.82966   0.90930   0.54999   0.00000  Uiso   1.00
C338   C     0.80139   0.91409   0.50993   0.00000  Uiso   1.00
C339   C     0.81125   0.94979   0.47747   0.00000  Uiso   1.00
C340   C     0.84921   0.98011   0.48467   0.00000  Uiso   1.00
C341   C     0.87788   0.97504   0.52451   0.00000  Uiso   1.00
C342   C     0.86783   0.93938   0.55710   0.00000  Uiso   1.00
H343   H     0.82242   0.88252   0.57593   0.00000  Uiso   1.00
H344   H     0.78949   0.95425   0.44655   0.00000  Uiso   1.00
H345   H     0.85607   0.00737   0.45900   0.00000  Uiso   1.00
H346   H     0.88920   0.93483   0.58829   0.00000  Uiso   1.00
B347   B     0.92052   0.00898   0.53269   0.00000  Uiso   1.00
O348   O     0.92738   0.04827   0.50021   0.00000  Uiso   1.00
C349   C     0.32966   0.40930   0.04999   0.00000  Uiso   1.00
C350   C     0.30139   0.41409   0.00993   0.00000  Uiso   1.00
C351   C     0.31125   0.44979   0.97747   0.00000  Uiso   1.00
C352   C     0.34921   0.48011   0.98467   0.00000  Uiso   1.00
C353   C     0.37788   0.47504   0.02451   0.00000  Uiso   1.00
C354   C     0.36783   0.43938   0.05710   0.00000  Uiso   1.00
H355   H     0.32242   0.38252   0.07593   0.00000  Uiso   1.00
H356   H     0.28949   0.45425   0.94655   0.00000  Uiso   1.00
H357   H     0.35607   0.50737   0.95900   0.00000  Uiso   1.00
H358   H     0.38920   0.43483   0.08829   0.00000  Uiso   1.00
B359   B     0.42052   0.50898   0.03269   0.00000  Uiso   1.00
O360   O     0.42738   0.54827   0.00021   0.00000  Uiso   1.00
C361   C     0.67034   0.09070   0.04999   0.00000  Uiso   1.00
C362   C     0.69861   0.08591   0.00993   0.00000  Uiso   1.00
C363   C     0.68875   0.05021   0.97747   0.00000  Uiso   1.00
C364   C     0.65079   0.01989   0.98467   0.00000  Uiso   1.00
C365   C     0.62212   0.02496   0.02451   0.00000  Uiso   1.00
C366   C     0.63217   0.06062   0.05710   0.00000  Uiso   1.00
H367   H     0.67758   0.11748   0.07593   0.00000  Uiso   1.00
H368   H     0.71051   0.04575   0.94655   0.00000  Uiso   1.00
H369   H     0.64393   0.99263   0.95900   0.00000  Uiso   1.00
H370   H     0.61080   0.06517   0.08829   0.00000  Uiso   1.00
B371   B     0.57948   0.99102   0.03269   0.00000  Uiso   1.00
O372   O     0.57262   0.95173   0.00021   0.00000  Uiso   1.00
C373   C     0.17034   0.59070   0.54999   0.00000  Uiso   1.00
C374   C     0.19861   0.58591   0.50993   0.00000  Uiso   1.00
C375   C     0.18875   0.55021   0.47747   0.00000  Uiso   1.00
C376   C     0.15079   0.51989   0.48467   0.00000  Uiso   1.00
C377   C     0.12212   0.52496   0.52451   0.00000  Uiso   1.00
C378   C     0.13217   0.56062   0.55710   0.00000  Uiso   1.00
H379   H     0.17758   0.61748   0.57593   0.00000  Uiso   1.00
H380   H     0.21051   0.54575   0.44655   0.00000  Uiso   1.00
H381   H     0.14393   0.49263   0.45900   0.00000  Uiso   1.00
H382   H     0.11080   0.56517   0.58829   0.00000  Uiso   1.00
B383   B     0.07948   0.49102   0.53269   0.00000  Uiso   1.00
O384   O     0.07262   0.45173   0.50021   0.00000  Uiso   1.00
C385   C     0.59070   0.45001   0.32966   0.00000  Uiso   1.00
C386   C     0.58591   0.49007   0.30139   0.00000  Uiso   1.00
C387   C     0.55021   0.52253   0.31125   0.00000  Uiso   1.00
C388   C     0.51989   0.51533   0.34921   0.00000  Uiso   1.00
C389   C     0.52496   0.47549   0.37788   0.00000  Uiso   1.00
C390   C     0.56062   0.44290   0.36783   0.00000  Uiso   1.00
H391   H     0.61748   0.42407   0.32242   0.00000  Uiso   1.00
H392   H     0.54575   0.55345   0.28949   0.00000  Uiso   1.00
H393   H     0.49263   0.54100   0.35607   0.00000  Uiso   1.00
H394   H     0.56517   0.41171   0.38920   0.00000  Uiso   1.00
B395   B     0.49102   0.46731   0.42052   0.00000  Uiso   1.00
O396   O     0.45173   0.49979   0.42738   0.00000  Uiso   1.00
C397   C     0.09070   0.95001   0.82966   0.00000  Uiso   1.00
C398   C     0.08591   0.99007   0.80139   0.00000  Uiso   1.00
C399   C     0.05021   0.02253   0.81125   0.00000  Uiso   1.00
C400   C     0.01989   0.01533   0.84921   0.00000  Uiso   1.00
C401   C     0.02496   0.97549   0.87788   0.00000  Uiso   1.00
C402   C     0.06062   0.94290   0.86783   0.00000  Uiso   1.00
H403   H     0.11748   0.92407   0.82242   0.00000  Uiso   1.00
H404   H     0.04575   0.05345   0.78949   0.00000  Uiso   1.00
H405   H     0.99263   0.04100   0.85607   0.00000  Uiso   1.00
H406   H     0.06517   0.91171   0.88920   0.00000  Uiso   1.00
B407   B     0.99102   0.96731   0.92052   0.00000  Uiso   1.00
O408   O     0.95173   0.99979   0.92738   0.00000  Uiso   1.00
C409   C     0.40930   0.95001   0.17034   0.00000  Uiso   1.00
C410   C     0.41409   0.99007   0.19861   0.00000  Uiso   1.00
C411   C     0.44979   0.02253   0.18875   0.00000  Uiso   1.00
C412   C     0.48011   0.01533   0.15079   0.00000  Uiso   1.00
C413   C     0.47504   0.97549   0.12212   0.00000  Uiso   1.00
C414   C     0.43938   0.94290   0.13217   0.00000  Uiso   1.00
H415   H     0.38252   0.92407   0.17758   0.00000  Uiso   1.00
H416   H     0.45425   0.05345   0.21051   0.00000  Uiso   1.00
H417   H     0.50737   0.04100   0.14393   0.00000  Uiso   1.00
H418   H     0.43483   0.91171   0.11080   0.00000  Uiso   1.00
B419   B     0.50898   0.96731   0.07948   0.00000  Uiso   1.00
O420   O     0.54827   0.99979   0.07262   0.00000  Uiso   1.00
C421   C     0.90930   0.45001   0.67034   0.00000  Uiso   1.00
C422   C     0.91409   0.49007   0.69861   0.00000  Uiso   1.00
C423   C     0.94979   0.52253   0.68875   0.00000  Uiso   1.00
C424   C     0.98011   0.51533   0.65079   0.00000  Uiso   1.00
C425   C     0.97504   0.47549   0.62212   0.00000  Uiso   1.00
C426   C     0.93938   0.44290   0.63217   0.00000  Uiso   1.00
H427   H     0.88252   0.42407   0.67758   0.00000  Uiso   1.00
H428   H     0.95425   0.55345   0.71051   0.00000  Uiso   1.00
H429   H     0.00737   0.54100   0.64393   0.00000  Uiso   1.00
H430   H     0.93483   0.41171   0.61080   0.00000  Uiso   1.00
B431   B     0.00898   0.46731   0.57948   0.00000  Uiso   1.00
O432   O     0.04827   0.49979   0.57262   0.00000  Uiso   1.00
C433   C     0.90930   0.54999   0.82966   0.00000  Uiso   1.00
C434   C     0.91409   0.50993   0.80139   0.00000  Uiso   1.00
C435   C     0.94979   0.47747   0.81125   0.00000  Uiso   1.00
C436   C     0.98011   0.48467   0.84921   0.00000  Uiso   1.00
C437   C     0.97504   0.52451   0.87788   0.00000  Uiso   1.00
C438   C     0.93938   0.55710   0.86783   0.00000  Uiso   1.00
H439   H     0.88252   0.57593   0.82242   0.00000  Uiso   1.00
H440   H     0.95425   0.44655   0.78949   0.00000  Uiso   1.00
H441   H     0.00737   0.45900   0.85607   0.00000  Uiso   1.00
H442   H     0.93483   0.58829   0.88920   0.00000  Uiso   1.00
B443   B     0.00898   0.53269   0.92052   0.00000  Uiso   1.00
O444   O     0.04827   0.50021   0.92738   0.00000  Uiso   1.00
C445   C     0.40930   0.04999   0.32966   0.00000  Uiso   1.00
C446   C     0.41409   0.00993   0.30139   0.00000  Uiso   1.00
C447   C     0.44979   0.97747   0.31125   0.00000  Uiso   1.00
C448   C     0.48011   0.98467   0.34921   0.00000  Uiso   1.00
C449   C     0.47504   0.02451   0.37788   0.00000  Uiso   1.00
C450   C     0.43938   0.05710   0.36783   0.00000  Uiso   1.00
H451   H     0.38252   0.07593   0.32242   0.00000  Uiso   1.00
H452   H     0.45425   0.94655   0.28949   0.00000  Uiso   1.00
H453   H     0.50737   0.95900   0.35607   0.00000  Uiso   1.00
H454   H     0.43483   0.08829   0.38920   0.00000  Uiso   1.00
B455   B     0.50898   0.03269   0.42052   0.00000  Uiso   1.00
O456   O     0.54827   0.00021   0.42738   0.00000  Uiso   1.00
C457   C     0.09070   0.04999   0.67034   0.00000  Uiso   1.00
C458   C     0.08591   0.00993   0.69861   0.00000  Uiso   1.00
C459   C     0.05021   0.97747   0.68875   0.00000  Uiso   1.00
C460   C     0.01989   0.98467   0.65079   0.00000  Uiso   1.00
C461   C     0.02496   0.02451   0.62212   0.00000  Uiso   1.00
C462   C     0.06062   0.05710   0.63217   0.00000  Uiso   1.00
H463   H     0.11748   0.07593   0.67758   0.00000  Uiso   1.00
H464   H     0.04575   0.94655   0.71051   0.00000  Uiso   1.00
H465   H     0.99263   0.95900   0.64393   0.00000  Uiso   1.00
H466   H     0.06517   0.08829   0.61080   0.00000  Uiso   1.00
B467   B     0.99102   0.03269   0.57948   0.00000  Uiso   1.00
O468   O     0.95173   0.00021   0.57262   0.00000  Uiso   1.00
C469   C     0.59070   0.54999   0.17034   0.00000  Uiso   1.00
C470   C     0.58591   0.50993   0.19861   0.00000  Uiso   1.00
C471   C     0.55021   0.47747   0.18875   0.00000  Uiso   1.00
C472   C     0.51989   0.48467   0.15079   0.00000  Uiso   1.00
C473   C     0.52496   0.52451   0.12212   0.00000  Uiso   1.00
C474   C     0.56062   0.55710   0.13217   0.00000  Uiso   1.00
H475   H     0.61748   0.57593   0.17758   0.00000  Uiso   1.00
H476   H     0.54575   0.44655   0.21051   0.00000  Uiso   1.00
H477   H     0.49263   0.45900   0.14393   0.00000  Uiso   1.00
H478   H     0.56517   0.58829   0.11080   0.00000  Uiso   1.00
B479   B     0.49102   0.53269   0.07948   0.00000  Uiso   1.00
O480   O     0.45173   0.50021   0.07262   0.00000  Uiso   1.00
C481   C     0.45001   0.32966   0.59070   0.00000  Uiso   1.00
C482   C     0.49007   0.30139   0.58591   0.00000  Uiso   1.00
C483   C     0.52253   0.31125   0.55021   0.00000  Uiso   1.00
C484   C     0.51533   0.34921   0.51989   0.00000  Uiso   1.00
C485   C     0.47549   0.37788   0.52496   0.00000  Uiso   1.00
C486   C     0.44290   0.36783   0.56062   0.00000  Uiso   1.00
H487   H     0.42407   0.32242   0.61748   0.00000  Uiso   1.00
H488   H     0.55345   0.28949   0.54575   0.00000  Uiso   1.00
H489   H     0.54100   0.35607   0.49263   0.00000  Uiso   1.00
H490   H     0.41171   0.38920   0.56517   0.00000  Uiso   1.00
B491   B     0.46731   0.42052   0.49102   0.00000  Uiso   1.00
O492   O     0.49979   0.42738   0.45173   0.00000  Uiso   1.00
C493   C     0.95001   0.82966   0.09070   0.00000  Uiso   1.00
C494   C     0.99007   0.80139   0.08591   0.00000  Uiso   1.00
C495   C     0.02253   0.81125   0.05021   0.00000  Uiso   1.00
C496   C     0.01533   0.84921   0.01989   0.00000  Uiso   1.00
C497   C     0.97549   0.87788   0.02496   0.00000  Uiso   1.00
C498   C     0.94290   0.86783   0.06062   0.00000  Uiso   1.00
H499   H     0.92407   0.82242   0.11748   0.00000  Uiso   1.00
H500   H     0.05345   0.78949   0.04575   0.00000  Uiso   1.00
H501   H     0.04100   0.85607   0.99263   0.00000  Uiso   1.00
H502   H     0.91171   0.88920   0.06517   0.00000  Uiso   1.00
B503   B     0.96731   0.92052   0.99102   0.00000  Uiso   1.00
O504   O     0.99979   0.92738   0.95173   0.00000  Uiso   1.00
C505   C     0.95001   0.17034   0.40930   0.00000  Uiso   1.00
C506   C     0.99007   0.19861   0.41409   0.00000  Uiso   1.00
C507   C     0.02253   0.18875   0.44979   0.00000  Uiso   1.00
C508   C     0.01533   0.15079   0.48011   0.00000  Uiso   1.00
C509   C     0.97549   0.12212   0.47504   0.00000  Uiso   1.00
C510   C     0.94290   0.13217   0.43938   0.00000  Uiso   1.00
H511   H     0.92407   0.17758   0.38252   0.00000  Uiso   1.00
H512   H     0.05345   0.21051   0.45425   0.00000  Uiso   1.00
H513   H     0.04100   0.14393   0.50737   0.00000  Uiso   1.00
H514   H     0.91171   0.11080   0.43483   0.00000  Uiso   1.00
B515   B     0.96731   0.07948   0.50898   0.00000  Uiso   1.00
O516   O     0.99979   0.07262   0.54827   0.00000  Uiso   1.00
C517   C     0.45001   0.67034   0.90930   0.00000  Uiso   1.00
C518   C     0.49007   0.69861   0.91409   0.00000  Uiso   1.00
C519   C     0.52253   0.68875   0.94979   0.00000  Uiso   1.00
C520   C     0.51533   0.65079   0.98011   0.00000  Uiso   1.00
C521   C     0.47549   0.62212   0.97504   0.00000  Uiso   1.00
C522   C     0.44290   0.63217   0.93938   0.00000  Uiso   1.00
H523   H     0.42407   0.67758   0.88252   0.00000  Uiso   1.00
H524   H     0.55345   0.71051   0.95425   0.00000  Uiso   1.00
H525   H     0.54100   0.64393   0.00737   0.00000  Uiso   1.00
H526   H     0.41171   0.61080   0.93483   0.00000  Uiso   1.00
B527   B     0.46731   0.57948   0.00898   0.00000  Uiso   1.00
O528   O     0.49979   0.57262   0.04827   0.00000  Uiso   1.00
C529   C     0.54999   0.82966   0.90930   0.00000  Uiso   1.00
C530   C     0.50993   0.80139   0.91409   0.00000  Uiso   1.00
C531   C     0.47747   0.81125   0.94979   0.00000  Uiso   1.00
C532   C     0.48467   0.84921   0.98011   0.00000  Uiso   1.00
C533   C     0.52451   0.87788   0.97504   0.00000  Uiso   1.00
C534   C     0.55710   0.86783   0.93938   0.00000  Uiso   1.00
H535   H     0.57593   0.82242   0.88252   0.00000  Uiso   1.00
H536   H     0.44655   0.78949   0.95425   0.00000  Uiso   1.00
H537   H     0.45900   0.85607   0.00737   0.00000  Uiso   1.00
H538   H     0.58829   0.88920   0.93483   0.00000  Uiso   1.00
B539   B     0.53269   0.92052   0.00898   0.00000  Uiso   1.00
O540   O     0.50021   0.92738   0.04827   0.00000  Uiso   1.00
C541   C     0.04999   0.32966   0.40930   0.00000  Uiso   1.00
C542   C     0.00993   0.30139   0.41409   0.00000  Uiso   1.00
C543   C     0.97747   0.31125   0.44979   0.00000  Uiso   1.00
C544   C     0.98467   0.34921   0.48011   0.00000  Uiso   1.00
C545   C     0.02451   0.37788   0.47504   0.00000  Uiso   1.00
C546   C     0.05710   0.36783   0.43938   0.00000  Uiso   1.00
H547   H     0.07593   0.32242   0.38252   0.00000  Uiso   1.00
H548   H     0.94655   0.28949   0.45425   0.00000  Uiso   1.00
H549   H     0.95900   0.35607   0.50737   0.00000  Uiso   1.00
H550   H     0.08829   0.38920   0.43483   0.00000  Uiso   1.00
B551   B     0.03269   0.42052   0.50898   0.00000  Uiso   1.00
O552   O     0.00021   0.42738   0.54827   0.00000  Uiso   1.00
C553   C     0.04999   0.67034   0.09070   0.00000  Uiso   1.00
C554   C     0.00993   0.69861   0.08591   0.00000  Uiso   1.00
C555   C     0.97747   0.68875   0.05021   0.00000  Uiso   1.00
C556   C     0.98467   0.65079   0.01989   0.00000  Uiso   1.00
C557   C     0.02451   0.62212   0.02496   0.00000  Uiso   1.00
C558   C     0.05710   0.63217   0.06062   0.00000  Uiso   1.00
H559   H     0.07593   0.67758   0.11748   0.00000  Uiso   1.00
H560   H     0.94655   0.71051   0.04575   0.00000  Uiso   1.00
H561   H     0.95900   0.64393   0.99263   0.00000  Uiso   1.00
H562   H     0.08829   0.61080   0.06517   0.00000  Uiso   1.00
B563   B     0.03269   0.57948   0.99102   0.00000  Uiso   1.00
O564   O     0.00021   0.57262   0.95173   0.00000  Uiso   1.00
C565   C     0.54999   0.17034   0.59070   0.00000  Uiso   1.00
C566   C     0.50993   0.19861   0.58591   0.00000  Uiso   1.00
C567   C     0.47747   0.18875   0.55021   0.00000  Uiso   1.00
C568   C     0.48467   0.15079   0.51989   0.00000  Uiso   1.00
C569   C     0.52451   0.12212   0.52496   0.00000  Uiso   1.00
C570   C     0.55710   0.13217   0.56062   0.00000  Uiso   1.00
H571   H     0.57593   0.17758   0.61748   0.00000  Uiso   1.00
H572   H     0.44655   0.21051   0.54575   0.00000  Uiso   1.00
H573   H     0.45900   0.14393   0.49263   0.00000  Uiso   1.00
H574   H     0.58829   0.11080   0.56517   0.00000  Uiso   1.00
B575   B     0.53269   0.07948   0.49102   0.00000  Uiso   1.00
O576   O     0.50021   0.07262   0.45173   0.00000  Uiso   1.00
Si577  Si    0.37500   0.00000   0.25000   0.00000  Uiso   1.00
Si578  Si    0.12500   0.00000   0.75000   0.00000  Uiso   1.00
Si579  Si    0.62500   0.50000   0.25000   0.00000  Uiso   1.00
Si580  Si    0.87500   0.50000   0.75000   0.00000  Uiso   1.00
Si581  Si    0.25000   0.37500   0.00000   0.00000  Uiso   1.00
Si582  Si    0.75000   0.12500   0.00000   0.00000  Uiso   1.00
Si583  Si    0.25000   0.62500   0.50000   0.00000  Uiso   1.00
Si584  Si    0.75000   0.87500   0.50000   0.00000  Uiso   1.00
Si585  Si    0.00000   0.25000   0.37500   0.00000  Uiso   1.00
Si586  Si    0.00000   0.75000   0.12500   0.00000  Uiso   1.00
Si587  Si    0.50000   0.25000   0.62500   0.00000  Uiso   1.00
Si588  Si    0.50000   0.75000   0.87500   0.00000  Uiso   1.00
loop_
_geom_bond_atom_site_label_1
_geom_bond_atom_site_label_2
_geom_bond_distance
_geom_bond_site_symmetry_2
_ccdc_geom_bond_type
C1     C2      1.392   .     D
C1     C6      1.387   .     S
C1     H7      1.073   .     S
C2     C3      1.391   .     S
C2     Si577   1.845   .     S
C3     C4      1.387   .     D
C3     H8      1.075   .     S
C4     C5      1.394   .     S
C4     H9      1.075   .     S
C5     C6      1.394   .     D
C5     B11     1.557   .     S
C6     H10     1.076   .     S
B11    O12     1.453   .     S
B11    O108    1.453   .     S
O12    B203    1.453   .     S
C13    C14     1.392   .     S
C13    C18     1.387   .     D
C13    H19     1.073   .     S
C14    C15     1.391   .     D
C14    Si580   1.845   .     S
C15    C16     1.387   .     S
C15    H20     1.075   .     S
C16    C17     1.394   .     D
C16    H21     1.075   .     S
C17    C18     1.394   .     S
C17    B23     1.557   .     S
C18    H22     1.076   .     S
B23    O24     1.453   .     S
B23    O120    1.453   .     S
O24    B215    1.453   .     S
C25    C26     1.392   .     S
C25    C30     1.387   .     D
C25    H31     1.073   .     S
C26    C27     1.391   .     D
C26    Si578   1.845   1_565 S
C27    C28     1.387   .     S
C27    H32     1.075   .     S
C28    C29     1.394   .     D
C28    H33     1.075   .     S
C29    C30     1.394   .     S
C29    B35     1.557   .     S
C30    H34     1.076   .     S
B35    O36     1.453   .     S
B35    O156    1.453   .     S
O36    B275    1.453   .     S
C37    C38     1.392   .     S
C37    C42     1.387   .     D
C37    H43     1.073   .     S
C38    C39     1.391   .     D
C38    Si579   1.845   .     S
C39    C40     1.387   .     S
C39    H44     1.075   .     S
C40    C41     1.394   .     D
C40    H45     1.075   .     S
C41    C42     1.394   .     S
C41    B47     1.557   .     S
C42    H46     1.076   .     S
B47    O48     1.453   .     S
B47    O168    1.453   .     S
O48    B287    1.453   .     S
C49    C50     1.392   .     S
C49    C54     1.387   .     D
C49    H55     1.073   .     S
C50    C51     1.391   .     D
C50    Si579   1.845   .     S
C51    C52     1.387   .     S
C51    H56     1.075   .     S
C52    C53     1.394   .     D
C52    H57     1.075   .     S
C53    C54     1.394   .     S
C53    B59     1.557   .     S
C54    H58     1.076   .     S
B59    O60     1.453   .     S
B59    O180    1.453   .     S
O60    B227    1.453   .     S
C61    C62     1.392   .     D
C61    C66     1.387   .     S
C61    H67     1.073   .     S
C62    C63     1.391   .     S
C62    Si578   1.845   .     S
C63    C64     1.387   .     D
C63    H68     1.075   .     S
C64    C65     1.394   .     S
C64    H69     1.075   .     S
C65    C66     1.394   .     D
C65    B71     1.557   .     S
C66    H70     1.076   .     S
B71    O72     1.453   .     S
B71    O192    1.453   .     S
O72    B239    1.453   .     S
C73    C74     1.392   .     S
C73    C78     1.387   .     D
C73    H79     1.073   .     S
C74    C75     1.391   .     D
C74    Si580   1.845   .     S
C75    C76     1.387   .     S
C75    H80     1.075   .     S
C76    C77     1.394   .     D
C76    H81     1.075   .     S
C77    C78     1.394   .     S
C77    B83     1.557   .     S
C78    H82     1.076   .     S
B83    O84     1.453   .     S
B83    O132    1.453   .     S
O84    B251    1.453   .     S
C85    C86     1.392   .     S
C85    C90     1.387   .     D
C85    H91     1.073   .     S
C86    C87     1.391   .     D
C86    Si577   1.845   1_565 S
C87    C88     1.387   .     S
C87    H92     1.075   .     S
C88    C89     1.394   .     D
C88    H93     1.075   .     S
C89    C90     1.394   .     S
C89    B95     1.557   .     S
C90    H94     1.076   .     S
B95    O96     1.453   .     S
B95    O144    1.453   .     S
O96    B263    1.453   .     S
C97    C98     1.392   .     D
C97    C102    1.387   .     S
C97    H103    1.073   .     S
C98    C99     1.391   .     S
C98    Si581   1.845   .     S
C99    C100    1.387   .     D
C99    H104    1.075   .     S
C100   C101    1.394   .     S
C100   H105    1.075   .     S
C101   C102    1.394   .     D
C101   B107    1.557   .     S
C102   H106    1.076   .     S
B107   O108    1.453   .     S
B107   O204    1.453   .     S
C109   C110    1.392   .     S
C109   C114    1.387   .     D
C109   H115    1.073   .     S
C110   C111    1.391   .     D
C110   Si584   1.845   .     S
C111   C112    1.387   .     S
C111   H116    1.075   .     S
C112   C113    1.394   .     D
C112   H117    1.075   .     S
C113   C114    1.394   .     S
C113   B119    1.557   .     S
C114   H118    1.076   .     S
B119   O120    1.453   .     S
B119   O216    1.453   .     S
C121   C122    1.392   .     S
C121   C126    1.387   .     D
C121   H127    1.073   .     S
C122   C123    1.391   .     D
C122   Si582   1.845   1_556 S
C123   C124    1.387   .     S
C123   H128    1.075   .     S
C124   C125    1.394   .     D
C124   H129    1.075   .     S
C125   C126    1.394   .     S
C125   B131    1.557   .     S
C126   H130    1.076   .     S
B131   O132    1.453   .     S
B131   O252    1.453   .     S
C133   C134    1.392   .     S
C133   C138    1.387   .     D
C133   H139    1.073   .     S
C134   C135    1.391   .     D
C134   Si583   1.845   .     S
C135   C136    1.387   .     S
C135   H140    1.075   .     S
C136   C137    1.394   .     D
C136   H141    1.075   .     S
C137   C138    1.394   .     S
C137   B143    1.557   .     S
C138   H142    1.076   .     S
B143   O144    1.453   .     S
B143   O264    1.453   .     S
C145   C146    1.392   .     D
C145   C150    1.387   .     S
C145   H151    1.073   .     S
C146   C147    1.391   .     S
C146   Si583   1.845   .     S
C147   C148    1.387   .     D
C147   H152    1.075   .     S
C148   C149    1.394   .     S
C148   H153    1.075   .     S
C149   C150    1.394   .     D
C149   B155    1.557   .     S
C150   H154    1.076   .     S
B155   O156    1.453   .     S
B155   O276    1.453   .     S
C157   C158    1.392   .     D
C157   C162    1.387   .     S
C157   H163    1.073   .     S
C158   C159    1.391   .     S
C158   Si582   1.845   .     S
C159   C160    1.387   .     D
C159   H164    1.075   .     S
C160   C161    1.394   .     S
C160   H165    1.075   .     S
C161   C162    1.394   .     D
C161   B167    1.557   .     S
C162   H166    1.076   .     S
B167   O168    1.453   .     S
B167   O288    1.453   .     S
C169   C170    1.392   .     S
C169   C174    1.387   .     D
C169   H175    1.073   .     S
C170   C171    1.391   .     D
C170   Si584   1.845   .     S
C171   C172    1.387   .     S
C171   H176    1.075   .     S
C172   C173    1.394   .     D
C172   H177    1.075   .     S
C173   C174    1.394   .     S
C173   B179    1.557   .     S
C174   H178    1.076   .     S
B179   O180    1.453   .     S
B179   O228    1.453   .     S
C181   C182    1.392   .     S
C181   C186    1.387   .     D
C181   H187    1.073   .     S
C182   C183    1.391   .     D
C182   Si581   1.845   1_556 S
C183   C184    1.387   .     S
C183   H188    1.075   .     S
C184   C185    1.394   .     D
C184   H189    1.075   .     S
C185   C186    1.394   .     S
C185   B191    1.557   .     S
C186   H190    1.076   .     S
B191   O192    1.453   .     S
B191   O240    1.453   .     S
C193   C194    1.392   .     S
C193   C198    1.387   .     D
C193   H199    1.073   .     S
C194   C195    1.391   .     D
C194   Si585   1.845   .     S
C195   C196    1.387   .     S
C195   H200    1.075   .     S
C196   C197    1.394   .     D
C196   H201    1.075   .     S
C197   C198    1.394   .     S
C197   B203    1.557   .     S
C198   H202    1.076   .     S
B203   O204    1.453   .     S
C205   C206    1.392   .     S
C205   C210    1.387   .     D
C205   H211    1.073   .     S
C206   C207    1.391   .     D
C206   Si588   1.845   .     S
C207   C208    1.387   .     S
C207   H212    1.075   .     S
C208   C209    1.394   .     D
C208   H213    1.075   .     S
C209   C210    1.394   .     S
C209   B215    1.557   .     S
C210   H214    1.076   .     S
B215   O216    1.453   .     S
C217   C218    1.392   .     S
C217   C222    1.387   .     D
C217   H223    1.073   .     S
C218   C219    1.391   .     D
C218   Si586   1.845   1_655 S
C219   C220    1.387   .     S
C219   H224    1.075   .     S
C220   C221    1.394   .     D
C220   H225    1.075   .     S
C221   C222    1.394   .     S
C221   B227    1.557   .     S
C222   H226    1.076   .     S
B227   O228    1.453   .     S
C229   C230    1.392   .     D
C229   C234    1.387   .     S
C229   H235    1.073   .     S
C230   C231    1.391   .     S
C230   Si587   1.845   .     S
C231   C232    1.387   .     D
C231   H236    1.075   .     S
C232   C233    1.394   .     S
C232   H237    1.075   .     S
C233   C234    1.394   .     D
C233   B239    1.557   .     S
C234   H238    1.076   .     S
B239   O240    1.453   .     S
C241   C242    1.392   .     D
C241   C246    1.387   .     S
C241   H247    1.073   .     S
C242   C243    1.391   .     S
C242   Si587   1.845   .     S
C243   C244    1.387   .     D
C243   H248    1.075   .     S
C244   C245    1.394   .     S
C244   H249    1.075   .     S
C245   C246    1.394   .     D
C245   B251    1.557   .     S
C246   H250    1.076   .     S
B251   O252    1.453   .     S
C253   C254    1.392   .     S
C253   C258    1.387   .     D
C253   H259    1.073   .     S
C254   C255    1.391   .     D
C254   Si586   1.845   .     S
C255   C256    1.387   .     S
C255   H260    1.075   .     S
C256   C257    1.394   .     D
C256   H261    1.075   .     S
C257   C258    1.394   .     S
C257   B263    1.557   .     S
C258   H262    1.076   .     S
B263   O264    1.453   .     S
C265   C266    1.392   .     S
C265   C270    1.387   .     D
C265   H271    1.073   .     S
C266   C267    1.391   .     D
C266   Si588   1.845   .     S
C267   C268    1.387   .     S
C267   H272    1.075   .     S
C268   C269    1.394   .     D
C268   H273    1.075   .     S
C269   C270    1.394   .     S
C269   B275    1.557   .     S
C270   H274    1.076   .     S
B275   O276    1.453   .     S
C277   C278    1.392   .     S
C277   C282    1.387   .     D
C277   H283    1.073   .     S
C278   C279    1.391   .     D
C278   Si585   1.845   1_655 S
C279   C280    1.387   .     S
C279   H284    1.075   .     S
C280   C281    1.394   .     D
C280   H285    1.075   .     S
C281   C282    1.394   .     S
C281   B287    1.557   .     S
C282   H286    1.076   .     S
B287   O288    1.453   .     S
C289   C290    1.392   .     D
C289   C294    1.387   .     S
C289   H295    1.073   .     S
C290   C291    1.391   .     S
C290   Si583   1.845   .     S
C291   C292    1.387   .     D
C291   H296    1.075   .     S
C292   C293    1.394   .     S
C292   H297    1.075   .     S
C293   C294    1.394   .     D
C293   B299    1.557   .     S
C294   H298    1.076   .     S
B299   O300    1.453   .     S
B299   O396    1.453   .     S
O300   B491    1.453   .     S
C301   C302    1.392   .     S
C301   C306    1.387   .     D
C301   H307    1.073   .     S
C302   C303    1.391   1_556 D
C302   Si582   1.845   1_556 S
C303   C302    1.391   1_554 D
C303   C304    1.387   .     S
C303   H308    1.075   .     S
C304   C305    1.394   1_554 D
C304   H309    1.075   1_545 S
C305   C304    1.394   1_556 D
C305   C306    1.394   .     S
C305   B311    1.557   1_545 S
C306   H310    1.076   .     S
H309   C304    1.075   1_565 S
B311   C305    1.557   1_565 S
B311   O312    1.453   .     S
B311   O408    1.453   .     S
O312   B503    1.453   .     S
C313   C314    1.392   .     S
C313   C318    1.387   .     D
C313   H319    1.073   .     S
C314   C315    1.391   1_556 D
C314   Si581   1.845   1_556 S
C315   C314    1.391   1_554 D
C315   C316    1.387   .     S
C315   H320    1.075   .     S
C316   C317    1.394   1_554 D
C316   H321    1.075   .     S
C317   C316    1.394   1_556 D
C317   C318    1.394   .     S
C317   B323    1.557   .     S
C318   H322    1.076   .     S
B323   O324    1.453   .     S
B323   O444    1.453   .     S
O324   B563    1.453   .     S
C325   C326    1.392   .     S
C325   C330    1.387   .     D
C325   H331    1.073   .     S
C326   C327    1.391   .     D
C326   Si584   1.845   .     S
C327   C328    1.387   .     S
C327   H332    1.075   .     S
C328   C329    1.394   .     D
C328   H333    1.075   1_565 S
C329   C330    1.394   .     S
C329   B335    1.557   1_565 S
C330   H334    1.076   .     S
H333   C328    1.075   1_545 S
B335   C329    1.557   1_545 S
B335   O336    1.453   .     S
B335   O456    1.453   .     S
O336   B575    1.453   .     S
C337   C338    1.392   .     S
C337   C342    1.387   .     D
C337   H343    1.073   .     S
C338   C339    1.391   .     D
C338   Si584   1.845   .     S
C339   C340    1.387   .     S
C339   H344    1.075   .     S
C340   C341    1.394   .     D
C340   H345    1.075   1_565 S
C341   C342    1.394   .     S
C341   B347    1.557   1_565 S
C342   H346    1.076   .     S
H345   C340    1.075   1_545 S
B347   C341    1.557   1_545 S
B347   O348    1.453   .     S
B347   O468    1.453   .     S
O348   B515    1.453   .     S
C349   C350    1.392   .     S
C349   C354    1.387   .     D
C349   H355    1.073   .     S
C350   C351    1.391   1_554 D
C350   Si581   1.845   .     S
C351   C350    1.391   1_556 D
C351   C352    1.387   .     S
C351   H356    1.075   .     S
C352   C353    1.394   1_556 D
C352   H357    1.075   .     S
C353   C352    1.394   1_554 D
C353   C354    1.394   .     S
C353   B359    1.557   .     S
C354   H358    1.076   .     S
B359   O360    1.453   .     S
B359   O480    1.453   .     S
O360   B527    1.453   .     S
C361   C362    1.392   .     D
C361   C366    1.387   .     S
C361   H367    1.073   .     S
C362   C363    1.391   1_554 S
C362   Si582   1.845   .     S
C363   C362    1.391   1_556 S
C363   C364    1.387   .     D
C363   H368    1.075   .     S
C364   C365    1.394   1_556 S
C364   H369    1.075   1_545 S
C365   C364    1.394   1_554 S
C365   C366    1.394   .     D
C365   B371    1.557   1_545 S
C366   H370    1.076   .     S
H369   C364    1.075   1_565 S
B371   C365    1.557   1_565 S
B371   O372    1.453   .     S
B371   O420    1.453   .     S
O372   B539    1.453   .     S
C373   C374    1.392   .     D
C373   C378    1.387   .     S
C373   H379    1.073   .     S
C374   C375    1.391   .     S
C374   Si583   1.845   .     S
C375   C376    1.387   .     D
C375   H380    1.075   .     S
C376   C377    1.394   .     S
C376   H381    1.075   .     S
C377   C378    1.394   .     D
C377   B383    1.557   .     S
C378   H382    1.076   .     S
B383   O384    1.453   .     S
B383   O432    1.453   .     S
O384   B551    1.453   .     S
C385   C386    1.392   .     D
C385   C390    1.387   .     S
C385   H391    1.073   .     S
C386   C387    1.391   .     S
C386   Si579   1.845   .     S
C387   C388    1.387   .     D
C387   H392    1.075   .     S
C388   C389    1.394   .     S
C388   H393    1.075   .     S
C389   C390    1.394   .     D
C389   B395    1.557   .     S
C390   H394    1.076   .     S
B395   O396    1.453   .     S
B395   O492    1.453   .     S
C397   C398    1.392   .     D
C397   C402    1.387   .     S
C397   H403    1.073   .     S
C398   C399    1.391   1_565 S
C398   Si578   1.845   1_565 S
C399   C398    1.391   1_545 S
C399   C400    1.387   .     D
C399   H404    1.075   .     S
C400   C401    1.394   1_545 S
C400   H405    1.075   1_455 S
C401   C400    1.394   1_565 S
C401   C402    1.394   .     D
C401   B407    1.557   1_455 S
C402   H406    1.076   .     S
H405   C400    1.075   1_655 S
B407   C401    1.557   1_655 S
B407   O408    1.453   .     S
B407   O504    1.453   .     S
C409   C410    1.392   .     S
C409   C414    1.387   .     D
C409   H415    1.073   .     S
C410   C411    1.391   1_565 D
C410   Si577   1.845   1_565 S
C411   C410    1.391   1_545 D
C411   C412    1.387   .     S
C411   H416    1.075   .     S
C412   C413    1.394   1_545 D
C412   H417    1.075   .     S
C413   C412    1.394   1_565 D
C413   C414    1.394   .     S
C413   B419    1.557   .     S
C414   H418    1.076   .     S
B419   O420    1.453   .     S
B419   O540    1.453   .     S
C421   C422    1.392   .     D
C421   C426    1.387   .     S
C421   H427    1.073   .     S
C422   C423    1.391   .     S
C422   Si580   1.845   .     S
C423   C424    1.387   .     D
C423   H428    1.075   .     S
C424   C425    1.394   .     S
C424   H429    1.075   1_655 S
C425   C426    1.394   .     D
C425   B431    1.557   1_655 S
C426   H430    1.076   .     S
H429   C424    1.075   1_455 S
B431   C425    1.557   1_455 S
B431   O432    1.453   .     S
B431   O552    1.453   .     S
C433   C434    1.392   .     D
C433   C438    1.387   .     S
C433   H439    1.073   .     S
C434   C435    1.391   .     S
C434   Si580   1.845   .     S
C435   C436    1.387   .     D
C435   H440    1.075   .     S
C436   C437    1.394   .     S
C436   H441    1.075   1_655 S
C437   C438    1.394   .     D
C437   B443    1.557   1_655 S
C438   H442    1.076   .     S
H441   C436    1.075   1_455 S
B443   C437    1.557   1_455 S
B443   O444    1.453   .     S
B443   O564    1.453   .     S
C445   C446    1.392   .     S
C445   C450    1.387   .     D
C445   H451    1.073   .     S
C446   C447    1.391   1_545 D
C446   Si577   1.845   .     S
C447   C446    1.391   1_565 D
C447   C448    1.387   .     S
C447   H452    1.075   .     S
C448   C449    1.394   1_565 D
C448   H453    1.075   .     S
C449   C448    1.394   1_545 D
C449   C450    1.394   .     S
C449   B455    1.557   .     S
C450   H454    1.076   .     S
B455   O456    1.453   .     S
B455   O576    1.453   .     S
C457   C458    1.392   .     D
C457   C462    1.387   .     S
C457   H463    1.073   .     S
C458   C459    1.391   1_545 S
C458   Si578   1.845   .     S
C459   C458    1.391   1_565 S
C459   C460    1.387   .     D
C459   H464    1.075   .     S
C460   C461    1.394   1_565 S
C460   H465    1.075   1_455 S
C461   C460    1.394   1_545 S
C461   C462    1.394   .     D
C461   B467    1.557   1_455 S
C462   H466    1.076   .     S
H465   C460    1.075   1_655 S
B467   C461    1.557   1_655 S
B467   O468    1.453   .     S
B467   O516    1.453   .     S
C469   C470    1.392   .     D
C469   C474    1.387   .     S
C469   H475    1.073   .     S
C470   C471    1.391   .     S
C470   Si579   1.845   .     S
C471   C472    1.387   .     D
C471   H476    1.075   .     S
C472   C473    1.394   .     S
C472   H477    1.075   .     S
C473   C474    1.394   .     D
C473   B479    1.557   .     S
C474   H478    1.076   .     S
B479   O480    1.453   .     S
B479   O528    1.453   .     S
C481   C482    1.392   .     D
C481   C486    1.387   .     S
C481   H487    1.073   .     S
C482   C483    1.391   .     S
C482   Si587   1.845   .     S
C483   C484    1.387   .     D
C483   H488    1.075   .     S
C484   C485    1.394   .     S
C484   H489    1.075   .     S
C485   C486    1.394   .     D
C485   B491    1.557   .     S
C486   H490    1.076   .     S
B491   O492    1.453   .     S
C493   C494    1.392   .     D
C493   C498    1.387   .     S
C493   H499    1.073   .     S
C494   C495    1.391   1_655 S
C494   Si586   1.845   1_655 S
C495   C494    1.391   1_455 S
C495   C496    1.387   .     D
C495   H500    1.075   .     S
C496   C497    1.394   1_455 S
C496   H501    1.075   1_554 S
C497   C496    1.394   1_655 S
C497   C498    1.394   .     D
C497   B503    1.557   1_554 S
C498   H502    1.076   .     S
H501   C496    1.075   1_556 S
B503   C497    1.557   1_556 S
B503   O504    1.453   .     S
C505   C506    1.392   .     S
C505   C510    1.387   .     D
C505   H511    1.073   .     S
C506   C507    1.391   1_655 D
C506   Si585   1.845   1_655 S
C507   C506    1.391   1_455 D
C507   C508    1.387   .     S
C507   H512    1.075   .     S
C508   C509    1.394   1_455 D
C508   H513    1.075   .     S
C509   C508    1.394   1_655 D
C509   C510    1.394   .     S
C509   B515    1.557   .     S
C510   H514    1.076   .     S
B515   O516    1.453   .     S
C517   C518    1.392   .     S
C517   C522    1.387   .     D
C517   H523    1.073   .     S
C518   C519    1.391   .     D
C518   Si588   1.845   .     S
C519   C520    1.387   .     S
C519   H524    1.075   .     S
C520   C521    1.394   .     D
C520   H525    1.075   1_556 S
C521   C522    1.394   .     S
C521   B527    1.557   1_556 S
C522   H526    1.076   .     S
H525   C520    1.075   1_554 S
B527   C521    1.557   1_554 S
B527   O528    1.453   .     S
C529   C530    1.392   .     S
C529   C534    1.387   .     D
C529   H535    1.073   .     S
C530   C531    1.391   .     D
C530   Si588   1.845   .     S
C531   C532    1.387   .     S
C531   H536    1.075   .     S
C532   C533    1.394   .     D
C532   H537    1.075   1_556 S
C533   C534    1.394   .     S
C533   B539    1.557   1_556 S
C534   H538    1.076   .     S
H537   C532    1.075   1_554 S
B539   C533    1.557   1_554 S
B539   O540    1.453   .     S
C541   C542    1.392   .     S
C541   C546    1.387   .     D
C541   H547    1.073   .     S
C542   C543    1.391   1_455 D
C542   Si585   1.845   .     S
C543   C542    1.391   1_655 D
C543   C544    1.387   .     S
C543   H548    1.075   .     S
C544   C545    1.394   1_655 D
C544   H549    1.075   .     S
C545   C544    1.394   1_455 D
C545   C546    1.394   .     S
C545   B551    1.557   .     S
C546   H550    1.076   .     S
B551   O552    1.453   .     S
C553   C554    1.392   .     D
C553   C558    1.387   .     S
C553   H559    1.073   .     S
C554   C555    1.391   1_455 S
C554   Si586   1.845   .     S
C555   C554    1.391   1_655 S
C555   C556    1.387   .     D
C555   H560    1.075   .     S
C556   C557    1.394   1_655 S
C556   H561    1.075   1_554 S
C557   C556    1.394   1_455 S
C557   C558    1.394   .     D
C557   B563    1.557   1_554 S
C558   H562    1.076   .     S
H561   C556    1.075   1_556 S
B563   C557    1.557   1_556 S
B563   O564    1.453   .     S
C565   C566    1.392   .     D
C565   C570    1.387   .     S
C565   H571    1.073   .     S
C566   C567    1.391   .     S
C566   Si587   1.845   .     S
C567   C568    1.387   .     D
C567   H572    1.075   .     S
C568   C569    1.394   .     S
C568   H573    1.075   .     S
C569   C570    1.394   .     D
C569   B575    1.557   .     S
C570   H574    1.076   .     S
B575   O576    1.453   .     S
Si577  C86     1.845   1_545 S
Si577  C410    1.845   1_545 S
Si578  C26     1.845   1_545 S
Si578  C398    1.845   1_545 S
Si581  C314    1.845   1_554 S
Si581  C182    1.845   1_554 S
Si582  C122    1.845   1_554 S
Si582  C302    1.845   1_554 S
Si585  C278    1.845   1_455 S
Si585  C506    1.845   1_455 S
Si586  C218    1.845   1_455 S
Si586  C494    1.845   1_455 S
