data_907
_audit_creation_date              2023-09-08
_audit_creation_method            'Materials Studio'
_symmetry_space_group_name_H-M    'P1'
_symmetry_Int_Tables_number       1
_symmetry_cell_setting            triclinic
loop_
_symmetry_equiv_pos_as_xyz
  x,y,z
_cell_length_a                    29.6352
_cell_length_b                    29.6352
_cell_length_c                    11.7447
_cell_angle_alpha                 90.0000
_cell_angle_beta                  90.0000
_cell_angle_gamma                 90.0000
loop_
_atom_site_label
_atom_site_type_symbol
_atom_site_fract_x
_atom_site_fract_y
_atom_site_fract_z
_atom_site_U_iso_or_equiv
_atom_site_adp_type
_atom_site_occupancy
C1     C     0.94137   0.46325   0.88606   0.00000  Uiso   1.00
C2     C     0.19364   0.46745   0.30777   0.00000  Uiso   1.00
C3     C     0.12797   0.48210   0.12331   0.00000  Uiso   1.00
C4     C     0.09972   0.48955   0.02161   0.00000  Uiso   1.00
C5     C     0.08227   0.45132   0.96824   0.00000  Uiso   1.00
C6     C     0.05243   0.45542   0.87822   0.00000  Uiso   1.00
C7     C     0.04035   0.49801   0.83327   0.00000  Uiso   1.00
H8     H     0.19457   0.44066   0.24560   0.00000  Uiso   1.00
H9     H     0.13387   0.44737   0.14721   0.00000  Uiso   1.00
H10    H     0.09018   0.41783   0.99954   0.00000  Uiso   1.00
H11    H     0.03732   0.42467   0.84627   0.00000  Uiso   1.00
C12    C     0.21832   0.46159   0.40806   0.00000  Uiso   1.00
C13    C     0.22023   0.49588   0.48921   0.00000  Uiso   1.00
H14    H     0.23666   0.43052   0.42242   0.00000  Uiso   1.00
C15    C     0.17152   0.54215   0.36963   0.00000  Uiso   1.00
C16    C     0.16941   0.50775   0.28818   0.00000  Uiso   1.00
N17    N     0.14273   0.51475   0.18714   0.00000  Uiso   1.00
C18    C     0.08811   0.53252   0.97973   0.00000  Uiso   1.00
H19    H     0.15329   0.57328   0.35524   0.00000  Uiso   1.00
H20    H     0.04835   0.57008   0.85879   0.00000  Uiso   1.00
H21    H     0.10074   0.56251   0.02169   0.00000  Uiso   1.00
C22    C     0.19671   0.53636   0.46972   0.00000  Uiso   1.00
H23    H     0.19809   0.56325   0.53192   0.00000  Uiso   1.00
C24    C     0.47291   0.36547   0.85677   0.00000  Uiso   1.00
C25    C     0.48166   0.39645   0.76103   0.00000  Uiso   1.00
C26    C     0.44661   0.40594   0.68472   0.00000  Uiso   1.00
C27    C     0.45248   0.43736   0.59747   0.00000  Uiso   1.00
C28    C     0.49424   0.45948   0.58199   0.00000  Uiso   1.00
H29    H     0.44090   0.34818   0.85695   0.00000  Uiso   1.00
H30    H     0.41388   0.39022   0.69537   0.00000  Uiso   1.00
H31    H     0.42331   0.44559   0.54640   0.00000  Uiso   1.00
N32    N     0.24707   0.48904   0.58909   0.00000  Uiso   1.00
C33    C     0.44889   0.47037   0.34161   0.00000  Uiso   1.00
C34    C     0.41786   0.47657   0.25329   0.00000  Uiso   1.00
H35    H     0.46624   0.43828   0.34811   0.00000  Uiso   1.00
H36    H     0.41136   0.44917   0.19443   0.00000  Uiso   1.00
N37    N     0.50176   0.36030   0.93936   0.00000  Uiso   1.00
C38    C     0.45498   0.30951   0.06211   0.00000  Uiso   1.00
H39    H     0.42610   0.31169   0.00677   0.00000  Uiso   1.00
C40    C     0.45077   0.28308   0.16002   0.00000  Uiso   1.00
C41    C     0.48652   0.27918   0.23653   0.00000  Uiso   1.00
N42    N     0.48034   0.25199   0.33600   0.00000  Uiso   1.00
H43    H     0.41946   0.26557   0.17719   0.00000  Uiso   1.00
C44    C     0.53138   0.32880   0.11630   0.00000  Uiso   1.00
C45    C     0.49563   0.33249   0.03873   0.00000  Uiso   1.00
H46    H     0.56260   0.34663   0.09989   0.00000  Uiso   1.00
C47    C     0.52701   0.30229   0.21468   0.00000  Uiso   1.00
H48    H     0.55490   0.29970   0.27380   0.00000  Uiso   1.00
C49    C     0.05863   0.53675   0.88606   0.00000  Uiso   1.00
C50    C     0.80636   0.53255   0.30777   0.00000  Uiso   1.00
C51    C     0.87203   0.51790   0.12331   0.00000  Uiso   1.00
C52    C     0.90028   0.51045   0.02161   0.00000  Uiso   1.00
C53    C     0.91773   0.54868   0.96824   0.00000  Uiso   1.00
C54    C     0.94757   0.54458   0.87822   0.00000  Uiso   1.00
C55    C     0.95965   0.50199   0.83327   0.00000  Uiso   1.00
H56    H     0.80543   0.55934   0.24560   0.00000  Uiso   1.00
H57    H     0.86613   0.55263   0.14721   0.00000  Uiso   1.00
H58    H     0.90982   0.58217   0.99954   0.00000  Uiso   1.00
H59    H     0.96268   0.57533   0.84627   0.00000  Uiso   1.00
C60    C     0.78168   0.53841   0.40806   0.00000  Uiso   1.00
C61    C     0.77977   0.50412   0.48921   0.00000  Uiso   1.00
H62    H     0.76334   0.56948   0.42242   0.00000  Uiso   1.00
C63    C     0.82848   0.45785   0.36963   0.00000  Uiso   1.00
C64    C     0.83059   0.49225   0.28818   0.00000  Uiso   1.00
N65    N     0.85727   0.48525   0.18714   0.00000  Uiso   1.00
C66    C     0.91189   0.46748   0.97973   0.00000  Uiso   1.00
H67    H     0.84671   0.42672   0.35524   0.00000  Uiso   1.00
H68    H     0.95165   0.42992   0.85879   0.00000  Uiso   1.00
H69    H     0.89926   0.43749   0.02169   0.00000  Uiso   1.00
C70    C     0.80329   0.46364   0.46972   0.00000  Uiso   1.00
H71    H     0.80191   0.43675   0.53192   0.00000  Uiso   1.00
C72    C     0.52709   0.63453   0.85677   0.00000  Uiso   1.00
C73    C     0.51834   0.60355   0.76103   0.00000  Uiso   1.00
C74    C     0.55339   0.59406   0.68472   0.00000  Uiso   1.00
C75    C     0.54752   0.56264   0.59747   0.00000  Uiso   1.00
C76    C     0.50576   0.54052   0.58199   0.00000  Uiso   1.00
H77    H     0.55910   0.65182   0.85695   0.00000  Uiso   1.00
H78    H     0.58612   0.60978   0.69537   0.00000  Uiso   1.00
H79    H     0.57669   0.55441   0.54640   0.00000  Uiso   1.00
N80    N     0.75293   0.51096   0.58909   0.00000  Uiso   1.00
C81    C     0.55111   0.52963   0.34161   0.00000  Uiso   1.00
C82    C     0.58214   0.52343   0.25329   0.00000  Uiso   1.00
H83    H     0.53376   0.56172   0.34811   0.00000  Uiso   1.00
H84    H     0.58864   0.55083   0.19443   0.00000  Uiso   1.00
N85    N     0.49824   0.63970   0.93936   0.00000  Uiso   1.00
C86    C     0.54502   0.69049   0.06211   0.00000  Uiso   1.00
H87    H     0.57390   0.68831   0.00677   0.00000  Uiso   1.00
C88    C     0.54923   0.71692   0.16002   0.00000  Uiso   1.00
C89    C     0.51348   0.72082   0.23653   0.00000  Uiso   1.00
N90    N     0.51966   0.74801   0.33600   0.00000  Uiso   1.00
H91    H     0.58054   0.73443   0.17719   0.00000  Uiso   1.00
C92    C     0.46862   0.67120   0.11630   0.00000  Uiso   1.00
C93    C     0.50437   0.66751   0.03873   0.00000  Uiso   1.00
H94    H     0.43740   0.65337   0.09989   0.00000  Uiso   1.00
C95    C     0.47299   0.69771   0.21468   0.00000  Uiso   1.00
H96    H     0.44510   0.70030   0.27380   0.00000  Uiso   1.00
C97    C     0.46325   0.05863   0.11394   0.00000  Uiso   1.00
C98    C     0.46745   0.80636   0.69223   0.00000  Uiso   1.00
C99    C     0.48210   0.87203   0.87669   0.00000  Uiso   1.00
C100   C     0.48955   0.90028   0.97839   0.00000  Uiso   1.00
C101   C     0.45132   0.91773   0.03176   0.00000  Uiso   1.00
C102   C     0.45542   0.94757   0.12178   0.00000  Uiso   1.00
C103   C     0.49801   0.95965   0.16673   0.00000  Uiso   1.00
H104   H     0.44066   0.80543   0.75440   0.00000  Uiso   1.00
H105   H     0.44737   0.86613   0.85279   0.00000  Uiso   1.00
H106   H     0.41783   0.90982   0.00046   0.00000  Uiso   1.00
H107   H     0.42467   0.96268   0.15373   0.00000  Uiso   1.00
C108   C     0.46159   0.78168   0.59194   0.00000  Uiso   1.00
C109   C     0.49588   0.77977   0.51079   0.00000  Uiso   1.00
H110   H     0.43052   0.76334   0.57758   0.00000  Uiso   1.00
C111   C     0.54215   0.82848   0.63037   0.00000  Uiso   1.00
C112   C     0.50775   0.83059   0.71182   0.00000  Uiso   1.00
N113   N     0.51475   0.85727   0.81286   0.00000  Uiso   1.00
C114   C     0.53252   0.91189   0.02027   0.00000  Uiso   1.00
H115   H     0.57328   0.84671   0.64476   0.00000  Uiso   1.00
H116   H     0.57008   0.95165   0.14121   0.00000  Uiso   1.00
H117   H     0.56251   0.89926   0.97831   0.00000  Uiso   1.00
C118   C     0.53636   0.80329   0.53028   0.00000  Uiso   1.00
H119   H     0.56325   0.80191   0.46808   0.00000  Uiso   1.00
C120   C     0.36547   0.52709   0.14323   0.00000  Uiso   1.00
C121   C     0.39645   0.51834   0.23897   0.00000  Uiso   1.00
C122   C     0.40594   0.55339   0.31528   0.00000  Uiso   1.00
C123   C     0.43736   0.54752   0.40253   0.00000  Uiso   1.00
C124   C     0.45948   0.50576   0.41801   0.00000  Uiso   1.00
H125   H     0.34818   0.55910   0.14305   0.00000  Uiso   1.00
H126   H     0.39022   0.58612   0.30463   0.00000  Uiso   1.00
H127   H     0.44559   0.57669   0.45360   0.00000  Uiso   1.00
N128   N     0.48904   0.75293   0.41091   0.00000  Uiso   1.00
C129   C     0.47037   0.55111   0.65839   0.00000  Uiso   1.00
C130   C     0.47657   0.58214   0.74671   0.00000  Uiso   1.00
H131   H     0.43828   0.53376   0.65189   0.00000  Uiso   1.00
H132   H     0.44917   0.58864   0.80557   0.00000  Uiso   1.00
N133   N     0.36030   0.49824   0.06064   0.00000  Uiso   1.00
C134   C     0.30951   0.54502   0.93789   0.00000  Uiso   1.00
H135   H     0.31169   0.57390   0.99323   0.00000  Uiso   1.00
C136   C     0.28308   0.54923   0.83998   0.00000  Uiso   1.00
C137   C     0.27918   0.51348   0.76347   0.00000  Uiso   1.00
N138   N     0.25199   0.51966   0.66400   0.00000  Uiso   1.00
H139   H     0.26557   0.58054   0.82281   0.00000  Uiso   1.00
C140   C     0.32880   0.46862   0.88370   0.00000  Uiso   1.00
C141   C     0.33249   0.50437   0.96127   0.00000  Uiso   1.00
H142   H     0.34663   0.43740   0.90011   0.00000  Uiso   1.00
C143   C     0.30229   0.47299   0.78532   0.00000  Uiso   1.00
H144   H     0.29970   0.44510   0.72620   0.00000  Uiso   1.00
C145   C     0.53675   0.94137   0.11394   0.00000  Uiso   1.00
C146   C     0.53255   0.19364   0.69223   0.00000  Uiso   1.00
C147   C     0.51790   0.12797   0.87669   0.00000  Uiso   1.00
C148   C     0.51045   0.09972   0.97839   0.00000  Uiso   1.00
C149   C     0.54868   0.08227   0.03176   0.00000  Uiso   1.00
C150   C     0.54458   0.05243   0.12178   0.00000  Uiso   1.00
C151   C     0.50199   0.04035   0.16673   0.00000  Uiso   1.00
H152   H     0.55934   0.19457   0.75440   0.00000  Uiso   1.00
H153   H     0.55263   0.13387   0.85279   0.00000  Uiso   1.00
H154   H     0.58217   0.09018   0.00046   0.00000  Uiso   1.00
H155   H     0.57533   0.03732   0.15373   0.00000  Uiso   1.00
C156   C     0.53841   0.21832   0.59194   0.00000  Uiso   1.00
C157   C     0.50412   0.22023   0.51079   0.00000  Uiso   1.00
H158   H     0.56948   0.23666   0.57758   0.00000  Uiso   1.00
C159   C     0.45785   0.17152   0.63037   0.00000  Uiso   1.00
C160   C     0.49225   0.16941   0.71182   0.00000  Uiso   1.00
N161   N     0.48525   0.14273   0.81286   0.00000  Uiso   1.00
C162   C     0.46748   0.08811   0.02027   0.00000  Uiso   1.00
H163   H     0.42672   0.15329   0.64476   0.00000  Uiso   1.00
H164   H     0.42992   0.04835   0.14121   0.00000  Uiso   1.00
H165   H     0.43749   0.10074   0.97831   0.00000  Uiso   1.00
C166   C     0.46364   0.19671   0.53028   0.00000  Uiso   1.00
H167   H     0.43675   0.19809   0.46808   0.00000  Uiso   1.00
C168   C     0.63453   0.47291   0.14323   0.00000  Uiso   1.00
C169   C     0.60355   0.48166   0.23897   0.00000  Uiso   1.00
C170   C     0.59406   0.44661   0.31528   0.00000  Uiso   1.00
C171   C     0.56264   0.45248   0.40253   0.00000  Uiso   1.00
C172   C     0.54052   0.49424   0.41801   0.00000  Uiso   1.00
H173   H     0.65182   0.44090   0.14305   0.00000  Uiso   1.00
H174   H     0.60978   0.41388   0.30463   0.00000  Uiso   1.00
H175   H     0.55441   0.42331   0.45360   0.00000  Uiso   1.00
N176   N     0.51096   0.24707   0.41091   0.00000  Uiso   1.00
C177   C     0.52963   0.44889   0.65839   0.00000  Uiso   1.00
C178   C     0.52343   0.41786   0.74671   0.00000  Uiso   1.00
H179   H     0.56172   0.46624   0.65189   0.00000  Uiso   1.00
H180   H     0.55083   0.41136   0.80557   0.00000  Uiso   1.00
N181   N     0.63970   0.50176   0.06064   0.00000  Uiso   1.00
C182   C     0.69049   0.45498   0.93789   0.00000  Uiso   1.00
H183   H     0.68831   0.42610   0.99323   0.00000  Uiso   1.00
C184   C     0.71692   0.45077   0.83998   0.00000  Uiso   1.00
C185   C     0.72082   0.48652   0.76347   0.00000  Uiso   1.00
N186   N     0.74801   0.48034   0.66400   0.00000  Uiso   1.00
H187   H     0.73443   0.41946   0.82281   0.00000  Uiso   1.00
C188   C     0.67120   0.53138   0.88370   0.00000  Uiso   1.00
C189   C     0.66751   0.49563   0.96127   0.00000  Uiso   1.00
H190   H     0.65337   0.56260   0.90011   0.00000  Uiso   1.00
C191   C     0.69771   0.52701   0.78532   0.00000  Uiso   1.00
H192   H     0.70030   0.55490   0.72620   0.00000  Uiso   1.00
C193   C     0.44137   0.03675   0.38606   0.00000  Uiso   1.00
C194   C     0.69364   0.03255   0.80777   0.00000  Uiso   1.00
C195   C     0.62797   0.01790   0.62331   0.00000  Uiso   1.00
C196   C     0.59972   0.01045   0.52161   0.00000  Uiso   1.00
C197   C     0.58227   0.04868   0.46824   0.00000  Uiso   1.00
C198   C     0.55243   0.04458   0.37822   0.00000  Uiso   1.00
C199   C     0.54035   0.00199   0.33327   0.00000  Uiso   1.00
H200   H     0.69457   0.05934   0.74560   0.00000  Uiso   1.00
H201   H     0.63387   0.05263   0.64721   0.00000  Uiso   1.00
H202   H     0.59018   0.08217   0.49954   0.00000  Uiso   1.00
H203   H     0.53732   0.07533   0.34627   0.00000  Uiso   1.00
C204   C     0.71832   0.03841   0.90806   0.00000  Uiso   1.00
C205   C     0.72023   0.00412   0.98921   0.00000  Uiso   1.00
H206   H     0.73666   0.06948   0.92242   0.00000  Uiso   1.00
C207   C     0.67152   0.95785   0.86963   0.00000  Uiso   1.00
C208   C     0.66941   0.99225   0.78818   0.00000  Uiso   1.00
N209   N     0.64273   0.98525   0.68714   0.00000  Uiso   1.00
C210   C     0.58811   0.96748   0.47973   0.00000  Uiso   1.00
H211   H     0.65329   0.92672   0.85524   0.00000  Uiso   1.00
H212   H     0.54835   0.92992   0.35879   0.00000  Uiso   1.00
H213   H     0.60074   0.93749   0.52169   0.00000  Uiso   1.00
C214   C     0.69671   0.96364   0.96972   0.00000  Uiso   1.00
H215   H     0.69809   0.93675   0.03192   0.00000  Uiso   1.00
C216   C     0.97291   0.13453   0.35677   0.00000  Uiso   1.00
C217   C     0.98166   0.10355   0.26103   0.00000  Uiso   1.00
C218   C     0.94661   0.09406   0.18472   0.00000  Uiso   1.00
C219   C     0.95248   0.06264   0.09747   0.00000  Uiso   1.00
C220   C     0.99424   0.04052   0.08199   0.00000  Uiso   1.00
H221   H     0.94090   0.15182   0.35695   0.00000  Uiso   1.00
H222   H     0.91388   0.10978   0.19537   0.00000  Uiso   1.00
H223   H     0.92331   0.05441   0.04640   0.00000  Uiso   1.00
N224   N     0.74707   0.01096   0.08909   0.00000  Uiso   1.00
C225   C     0.94889   0.02963   0.84161   0.00000  Uiso   1.00
C226   C     0.91786   0.02343   0.75329   0.00000  Uiso   1.00
H227   H     0.96624   0.06172   0.84811   0.00000  Uiso   1.00
H228   H     0.91136   0.05083   0.69443   0.00000  Uiso   1.00
N229   N     0.00176   0.13970   0.43936   0.00000  Uiso   1.00
C230   C     0.95498   0.19049   0.56211   0.00000  Uiso   1.00
H231   H     0.92610   0.18831   0.50677   0.00000  Uiso   1.00
C232   C     0.95077   0.21692   0.66002   0.00000  Uiso   1.00
C233   C     0.98652   0.22082   0.73653   0.00000  Uiso   1.00
N234   N     0.98034   0.24801   0.83600   0.00000  Uiso   1.00
H235   H     0.91946   0.23443   0.67719   0.00000  Uiso   1.00
C236   C     0.03138   0.17120   0.61630   0.00000  Uiso   1.00
C237   C     0.99563   0.16751   0.53873   0.00000  Uiso   1.00
H238   H     0.06260   0.15337   0.59989   0.00000  Uiso   1.00
C239   C     0.02701   0.19771   0.71468   0.00000  Uiso   1.00
H240   H     0.05490   0.20030   0.77380   0.00000  Uiso   1.00
C241   C     0.55863   0.96325   0.38606   0.00000  Uiso   1.00
C242   C     0.30636   0.96745   0.80777   0.00000  Uiso   1.00
C243   C     0.37203   0.98210   0.62331   0.00000  Uiso   1.00
C244   C     0.40028   0.98955   0.52161   0.00000  Uiso   1.00
C245   C     0.41773   0.95132   0.46824   0.00000  Uiso   1.00
C246   C     0.44757   0.95542   0.37822   0.00000  Uiso   1.00
C247   C     0.45965   0.99801   0.33327   0.00000  Uiso   1.00
H248   H     0.30543   0.94066   0.74560   0.00000  Uiso   1.00
H249   H     0.36613   0.94737   0.64721   0.00000  Uiso   1.00
H250   H     0.40982   0.91783   0.49954   0.00000  Uiso   1.00
H251   H     0.46268   0.92467   0.34627   0.00000  Uiso   1.00
C252   C     0.28168   0.96159   0.90806   0.00000  Uiso   1.00
C253   C     0.27977   0.99588   0.98921   0.00000  Uiso   1.00
H254   H     0.26334   0.93052   0.92242   0.00000  Uiso   1.00
C255   C     0.32848   0.04215   0.86963   0.00000  Uiso   1.00
C256   C     0.33059   0.00775   0.78818   0.00000  Uiso   1.00
N257   N     0.35727   0.01475   0.68714   0.00000  Uiso   1.00
C258   C     0.41189   0.03252   0.47973   0.00000  Uiso   1.00
H259   H     0.34671   0.07328   0.85524   0.00000  Uiso   1.00
H260   H     0.45165   0.07008   0.35879   0.00000  Uiso   1.00
H261   H     0.39926   0.06251   0.52169   0.00000  Uiso   1.00
C262   C     0.30329   0.03636   0.96972   0.00000  Uiso   1.00
H263   H     0.30191   0.06325   0.03192   0.00000  Uiso   1.00
C264   C     0.02709   0.86547   0.35677   0.00000  Uiso   1.00
C265   C     0.01834   0.89645   0.26103   0.00000  Uiso   1.00
C266   C     0.05339   0.90594   0.18472   0.00000  Uiso   1.00
C267   C     0.04752   0.93736   0.09747   0.00000  Uiso   1.00
C268   C     0.00576   0.95948   0.08199   0.00000  Uiso   1.00
H269   H     0.05910   0.84818   0.35695   0.00000  Uiso   1.00
H270   H     0.08612   0.89022   0.19537   0.00000  Uiso   1.00
H271   H     0.07669   0.94559   0.04640   0.00000  Uiso   1.00
N272   N     0.25293   0.98904   0.08909   0.00000  Uiso   1.00
C273   C     0.05111   0.97037   0.84161   0.00000  Uiso   1.00
C274   C     0.08214   0.97657   0.75329   0.00000  Uiso   1.00
H275   H     0.03376   0.93828   0.84811   0.00000  Uiso   1.00
H276   H     0.08864   0.94917   0.69443   0.00000  Uiso   1.00
N277   N     0.99824   0.86030   0.43936   0.00000  Uiso   1.00
C278   C     0.04502   0.80951   0.56211   0.00000  Uiso   1.00
H279   H     0.07390   0.81169   0.50677   0.00000  Uiso   1.00
C280   C     0.04923   0.78308   0.66002   0.00000  Uiso   1.00
C281   C     0.01348   0.77918   0.73653   0.00000  Uiso   1.00
N282   N     0.01966   0.75199   0.83600   0.00000  Uiso   1.00
H283   H     0.08054   0.76557   0.67719   0.00000  Uiso   1.00
C284   C     0.96862   0.82880   0.61630   0.00000  Uiso   1.00
C285   C     0.00437   0.83249   0.53873   0.00000  Uiso   1.00
H286   H     0.93740   0.84663   0.59989   0.00000  Uiso   1.00
C287   C     0.97299   0.80229   0.71468   0.00000  Uiso   1.00
H288   H     0.94510   0.79970   0.77380   0.00000  Uiso   1.00
C289   C     0.96325   0.44137   0.61394   0.00000  Uiso   1.00
C290   C     0.96745   0.69364   0.19223   0.00000  Uiso   1.00
C291   C     0.98210   0.62797   0.37669   0.00000  Uiso   1.00
C292   C     0.98955   0.59972   0.47839   0.00000  Uiso   1.00
C293   C     0.95132   0.58227   0.53176   0.00000  Uiso   1.00
C294   C     0.95542   0.55243   0.62178   0.00000  Uiso   1.00
C295   C     0.99801   0.54035   0.66673   0.00000  Uiso   1.00
H296   H     0.94066   0.69457   0.25440   0.00000  Uiso   1.00
H297   H     0.94737   0.63387   0.35279   0.00000  Uiso   1.00
H298   H     0.91783   0.59018   0.50046   0.00000  Uiso   1.00
H299   H     0.92467   0.53732   0.65373   0.00000  Uiso   1.00
C300   C     0.96159   0.71832   0.09194   0.00000  Uiso   1.00
C301   C     0.99588   0.72023   0.01079   0.00000  Uiso   1.00
H302   H     0.93052   0.73666   0.07758   0.00000  Uiso   1.00
C303   C     0.04215   0.67152   0.13037   0.00000  Uiso   1.00
C304   C     0.00775   0.66941   0.21182   0.00000  Uiso   1.00
N305   N     0.01475   0.64273   0.31286   0.00000  Uiso   1.00
C306   C     0.03252   0.58811   0.52027   0.00000  Uiso   1.00
H307   H     0.07328   0.65329   0.14476   0.00000  Uiso   1.00
H308   H     0.07008   0.54835   0.64121   0.00000  Uiso   1.00
H309   H     0.06251   0.60074   0.47831   0.00000  Uiso   1.00
C310   C     0.03636   0.69671   0.03028   0.00000  Uiso   1.00
H311   H     0.06325   0.69809   0.96808   0.00000  Uiso   1.00
C312   C     0.86547   0.97291   0.64323   0.00000  Uiso   1.00
C313   C     0.89645   0.98166   0.73897   0.00000  Uiso   1.00
C314   C     0.90594   0.94661   0.81528   0.00000  Uiso   1.00
C315   C     0.93736   0.95248   0.90253   0.00000  Uiso   1.00
C316   C     0.95948   0.99424   0.91801   0.00000  Uiso   1.00
H317   H     0.84818   0.94090   0.64305   0.00000  Uiso   1.00
H318   H     0.89022   0.91388   0.80463   0.00000  Uiso   1.00
H319   H     0.94559   0.92331   0.95360   0.00000  Uiso   1.00
N320   N     0.98904   0.74707   0.91091   0.00000  Uiso   1.00
C321   C     0.97037   0.94889   0.15839   0.00000  Uiso   1.00
C322   C     0.97657   0.91786   0.24671   0.00000  Uiso   1.00
H323   H     0.93828   0.96624   0.15189   0.00000  Uiso   1.00
H324   H     0.94917   0.91136   0.30557   0.00000  Uiso   1.00
N325   N     0.86030   0.00176   0.56064   0.00000  Uiso   1.00
C326   C     0.80951   0.95498   0.43789   0.00000  Uiso   1.00
H327   H     0.81169   0.92610   0.49323   0.00000  Uiso   1.00
C328   C     0.78308   0.95077   0.33998   0.00000  Uiso   1.00
C329   C     0.77918   0.98652   0.26347   0.00000  Uiso   1.00
N330   N     0.75199   0.98034   0.16400   0.00000  Uiso   1.00
H331   H     0.76557   0.91946   0.32281   0.00000  Uiso   1.00
C332   C     0.82880   0.03138   0.38370   0.00000  Uiso   1.00
C333   C     0.83249   0.99563   0.46127   0.00000  Uiso   1.00
H334   H     0.84663   0.06260   0.40011   0.00000  Uiso   1.00
C335   C     0.80229   0.02701   0.28532   0.00000  Uiso   1.00
H336   H     0.79970   0.05490   0.22620   0.00000  Uiso   1.00
C337   C     0.03675   0.55863   0.61394   0.00000  Uiso   1.00
C338   C     0.03255   0.30636   0.19223   0.00000  Uiso   1.00
C339   C     0.01790   0.37203   0.37669   0.00000  Uiso   1.00
C340   C     0.01045   0.40028   0.47839   0.00000  Uiso   1.00
C341   C     0.04868   0.41773   0.53176   0.00000  Uiso   1.00
C342   C     0.04458   0.44757   0.62178   0.00000  Uiso   1.00
C343   C     0.00199   0.45965   0.66673   0.00000  Uiso   1.00
H344   H     0.05934   0.30543   0.25440   0.00000  Uiso   1.00
H345   H     0.05263   0.36613   0.35279   0.00000  Uiso   1.00
H346   H     0.08217   0.40982   0.50046   0.00000  Uiso   1.00
H347   H     0.07533   0.46268   0.65373   0.00000  Uiso   1.00
C348   C     0.03841   0.28168   0.09194   0.00000  Uiso   1.00
C349   C     0.00412   0.27977   0.01079   0.00000  Uiso   1.00
H350   H     0.06948   0.26334   0.07758   0.00000  Uiso   1.00
C351   C     0.95785   0.32848   0.13037   0.00000  Uiso   1.00
C352   C     0.99225   0.33059   0.21182   0.00000  Uiso   1.00
N353   N     0.98525   0.35727   0.31286   0.00000  Uiso   1.00
C354   C     0.96748   0.41189   0.52027   0.00000  Uiso   1.00
H355   H     0.92672   0.34671   0.14476   0.00000  Uiso   1.00
H356   H     0.92992   0.45165   0.64121   0.00000  Uiso   1.00
H357   H     0.93749   0.39926   0.47831   0.00000  Uiso   1.00
C358   C     0.96364   0.30329   0.03028   0.00000  Uiso   1.00
H359   H     0.93675   0.30191   0.96808   0.00000  Uiso   1.00
C360   C     0.13453   0.02709   0.64323   0.00000  Uiso   1.00
C361   C     0.10355   0.01834   0.73897   0.00000  Uiso   1.00
C362   C     0.09406   0.05339   0.81528   0.00000  Uiso   1.00
C363   C     0.06264   0.04752   0.90253   0.00000  Uiso   1.00
C364   C     0.04052   0.00576   0.91801   0.00000  Uiso   1.00
H365   H     0.15182   0.05910   0.64305   0.00000  Uiso   1.00
H366   H     0.10978   0.08612   0.80463   0.00000  Uiso   1.00
H367   H     0.05441   0.07669   0.95360   0.00000  Uiso   1.00
N368   N     0.01096   0.25293   0.91091   0.00000  Uiso   1.00
C369   C     0.02963   0.05111   0.15839   0.00000  Uiso   1.00
C370   C     0.02343   0.08214   0.24671   0.00000  Uiso   1.00
H371   H     0.06172   0.03376   0.15189   0.00000  Uiso   1.00
H372   H     0.05083   0.08864   0.30557   0.00000  Uiso   1.00
N373   N     0.13970   0.99824   0.56064   0.00000  Uiso   1.00
C374   C     0.19049   0.04502   0.43789   0.00000  Uiso   1.00
H375   H     0.18831   0.07390   0.49323   0.00000  Uiso   1.00
C376   C     0.21692   0.04923   0.33998   0.00000  Uiso   1.00
C377   C     0.22082   0.01348   0.26347   0.00000  Uiso   1.00
N378   N     0.24801   0.01966   0.16400   0.00000  Uiso   1.00
H379   H     0.23443   0.08054   0.32281   0.00000  Uiso   1.00
C380   C     0.17120   0.96862   0.38370   0.00000  Uiso   1.00
C381   C     0.16751   0.00437   0.46127   0.00000  Uiso   1.00
H382   H     0.15337   0.93740   0.40011   0.00000  Uiso   1.00
C383   C     0.19771   0.97299   0.28532   0.00000  Uiso   1.00
H384   H     0.20030   0.94510   0.22620   0.00000  Uiso   1.00
C385   C     0.50000   0.00000   0.25000   0.00000  Uiso   1.00
C386   C     0.00000   0.50000   0.75000   0.00000  Uiso   1.00
C387   C     0.50000   0.50000   0.50000   0.00000  Uiso   1.00
C388   C     0.00000   0.00000   0.00000   0.00000  Uiso   1.00
loop_
_geom_bond_atom_site_label_1
_geom_bond_atom_site_label_2
_geom_bond_distance
_geom_bond_site_symmetry_2
_ccdc_geom_bond_type
C1     C55     1.413   .     S
C1     C66     1.410   .     D
C1     H68     1.082   .     S
C2     H8      1.079   .     S
C2     C12     1.397   .     S
C2     C16     1.412   .     D
C3     C4      1.475   .     S
C3     H9      1.081   .     S
C3     N17     1.300   .     D
C4     C5      1.394   1_554 D
C4     C18     1.408   1_554 S
C5     C6      1.384   .     S
C5     H10     1.084   .     S
C5     C4      1.394   1_556 D
C6     C7      1.414   .     D
C6     H11     1.082   .     S
C7     C49     1.413   .     S
C7     C386    1.546   .     S
C12    C13     1.394   .     D
C12    H14     1.082   .     S
C13    C22     1.406   .     S
C13    N32     1.432   .     S
C15    C16     1.399   .     S
C15    H19     1.082   .     S
C15    C22     1.403   .     D
C16    N17     1.441   .     S
C18    C49     1.410   .     D
C18    C4      1.408   1_556 S
C18    H21     1.083   1_556 S
H20    C49     1.082   .     S
H21    C18     1.083   1_554 S
C22    H23     1.082   .     S
C24    C25     1.475   .     S
C24    H29     1.078   .     S
C24    N37     1.302   .     D
C25    C26     1.400   .     D
C25    C178    1.401   .     S
C26    C27     1.395   .     S
C26    H30     1.083   .     S
C27    C28     1.412   .     D
C27    H31     1.080   .     S
C28    C387    1.549   .     S
C28    C177    1.415   .     S
N32    N138    1.272   .     D
C33    C34     1.398   .     S
C33    H35     1.084   .     S
C33    C124    1.415   .     D
C34    H36     1.084   .     S
C34    C121    1.401   .     D
N37    C45     1.440   1_556 S
C38    H39     1.077   .     S
C38    C40     1.397   .     S
C38    C45     1.411   .     D
C40    C41     1.394   .     D
C40    H43     1.082   .     S
C41    N42     1.431   .     S
C41    C47     1.405   .     S
N42    N176    1.272   .     D
C44    C45     1.402   .     S
C44    H46     1.083   .     S
C44    C47     1.403   .     D
C45    N37     1.440   1_554 S
C47    H48     1.082   .     S
C50    H56     1.079   .     S
C50    C60     1.397   .     S
C50    C64     1.412   .     D
C51    C52     1.475   .     S
C51    H57     1.081   .     S
C51    N65     1.300   .     D
C52    C53     1.394   1_554 D
C52    C66     1.408   1_554 S
C53    C54     1.384   .     S
C53    H58     1.084   .     S
C53    C52     1.394   1_556 D
C54    C55     1.414   .     D
C54    H59     1.082   .     S
C55    C386    1.546   1_655 S
C60    C61     1.394   .     D
C60    H62     1.082   .     S
C61    C70     1.406   .     S
C61    N80     1.432   .     S
C63    C64     1.399   .     S
C63    H67     1.082   .     S
C63    C70     1.403   .     D
C64    N65     1.441   .     S
C66    C52     1.408   1_556 S
C66    H69     1.083   1_556 S
H69    C66     1.083   1_554 S
C70    H71     1.082   .     S
C72    C73     1.475   .     S
C72    H77     1.078   .     S
C72    N85     1.302   .     D
C73    C74     1.400   .     S
C73    C130    1.401   .     D
C74    C75     1.395   .     D
C74    H78     1.083   .     S
C75    C76     1.412   .     S
C75    H79     1.080   .     S
C76    C387    1.549   .     S
C76    C129    1.415   .     D
N80    N186    1.272   .     D
C81    C82     1.398   .     S
C81    H83     1.084   .     S
C81    C172    1.415   .     D
C82    H84     1.084   .     S
C82    C169    1.401   .     D
N85    C93     1.440   1_556 S
C86    H87     1.077   .     S
C86    C88     1.397   .     D
C86    C93     1.411   .     S
C88    C89     1.394   .     S
C88    H91     1.082   .     S
C89    N90     1.431   .     S
C89    C95     1.405   .     D
N90    N128    1.272   .     D
C92    C93     1.402   .     D
C92    H94     1.083   .     S
C92    C95     1.403   .     S
C93    N85     1.440   1_554 S
C95    H96     1.082   .     S
C97    C151    1.413   .     S
C97    C162    1.410   .     D
C97    H164    1.082   .     S
C98    H104    1.079   .     S
C98    C108    1.397   .     D
C98    C112    1.412   .     S
C99    C100    1.475   .     S
C99    H105    1.081   .     S
C99    N113    1.300   .     D
C100   C101    1.394   1_556 D
C100   C114    1.408   1_556 S
C101   C102    1.384   .     S
C101   H106    1.084   .     S
C101   C100    1.394   1_554 D
C102   C103    1.414   .     D
C102   H107    1.082   .     S
C103   C145    1.413   .     S
C103   C385    1.546   1_565 S
C108   C109    1.394   .     S
C108   H110    1.082   .     S
C109   C118    1.406   .     D
C109   N128    1.432   .     S
C111   C112    1.399   .     D
C111   H115    1.082   .     S
C111   C118    1.403   .     S
C112   N113    1.441   .     S
C114   C145    1.410   .     D
C114   C100    1.408   1_554 S
C114   H117    1.083   1_554 S
H116   C145    1.082   .     S
H117   C114    1.083   1_556 S
C118   H119    1.082   .     S
C120   C121    1.475   .     S
C120   H125    1.078   .     S
C120   N133    1.302   .     D
C121   C122    1.400   .     S
C122   C123    1.395   .     D
C122   H126    1.083   .     S
C123   C124    1.412   .     S
C123   H127    1.080   .     S
C124   C387    1.549   .     S
C129   C130    1.398   .     S
C129   H131    1.084   .     S
C130   H132    1.084   .     S
N133   C141    1.440   1_554 S
C134   H135    1.077   .     S
C134   C136    1.397   .     D
C134   C141    1.411   .     S
C136   C137    1.394   .     S
C136   H139    1.082   .     S
C137   N138    1.431   .     S
C137   C143    1.405   .     D
C140   C141    1.402   .     D
C140   H142    1.083   .     S
C140   C143    1.403   .     S
C141   N133    1.440   1_556 S
C143   H144    1.082   .     S
C146   H152    1.079   .     S
C146   C156    1.397   .     D
C146   C160    1.412   .     S
C147   C148    1.475   .     S
C147   H153    1.081   .     S
C147   N161    1.300   .     D
C148   C149    1.394   1_556 D
C148   C162    1.408   1_556 S
C149   C150    1.384   .     S
C149   H154    1.084   .     S
C149   C148    1.394   1_554 D
C150   C151    1.414   .     D
C150   H155    1.082   .     S
C151   C385    1.546   .     S
C156   C157    1.394   .     S
C156   H158    1.082   .     S
C157   C166    1.406   .     D
C157   N176    1.432   .     S
C159   C160    1.399   .     D
C159   H163    1.082   .     S
C159   C166    1.403   .     S
C160   N161    1.441   .     S
C162   C148    1.408   1_554 S
C162   H165    1.083   1_554 S
H165   C162    1.083   1_556 S
C166   H167    1.082   .     S
C168   C169    1.475   .     S
C168   H173    1.078   .     S
C168   N181    1.302   .     D
C169   C170    1.400   .     S
C170   C171    1.395   .     D
C170   H174    1.083   .     S
C171   C172    1.412   .     S
C171   H175    1.080   .     S
C172   C387    1.549   .     S
C177   C178    1.398   .     D
C177   H179    1.084   .     S
C178   H180    1.084   .     S
N181   C189    1.440   1_554 S
C182   H183    1.077   .     S
C182   C184    1.397   .     D
C182   C189    1.411   .     S
C184   C185    1.394   .     S
C184   H187    1.082   .     S
C185   N186    1.431   .     S
C185   C191    1.405   .     D
C188   C189    1.402   .     D
C188   H190    1.083   .     S
C188   C191    1.403   .     S
C189   N181    1.440   1_556 S
C191   H192    1.082   .     S
C193   C258    1.410   .     D
C193   H260    1.082   .     S
C193   C247    1.413   1_545 S
C194   H200    1.079   .     S
C194   C204    1.397   .     S
C194   C208    1.412   1_545 D
C195   C196    1.475   .     S
C195   H201    1.081   .     S
C195   N209    1.300   1_545 D
C196   C197    1.394   .     D
C196   C210    1.408   1_545 S
C197   C198    1.384   .     S
C197   H202    1.084   .     S
C198   C199    1.414   .     D
C198   H203    1.082   .     S
C199   C385    1.546   .     S
C199   C241    1.413   1_545 S
C204   C205    1.394   .     D
C204   H206    1.082   .     S
C205   C214    1.406   1_545 S
C205   N224    1.432   1_556 S
C207   C208    1.399   .     S
C207   H211    1.082   .     S
C207   C214    1.403   .     D
C208   N209    1.441   .     S
C208   C194    1.412   1_565 D
N209   C195    1.300   1_565 D
C210   H213    1.083   .     S
C210   C241    1.410   .     D
C210   C196    1.408   1_565 S
H212   C241    1.082   .     S
C214   C205    1.406   1_565 S
C214   H215    1.082   1_556 S
H215   C214    1.082   1_554 S
C216   C217    1.475   .     S
C216   H221    1.078   .     S
C216   N229    1.302   1_655 D
C217   C218    1.400   .     D
C217   C370    1.401   1_655 S
C218   C219    1.395   .     S
C218   H222    1.083   .     S
C219   C220    1.412   .     D
C219   H223    1.080   .     S
C220   C388    1.549   1_655 S
C220   C369    1.415   1_655 S
N224   C205    1.432   1_554 S
N224   N330    1.272   1_545 D
C225   C226    1.398   .     D
C225   H227    1.084   .     S
C225   C316    1.415   1_545 S
C226   H228    1.084   .     S
C226   C313    1.401   1_545 S
N229   C216    1.302   1_455 D
N229   C237    1.440   1_455 S
C230   H231    1.077   .     S
C230   C232    1.397   .     S
C230   C237    1.411   .     D
C232   C233    1.394   .     D
C232   H235    1.082   .     S
C233   N234    1.431   .     S
C233   C239    1.405   1_655 S
N234   N368    1.272   1_655 D
C236   H238    1.083   .     S
C236   C239    1.403   .     D
C236   C237    1.402   1_455 S
C237   N229    1.440   1_655 S
C237   C236    1.402   1_655 S
C239   H240    1.082   .     S
C239   C233    1.405   1_455 S
C241   C199    1.413   1_565 S
C242   H248    1.079   .     S
C242   C252    1.397   .     S
C242   C256    1.412   1_565 D
C243   C244    1.475   .     S
C243   H249    1.081   .     S
C243   N257    1.300   1_565 D
C244   C245    1.394   .     D
C244   C258    1.408   1_565 S
C245   C246    1.384   .     S
C245   H250    1.084   .     S
C246   C247    1.414   .     D
C246   H251    1.082   .     S
C247   C193    1.413   1_565 S
C247   C385    1.546   1_565 S
C252   C253    1.394   .     D
C252   H254    1.082   .     S
C253   C262    1.406   1_565 S
C253   N272    1.432   1_556 S
C255   C256    1.399   .     S
C255   H259    1.082   .     S
C255   C262    1.403   .     D
C256   N257    1.441   .     S
C256   C242    1.412   1_545 D
N257   C243    1.300   1_545 D
C258   H261    1.083   .     S
C258   C244    1.408   1_545 S
C262   C253    1.406   1_545 S
C262   H263    1.082   1_556 S
H263   C262    1.082   1_554 S
C264   C265    1.475   .     S
C264   H269    1.078   .     S
C264   N277    1.302   1_455 D
C265   C266    1.400   .     D
C265   C322    1.401   1_455 S
C266   C267    1.395   .     S
C266   H270    1.083   .     S
C267   C268    1.412   .     D
C267   H271    1.080   .     S
C268   C388    1.549   1_565 S
C268   C321    1.415   1_455 S
N272   C253    1.432   1_554 S
N272   N378    1.272   1_565 D
C273   C274    1.398   .     D
C273   H275    1.084   .     S
C273   C364    1.415   1_565 S
C274   H276    1.084   .     S
C274   C361    1.401   1_565 S
N277   C264    1.302   1_655 D
N277   C285    1.440   1_655 S
C278   H279    1.077   .     S
C278   C280    1.397   .     S
C278   C285    1.411   .     D
C280   C281    1.394   .     D
C280   H283    1.082   .     S
C281   N282    1.431   .     S
C281   C287    1.405   1_455 S
N282   N320    1.272   1_455 D
C284   H286    1.083   .     S
C284   C287    1.403   .     D
C284   C285    1.402   1_655 S
C285   N277    1.440   1_455 S
C285   C284    1.402   1_455 S
C287   H288    1.082   .     S
C287   C281    1.405   1_655 S
C289   C354    1.410   .     D
C289   H356    1.082   .     S
C289   C343    1.413   1_655 S
C290   H296    1.079   .     S
C290   C300    1.397   .     S
C290   C304    1.412   1_655 D
C291   C292    1.475   .     S
C291   H297    1.081   .     S
C291   N305    1.300   1_655 D
C292   C293    1.394   .     D
C292   C306    1.408   1_655 S
C293   C294    1.384   .     S
C293   H298    1.084   .     S
C294   C295    1.414   .     D
C294   H299    1.082   .     S
C295   C337    1.413   1_655 S
C295   C386    1.546   1_655 S
C300   C301    1.394   .     D
C300   H302    1.082   .     S
C301   C310    1.406   1_655 S
C301   N320    1.432   1_554 S
C303   C304    1.399   .     S
C303   H307    1.082   .     S
C303   C310    1.403   .     D
C304   N305    1.441   .     S
C304   C290    1.412   1_455 D
N305   C291    1.300   1_455 D
C306   H309    1.083   .     S
C306   C337    1.410   .     D
C306   C292    1.408   1_455 S
H308   C337    1.082   .     S
C310   C301    1.406   1_455 S
C310   H311    1.082   1_554 S
H311   C310    1.082   1_556 S
C312   C313    1.475   .     S
C312   H317    1.078   .     S
C312   N325    1.302   1_565 D
C313   C314    1.400   .     D
C313   C226    1.401   1_565 S
C314   C315    1.395   .     S
C314   H318    1.083   .     S
C315   C316    1.412   .     D
C315   H319    1.080   .     S
C316   C225    1.415   1_565 S
C316   C388    1.549   1_666 S
N320   N282    1.272   1_655 D
N320   C301    1.432   1_556 S
C321   C322    1.398   .     D
C321   H323    1.084   .     S
C321   C268    1.415   1_655 S
C322   H324    1.084   .     S
C322   C265    1.401   1_655 S
N325   C312    1.302   1_545 D
N325   C333    1.440   1_545 S
C326   H327    1.077   .     S
C326   C328    1.397   .     S
C326   C333    1.411   .     D
C328   C329    1.394   .     D
C328   H331    1.082   .     S
C329   N330    1.431   .     S
C329   C335    1.405   1_565 S
N330   N224    1.272   1_565 D
C332   H334    1.083   .     S
C332   C335    1.403   .     D
C332   C333    1.402   1_545 S
C333   N325    1.440   1_565 S
C333   C332    1.402   1_565 S
C335   H336    1.082   .     S
C335   C329    1.405   1_545 S
C337   C295    1.413   1_455 S
C338   H344    1.079   .     S
C338   C348    1.397   .     S
C338   C352    1.412   1_455 D
C339   C340    1.475   .     S
C339   H345    1.081   .     S
C339   N353    1.300   1_455 D
C340   C341    1.394   .     D
C340   C354    1.408   1_455 S
C341   C342    1.384   .     S
C341   H346    1.084   .     S
C342   C343    1.414   .     D
C342   H347    1.082   .     S
C343   C386    1.546   .     S
C343   C289    1.413   1_455 S
C348   C349    1.394   .     D
C348   H350    1.082   .     S
C349   C358    1.406   1_455 S
C349   N368    1.432   1_554 S
C351   C352    1.399   .     S
C351   H355    1.082   .     S
C351   C358    1.403   .     D
C352   N353    1.441   .     S
C352   C338    1.412   1_655 D
N353   C339    1.300   1_655 D
C354   H357    1.083   .     S
C354   C340    1.408   1_655 S
C358   C349    1.406   1_655 S
C358   H359    1.082   1_554 S
H359   C358    1.082   1_556 S
C360   C361    1.475   .     S
C360   H365    1.078   .     S
C360   N373    1.302   1_545 D
C361   C362    1.400   .     D
C361   C274    1.401   1_545 S
C362   C363    1.395   .     S
C362   H366    1.083   .     S
C363   C364    1.412   .     D
C363   H367    1.080   .     S
C364   C273    1.415   1_545 S
C364   C388    1.549   1_556 S
N368   N234    1.272   1_455 D
N368   C349    1.432   1_556 S
C369   C370    1.398   .     D
C369   H371    1.084   .     S
C369   C220    1.415   1_455 S
C370   H372    1.084   .     S
C370   C217    1.401   1_455 S
N373   C360    1.302   1_565 D
N373   C381    1.440   1_565 S
C374   H375    1.077   .     S
C374   C376    1.397   .     S
C374   C381    1.411   .     D
C376   C377    1.394   .     D
C376   H379    1.082   .     S
C377   N378    1.431   .     S
C377   C383    1.405   1_545 S
N378   N272    1.272   1_545 D
C380   H382    1.083   .     S
C380   C383    1.403   .     D
C380   C381    1.402   1_565 S
C381   N373    1.440   1_545 S
C381   C380    1.402   1_545 S
C383   H384    1.082   .     S
C383   C377    1.405   1_565 S
C385   C103    1.546   1_545 S
C385   C247    1.546   1_545 S
C386   C55     1.546   1_455 S
C386   C295    1.546   1_455 S
C388   C220    1.549   1_455 S
C388   C268    1.549   1_545 S
C388   C316    1.549   1_444 S
C388   C364    1.549   1_554 S
