data_909
_audit_creation_date              2023-09-08
_audit_creation_method            'Materials Studio'
_symmetry_space_group_name_H-M    'P1'
_symmetry_Int_Tables_number       1
_symmetry_cell_setting            triclinic
loop_
_symmetry_equiv_pos_as_xyz
  x,y,z
_cell_length_a                    51.3700
_cell_length_b                    51.4500
_cell_length_c                    8.0500
_cell_angle_alpha                 89.8800
_cell_angle_beta                  90.0200
_cell_angle_gamma                 120.0200
loop_
_atom_site_label
_atom_site_type_symbol
_atom_site_fract_x
_atom_site_fract_y
_atom_site_fract_z
_atom_site_U_iso_or_equiv
_atom_site_adp_type
_atom_site_occupancy
C1     C     0.25455   0.53930  -0.08985   0.00000  Uiso   1.00
C2     C     0.27002   0.54996  -0.24056   0.00000  Uiso   1.00
C3     C     0.29061   0.58050  -0.26287   0.00000  Uiso   1.00
C4     C     0.29611   0.60082  -0.13373   0.00000  Uiso   1.00
C5     C     0.28045   0.59043   0.01643   0.00000  Uiso   1.00
C6     C     0.25995   0.55993   0.03909   0.00000  Uiso   1.00
C7     C     0.02169   0.03405  -0.09576   0.00000  Uiso   1.00
C8     C     0.31836   0.63300  -0.15381   0.00000  Uiso   1.00
C9     C     0.14049   0.31782   0.15312   0.00000  Uiso   1.00
C10    C     0.15669   0.34921   0.13924   0.00000  Uiso   1.00
C11    C     0.14325   0.36495   0.07284   0.00000  Uiso   1.00
C12    C     0.11292   0.34817   0.02286   0.00000  Uiso   1.00
C13    C     0.09680   0.31733   0.03990   0.00000  Uiso   1.00
C14    C     0.11027   0.30122   0.10260   0.00000  Uiso   1.00
C15    C     0.09559   0.26826   0.10460   0.00000  Uiso   1.00
C16    C     0.09190   0.25264  -0.04403   0.00000  Uiso   1.00
C17    C     0.08009   0.22158  -0.04190   0.00000  Uiso   1.00
C18    C     0.07239   0.20578   0.10963   0.00000  Uiso   1.00
C19    C     0.07652   0.22159   0.25836   0.00000  Uiso   1.00
C20    C     0.08829   0.25265   0.25597   0.00000  Uiso   1.00
C21    C     0.16120   0.39786   0.06396   0.00000  Uiso   1.00
C22    C     0.06098   0.17315   0.11544   0.00000  Uiso   1.00
C23    C     0.17854   0.41194  -0.07728   0.00000  Uiso   1.00
C24    C     0.19660   0.44319  -0.08267   0.00000  Uiso   1.00
C25    C     0.19775   0.46070   0.05423   0.00000  Uiso   1.00
C26    C     0.18051   0.44640   0.19591   0.00000  Uiso   1.00
C27    C     0.16248   0.41517   0.20111   0.00000  Uiso   1.00
N28    N     0.09478   0.35777  -0.04181   0.00000  Uiso   1.00
C29    C     0.06774   0.33230  -0.05952   0.00000  Uiso   1.00
N30    N     0.06816   0.30739  -0.01025   0.00000  Uiso   1.00
C31    C     0.21703   0.49369   0.05328   0.00000  Uiso   1.00
C32    C     0.04129   0.27764   0.00309   0.00000  Uiso   1.00
C33    C     0.10281   0.38879  -0.08308   0.00000  Uiso   1.00
N34    N     0.23421   0.50753  -0.07317   0.00000  Uiso   1.00
N35    N     0.05722   0.15811  -0.02062   0.00000  Uiso   1.00
C36    C     0.04727   0.12664  -0.03489   0.00000  Uiso   1.00
C37    C     0.03681   0.10674   0.10144   0.00000  Uiso   1.00
C38    C     0.02858   0.07666   0.08004   0.00000  Uiso   1.00
C39    C     0.03117   0.06607  -0.07552   0.00000  Uiso   1.00
C40    C     0.03985   0.08537  -0.21284   0.00000  Uiso   1.00
C41    C     0.04809   0.11548  -0.19223   0.00000  Uiso   1.00
Au42   Au    0.03024   0.33069  -0.13981   0.00000  Uiso   1.00
C43    C     0.07707   0.39146  -0.15972   0.00000  Uiso   1.00
C44    C     0.02997   0.27119   0.18191   0.00000  Uiso   1.00
C45    C     0.04222   0.02337  -0.11147   0.00000  Uiso   1.00
C46    C     0.34977   0.64386  -0.15255   0.00000  Uiso   1.00
C47    C     0.53584   0.28801   0.21047   0.00000  Uiso   1.00
C48    C     0.54792   0.27484   0.10726   0.00000  Uiso   1.00
C49    C     0.57880   0.28521   0.10723   0.00000  Uiso   1.00
C50    C     0.59825   0.30933   0.20924   0.00000  Uiso   1.00
C51    C     0.58624   0.32324   0.30844   0.00000  Uiso   1.00
C52    C     0.55536   0.31278   0.30891   0.00000  Uiso   1.00
C53    C     0.02312   0.00978   0.42544   0.00000  Uiso   1.00
C54    C     0.63085   0.31956   0.21482   0.00000  Uiso   1.00
C55    C     0.31575   0.16326   0.34002   0.00000  Uiso   1.00
C56    C     0.34588   0.18328   0.29946   0.00000  Uiso   1.00
C57    C     0.35900   0.21422   0.33143   0.00000  Uiso   1.00
C58    C     0.34029   0.22427   0.40002   0.00000  Uiso   1.00
C59    C     0.31151   0.20429   0.45408   0.00000  Uiso   1.00
C60    C     0.29796   0.17328   0.41946   0.00000  Uiso   1.00
C61    C     0.26580   0.15150   0.44477   0.00000  Uiso   1.00
C62    C     0.24372   0.15577   0.36737   0.00000  Uiso   1.00
C63    C     0.21328   0.13464   0.38799   0.00000  Uiso   1.00
C64    C     0.20456   0.10856   0.48272   0.00000  Uiso   1.00
C65    C     0.22671   0.10406   0.55679   0.00000  Uiso   1.00
C66    C     0.25710   0.12541   0.53846   0.00000  Uiso   1.00
C67    C     0.39212   0.23281   0.32461   0.00000  Uiso   1.00
C68    C     0.17270   0.08540   0.50128   0.00000  Uiso   1.00
C69    C     0.40794   0.23355   0.18090   0.00000  Uiso   1.00
C70    C     0.43938   0.24889   0.18082   0.00000  Uiso   1.00
C71    C     0.45545   0.26364   0.32492   0.00000  Uiso   1.00
C72    C     0.43957   0.26321   0.46758   0.00000  Uiso   1.00
C73    C     0.40820   0.24767   0.46807   0.00000  Uiso   1.00
N74    N     0.34635   0.25261   0.43301   0.00000  Uiso   1.00
C75    C     0.32205   0.24896   0.51790   0.00000  Uiso   1.00
N76    N     0.30060   0.21983   0.53674   0.00000  Uiso   1.00
C77    C     0.48854   0.27862   0.33182   0.00000  Uiso   1.00
C78    C     0.27401   0.20947   0.64346   0.00000  Uiso   1.00
C79    C     0.37105   0.28164   0.37558   0.00000  Uiso   1.00
N80    N     0.50378   0.27553   0.21233   0.00000  Uiso   1.00
N81    N     0.15150   0.09116   0.46363   0.00000  Uiso   1.00
C82    C     0.11967   0.07041   0.46863   0.00000  Uiso   1.00
C83    C     0.10029   0.08154   0.43962   0.00000  Uiso   1.00
C84    C     0.06937   0.06212   0.42169   0.00000  Uiso   1.00
C85    C     0.05660   0.03076   0.43993   0.00000  Uiso   1.00
C86    C     0.07653   0.01984   0.47022   0.00000  Uiso   1.00
C87    C     0.10751   0.03922   0.48227   0.00000  Uiso   1.00
Au88   Au    0.31835   0.28303   0.60734   0.00000  Uiso   1.00
Cl89   Cl    0.31415   0.32166   0.70924   0.00000  Uiso   1.00
C90    C     0.35930   0.29739   0.26275   0.00000  Uiso   1.00
C91    C     0.28315   0.21987   0.82247   0.00000  Uiso   1.00
C92    C     0.00257   0.02020   0.43905   0.00000  Uiso   1.00
C93    C     0.64062   0.29855   0.22219   0.00000  Uiso   1.00
Cl94   Cl    1.10791   0.33166  -0.45790   0.00000  Uiso   1.00
C95    C     0.99071   0.01385  -0.09449   0.00000  Uiso   1.00
C96    C     0.69937   0.24255   0.28173   0.00000  Uiso   1.00
C97    C     0.68858   0.24650   0.12931   0.00000  Uiso   1.00
C98    C     0.67871   0.26725   0.11359   0.00000  Uiso   1.00
C99    C     0.68000   0.28470   0.25002   0.00000  Uiso   1.00
C100   C     0.69058   0.28076   0.40309   0.00000  Uiso   1.00
C101   C     0.70034   0.25996   0.41910   0.00000  Uiso   1.00
C102   C     0.97172   0.00159   0.40650   0.00000  Uiso   1.00
C103   C     0.67129   0.30786   0.23241   0.00000  Uiso   1.00
C104   C     0.82029   0.14064   0.39296   0.00000  Uiso   1.00
C105   C     0.80297   0.15468   0.38004   0.00000  Uiso   1.00
C106   C     0.77168   0.13844   0.40485   0.00000  Uiso   1.00
C107   C     0.75829   0.10742   0.43820   0.00000  Uiso   1.00
C108   C     0.77534   0.09355   0.45162   0.00000  Uiso   1.00
C109   C     0.80689   0.10992   0.43162   0.00000  Uiso   1.00
C110   C     0.82658   0.09709   0.45384   0.00000  Uiso   1.00
C111   C     0.84060   0.09280   0.31581   0.00000  Uiso   1.00
C112   C     0.85983   0.08119   0.33653   0.00000  Uiso   1.00
C113   C     0.86550   0.07396   0.49613   0.00000  Uiso   1.00
C114   C     0.85170   0.07868   0.63419   0.00000  Uiso   1.00
C115   C     0.83251   0.09037   0.61328   0.00000  Uiso   1.00
C116   C     0.75534   0.15513   0.40707   0.00000  Uiso   1.00
C117   C     0.88559   0.06148   0.52086   0.00000  Uiso   1.00
C118   C     0.75139   0.16733   0.25985   0.00000  Uiso   1.00
C119   C     0.73775   0.18497   0.26353   0.00000  Uiso   1.00
C120   C     0.72839   0.19113   0.41535   0.00000  Uiso   1.00
C121   C     0.73277   0.17919   0.56274   0.00000  Uiso   1.00
C122   C     0.74638   0.16152   0.55880   0.00000  Uiso   1.00
N123   N     0.72884   0.08638   0.45601   0.00000  Uiso   1.00
C124   C     0.72877   0.06039   0.48087   0.00000  Uiso   1.00
N125   N     0.75661   0.06377   0.47887   0.00000  Uiso   1.00
C126   C     0.71501   0.21066   0.42348   0.00000  Uiso   1.00
C127   C     0.76219   0.03850   0.48340   0.00000  Uiso   1.00
C128   C     0.70164   0.08817   0.42677   0.00000  Uiso   1.00
N129   N     0.71065   0.22204   0.28921   0.00000  Uiso   1.00
N130   N     0.89799   0.05621   0.39454   0.00000  Uiso   1.00
C131   C     0.91755   0.04378   0.40090   0.00000  Uiso   1.00
C132   C     0.92250   0.03236   0.25424   0.00000  Uiso   1.00
C133   C     0.94043   0.01906   0.25488   0.00000  Uiso   1.00
C134   C     0.95314   0.01623   0.40311   0.00000  Uiso   1.00
C135   C     0.95034   0.03000   0.54672   0.00000  Uiso   1.00
C136   C     0.93241   0.04335   0.54697   0.00000  Uiso   1.00
Au137  Au    0.69135   0.02064   0.49821   0.00000  Uiso   1.00
C138   C     0.69605   0.08869   0.24101   0.00000  Uiso   1.00
C139   C     0.75969   0.02702   0.66069   0.00000  Uiso   1.00
C140   C     0.69296   0.33887   0.23105   0.00000  Uiso   1.00
C141   C     0.46483   0.70988  -0.12181   0.00000  Uiso   1.00
C142   C     0.44972   0.69664  -0.26995   0.00000  Uiso   1.00
C143   C     0.41886   0.68576  -0.28447   0.00000  Uiso   1.00
C144   C     0.40271   0.68818  -0.15107   0.00000  Uiso   1.00
C145   C     0.41783   0.70215  -0.00414   0.00000  Uiso   1.00
C146   C     0.44866   0.71296   0.01077   0.00000  Uiso   1.00
C147   C     0.97866   0.98290  -0.12068   0.00000  Uiso   1.00
C148   C     0.36980   0.67529  -0.16182   0.00000  Uiso   1.00
C149   C     0.68639   0.83468  -0.04245   0.00000  Uiso   1.00
C150   C     0.65523   0.81552  -0.05443   0.00000  Uiso   1.00
C151   C     0.64162   0.78575   0.00321   0.00000  Uiso   1.00
C152   C     0.66047   0.77580   0.07113   0.00000  Uiso   1.00
C153   C     0.69105   0.79499   0.08914   0.00000  Uiso   1.00
C154   C     0.70494   0.82485   0.02954   0.00000  Uiso   1.00
C155   C     0.73758   0.84560   0.02639   0.00000  Uiso   1.00
C156   C     0.75600   0.84045  -0.08128   0.00000  Uiso   1.00
C157   C     0.78685   0.86090  -0.08882   0.00000  Uiso   1.00
C158   C     0.79947   0.88712   0.00815   0.00000  Uiso   1.00
C159   C     0.78086   0.89245   0.11308   0.00000  Uiso   1.00
C160   C     0.75012   0.87179   0.12249   0.00000  Uiso   1.00
C161   C     0.60853   0.76808   0.00705   0.00000  Uiso   1.00
C162   C     0.83170   0.90947  -0.00160   0.00000  Uiso   1.00
C163   C     0.59207   0.75932  -0.14135   0.00000  Uiso   1.00
C164   C     0.56069   0.74533  -0.13791   0.00000  Uiso   1.00
C165   C     0.54539   0.74016   0.01432   0.00000  Uiso   1.00
C166   C     0.56198   0.74879   0.16252   0.00000  Uiso   1.00
C167   C     0.59332   0.76293   0.15880   0.00000  Uiso   1.00
N168   N     0.65330   0.74813   0.12720   0.00000  Uiso   1.00
C169   C     0.67966   0.75158   0.18498   0.00000  Uiso   1.00
N170   N     0.70298   0.77990   0.16709   0.00000  Uiso   1.00
C171   C     0.51245   0.72699   0.02146   0.00000  Uiso   1.00
C172   C     0.73300   0.79008   0.23621   0.00000  Uiso   1.00
C173   C     0.62401   0.72027   0.11558   0.00000  Uiso   1.00
N174   N     0.49664   0.72105  -0.11369   0.00000  Uiso   1.00
N175   N     0.85079   0.90225  -0.05974   0.00000  Uiso   1.00
C176   C     0.88242   0.92262  -0.07890   0.00000  Uiso   1.00
C177   C     0.90193   0.91115  -0.08035   0.00000  Uiso   1.00
C178   C     0.93290   0.93033  -0.09627   0.00000  Uiso   1.00
C179   C     0.94517   0.96159  -0.11958   0.00000  Uiso   1.00
C180   C     0.92475   0.97233  -0.13143   0.00000  Uiso   1.00
C181   C     0.89409   0.95342  -0.10545   0.00000  Uiso   1.00
Au182  Au    0.68474   0.71911   0.28754   0.00000  Uiso   1.00
Cl183  Cl    0.69047   0.68226   0.40368   0.00000  Uiso   1.00
C184   C     0.62568   0.69192   0.14885   0.00000  Uiso   1.00
C185   C     0.73192   0.78911   0.42576   0.00000  Uiso   1.00
C186   C     0.35854   0.69508  -0.16694   0.00000  Uiso   1.00
Cl187  Cl    0.76597   1.09712  -0.05954   0.00000  Uiso   1.00
C188   C     0.95996   0.97041   0.37569   0.00000  Uiso   1.00
Cl189  Cl    0.26509   0.03482  -0.13137   0.00000  Uiso   1.00
C190   C     0.29163   0.74371  -0.11404   0.00000  Uiso   1.00
C191   C     0.27862   0.71958  -0.22509   0.00000  Uiso   1.00
C192   C     0.29046   0.70049  -0.24357   0.00000  Uiso   1.00
C193   C     0.31590   0.70549  -0.15250   0.00000  Uiso   1.00
C194   C     0.32955   0.73030  -0.04520   0.00000  Uiso   1.00
C195   C     0.31764   0.74929  -0.02630   0.00000  Uiso   1.00
C196   C     0.03015   0.99181  -0.12297   0.00000  Uiso   1.00
C197   C     0.32754   0.68434  -0.16353   0.00000  Uiso   1.00
C198   C     0.17759   0.85073   0.16022   0.00000  Uiso   1.00
C199   C     0.19367   0.83537   0.14726   0.00000  Uiso   1.00
C200   C     0.22173   0.84854   0.06679   0.00000  Uiso   1.00
C201   C     0.23338   0.87785   0.00279   0.00000  Uiso   1.00
C202   C     0.21782   0.89316   0.01843   0.00000  Uiso   1.00
C203   C     0.18920   0.87980   0.09417   0.00000  Uiso   1.00
C204   C     0.16994   0.89344   0.09523   0.00000  Uiso   1.00
C205   C     0.15575   0.89451  -0.05137   0.00000  Uiso   1.00
C206   C     0.13722   0.90717  -0.05083   0.00000  Uiso   1.00
C207   C     0.13211   0.91836   0.09744   0.00000  Uiso   1.00
C208   C     0.14550   0.91623   0.24505   0.00000  Uiso   1.00
C209   C     0.16407   0.90361   0.24423   0.00000  Uiso   1.00
C210   C     0.23742   0.83128   0.05508   0.00000  Uiso   1.00
C211   C     0.11319   0.93246   0.10064   0.00000  Uiso   1.00
C212   C     0.23329   0.81333  -0.08420   0.00000  Uiso   1.00
C213   C     0.24780   0.79654  -0.09416   0.00000  Uiso   1.00
C214   C     0.26637   0.79725   0.03632   0.00000  Uiso   1.00
C215   C     0.27008   0.81496   0.17655   0.00000  Uiso   1.00
C216   C     0.25557   0.83175   0.18629   0.00000  Uiso   1.00
N217   N     0.25997   0.89574  -0.07489   0.00000  Uiso   1.00
C218   C     0.25998   0.92181  -0.10237   0.00000  Uiso   1.00
N219   N     0.23480   0.92104  -0.04648   0.00000  Uiso   1.00
C220   C     0.28182   0.77959   0.02971   0.00000  Uiso   1.00
C221   C     0.23090   0.94734  -0.04084   0.00000  Uiso   1.00
C222   C     0.28354   0.88854  -0.11673   0.00000  Uiso   1.00
N223   N     0.27796   0.76202  -0.09514   0.00000  Uiso   1.00
N224   N     0.10083   0.93506  -0.03460   0.00000  Uiso   1.00
C225   C     0.08272   0.94902  -0.05087   0.00000  Uiso   1.00
C226   C     0.08033   0.96663   0.07553   0.00000  Uiso   1.00
C227   C     0.06322   0.98047   0.05009   0.00000  Uiso   1.00
C228   C     0.04890   0.97771  -0.10200   0.00000  Uiso   1.00
C229   C     0.05023   0.95926  -0.22550   0.00000  Uiso   1.00
C230   C     0.06743   0.94544  -0.20088   0.00000  Uiso   1.00
Au231  Au    0.29374   0.95869  -0.20381   0.00000  Uiso   1.00
C232   C     0.31077   0.91409  -0.20334   0.00000  Uiso   1.00
C233   C     0.23817   0.96137   0.13182   0.00000  Uiso   1.00
C234   C     0.30767   0.65329  -0.15933   0.00000  Uiso   1.00
Cl235  Cl   -0.02457   0.75931  -0.05880   0.00000  Uiso   1.00
C236   C     0.01126   0.97900   0.39665   0.00000  Uiso   1.00
C237   C     0.99908   0.97247  -0.13758   0.00000  Uiso   1.00
C238   C     0.74622   0.45400   0.27959   0.00000  Uiso   1.00
C239   C     0.73138   0.44250   0.12833   0.00000  Uiso   1.00
C240   C     0.71052   0.41192   0.11162   0.00000  Uiso   1.00
C241   C     0.70427   0.39247   0.24664   0.00000  Uiso   1.00
C242   C     0.71825   0.40400   0.39969   0.00000  Uiso   1.00
C243   C     0.73909   0.43450   0.41660   0.00000  Uiso   1.00
C244   C     0.98036   0.95937   0.37972   0.00000  Uiso   1.00
C245   C     0.68297   0.36001   0.22966   0.00000  Uiso   1.00
C246   C     0.86534   0.67393   0.52540   0.00000  Uiso   1.00
C247   C     0.84929   0.64257   0.50965   0.00000  Uiso   1.00
C248   C     0.86184   0.62741   0.42674   0.00000  Uiso   1.00
C249   C     0.89123   0.64471   0.36277   0.00000  Uiso   1.00
C250   C     0.90733   0.67547   0.38249   0.00000  Uiso   1.00
C251   C     0.89458   0.69105   0.46041   0.00000  Uiso   1.00
C252   C     0.90891   0.72399   0.46567   0.00000  Uiso   1.00
C253   C     0.91194   0.74028   0.31987   0.00000  Uiso   1.00
C254   C     0.92330   0.77127   0.32683   0.00000  Uiso   1.00
C255   C     0.93112   0.78623   0.48049   0.00000  Uiso   1.00
C256   C     0.92770   0.76976   0.62606   0.00000  Uiso   1.00
C257   C     0.91647   0.73885   0.61885   0.00000  Uiso   1.00
C258   C     0.84404   0.59453   0.41575   0.00000  Uiso   1.00
C259   C     0.94168   0.81858   0.49369   0.00000  Uiso   1.00
C260   C     0.82402   0.58092   0.28357   0.00000  Uiso   1.00
C261   C     0.80574   0.54972   0.27821   0.00000  Uiso   1.00
C262   C     0.80710   0.53176   0.40617   0.00000  Uiso   1.00
C263   C     0.82720   0.54555   0.53834   0.00000  Uiso   1.00
C264   C     0.84542   0.57676   0.54369   0.00000  Uiso   1.00
N265   N     0.90855   0.63568   0.28241   0.00000  Uiso   1.00
C266   C     0.93520   0.66139   0.25890   0.00000  Uiso   1.00
N267   N     0.93530   0.68591   0.31972   0.00000  Uiso   1.00
C268   C     0.78736   0.49885   0.40623   0.00000  Uiso   1.00
C269   C     0.96244   0.71540   0.33589   0.00000  Uiso   1.00
C270   C     0.90023   0.60490   0.23410   0.00000  Uiso   1.00
N271   N     0.76741   0.48561   0.29020   0.00000  Uiso   1.00
N272   N     0.94530   0.83491   0.36285   0.00000  Uiso   1.00
C273   C     0.95369   0.86604   0.36809   0.00000  Uiso   1.00
C274   C     0.96893   0.88455   0.23231   0.00000  Uiso   1.00
C275   C     0.97759   0.91502   0.23457   0.00000  Uiso   1.00
C276   C     0.97021   0.92704   0.37083   0.00000  Uiso   1.00
C277   C     0.95465   0.90853   0.50526   0.00000  Uiso   1.00
C278   C     0.94622   0.87823   0.50402   0.00000  Uiso   1.00
Au279  Au    0.97171   0.66374   0.15723   0.00000  Uiso   1.00
C280   C     0.92484   0.60289   0.13903   0.00000  Uiso   1.00
C281   C     0.97457   0.72021   0.51293   0.00000  Uiso   1.00
C282   C     0.65221   0.35024   0.21977   0.00000  Uiso   1.00
C283   C     0.36226   0.62288  -0.12553   0.00000  Uiso   1.00
N284   N     0.37878   0.63027   0.03333   0.00000  Uiso   1.00
C285   C     0.35809   0.61675   0.17516   0.00000  Uiso   1.00
C286   C     0.37588   0.62687   0.33726   0.00000  Uiso   1.00
N287   N     0.39901   0.61806   0.34045   0.00000  Uiso   1.00
C288   C     0.41954   0.63106   0.19789   0.00000  Uiso   1.00
C289   C     0.40163   0.62096   0.03436   0.00000  Uiso   1.00
C290   C     0.44327   0.62138   0.20242   0.00000  Uiso   1.00
C291   C     0.72643   0.34966   0.21921   0.00000  Uiso   1.00
N292   N     0.73824   0.36437   0.05680   0.00000  Uiso   1.00
C293   C     0.77123   0.38356   0.06360   0.00000  Uiso   1.00
C294   C     0.78377   0.39922  -0.10464   0.00000  Uiso   1.00
N295   N     0.77408   0.37695  -0.23966   0.00000  Uiso   1.00
C296   C     0.74135   0.35697  -0.24369   0.00000  Uiso   1.00
C297   C     0.72983   0.34166  -0.07535   0.00000  Uiso   1.00
C298   C     0.77571   0.42379  -0.13963   0.00000  Uiso   1.00
C299   C     0.92873   0.95057   0.30084   0.00000  Uiso   1.00
N300   N     0.90338   0.93668   0.42240   0.00000  Uiso   1.00
C301   C     0.88549   0.90392   0.38981   0.00000  Uiso   1.00
C302   C     0.85726   0.88841   0.49933   0.00000  Uiso   1.00
N303   N     0.83797   0.90142   0.46939   0.00000  Uiso   1.00
C304   C     0.85453   0.93369   0.50328   0.00000  Uiso   1.00
C305   C     0.88377   0.95004   0.40183   0.00000  Uiso   1.00
C306   C     0.83959   0.85460   0.46575   0.00000  Uiso   1.00
C307   C     1.07567   1.04479  -0.14357   0.00000  Uiso   1.00
N308   N     1.09273   1.06051   0.00821   0.00000  Uiso   1.00
C309   C     1.11843   1.05555   0.03756   0.00000  Uiso   1.00
C310   C     1.14449   1.07276  -0.08748   0.00000  Uiso   1.00
N311   N     1.14726   1.10156  -0.14052   0.00000  Uiso   1.00
C312   C     1.13643   1.11402  -0.01281   0.00000  Uiso   1.00
C313   C     1.10245   1.09315   0.01067   0.00000  Uiso   1.00
C314   C     1.17419   1.07722  -0.01578   0.00000  Uiso   1.00
H315   H     0.26587   0.53368  -0.34655   0.00000  Uiso   1.00
H316   H     0.30294   0.58889  -0.38628   0.00000  Uiso   1.00
H317   H     0.28440   0.60690   0.12105   0.00000  Uiso   1.00
H318   H     0.24749   0.55160   0.16220   0.00000  Uiso   1.00
H319   H     0.15180   0.30537   0.20600   0.00000  Uiso   1.00
H320   H     0.18109   0.36229   0.18210   0.00000  Uiso   1.00
H321   H     0.09855   0.26528  -0.16730   0.00000  Uiso   1.00
H322   H     0.07665   0.20891  -0.16336   0.00000  Uiso   1.00
H323   H     0.07026   0.20909   0.38208   0.00000  Uiso   1.00
H324   H     0.09199   0.26539   0.37742   0.00000  Uiso   1.00
H325   H     0.05539   0.16093   0.23998   0.00000  Uiso   1.00
H326   H     0.17795   0.39791  -0.18819   0.00000  Uiso   1.00
H327   H     0.21048   0.45460  -0.19834   0.00000  Uiso   1.00
H328   H     0.18117   0.46028   0.30769   0.00000  Uiso   1.00
H329   H     0.14876   0.40371   0.31718   0.00000  Uiso   1.00
H330   H     0.21698   0.50737   0.16438   0.00000  Uiso   1.00
H331   H     0.03185   0.26298  -0.11202   0.00000  Uiso   1.00
H332   H     0.12648   0.40806  -0.05707   0.00000  Uiso   1.00
H333   H     0.03506   0.11519   0.22941   0.00000  Uiso   1.00
H334   H     0.01966   0.06049   0.18986   0.00000  Uiso   1.00
H335   H     0.04021   0.07653  -0.34206   0.00000  Uiso   1.00
H336   H     0.05553   0.13101  -0.30494   0.00000  Uiso   1.00
H337   H     0.06497   0.37773  -0.27433   0.00000  Uiso   1.00
H338   H     0.06994   0.40718  -0.10236   0.00000  Uiso   1.00
H339   H     0.00596   0.25274   0.20956   0.00000  Uiso   1.00
H340   H     0.04552   0.28482   0.28793   0.00000  Uiso   1.00
H341   H     0.53255   0.25548   0.02223   0.00000  Uiso   1.00
H342   H     0.58836   0.27409   0.02409   0.00000  Uiso   1.00
H343   H     0.60173   0.34323   0.38942   0.00000  Uiso   1.00
H344   H     0.54599   0.32440   0.38948   0.00000  Uiso   1.00
H345   H     0.30528   0.13842   0.30869   0.00000  Uiso   1.00
H346   H     0.36015   0.17458   0.23963   0.00000  Uiso   1.00
H347   H     0.25060   0.17653   0.28739   0.00000  Uiso   1.00
H348   H     0.19540   0.13851   0.32789   0.00000  Uiso   1.00
H349   H     0.21995   0.08287   0.63252   0.00000  Uiso   1.00
H350   H     0.27497   0.12167   0.59981   0.00000  Uiso   1.00
H351   H     0.16641   0.06211   0.54915   0.00000  Uiso   1.00
H352   H     0.39516   0.22161   0.06352   0.00000  Uiso   1.00
H353   H     0.45211   0.24949   0.06359   0.00000  Uiso   1.00
H354   H     0.45229   0.27561   0.58415   0.00000  Uiso   1.00
H355   H     0.39546   0.24698   0.58546   0.00000  Uiso   1.00
H356   H     0.50113   0.29317   0.44315   0.00000  Uiso   1.00
H357   H     0.25053   0.19559   0.58847   0.00000  Uiso   1.00
H358   H     0.39509   0.28945   0.41664   0.00000  Uiso   1.00
H359   H     0.10960   0.10679   0.43022   0.00000  Uiso   1.00
H360   H     0.05397   0.07152   0.39181   0.00000  Uiso   1.00
H361   H     0.06740  -0.00529   0.48538   0.00000  Uiso   1.00
H362   H     0.12313   0.02977   0.50332   0.00000  Uiso   1.00
H363   H     0.34896   0.28722   0.13730   0.00000  Uiso   1.00
H364   H     0.36087   0.31932   0.30397   0.00000  Uiso   1.00
H365   H     0.30764   0.23003   0.86203   0.00000  Uiso   1.00
H366   H     0.26548   0.21747   0.91646   0.00000  Uiso   1.00
H367   H     0.01076   0.04439   0.47747   0.00000  Uiso   1.00
H368   H     0.62352   0.27351   0.21990   0.00000  Uiso   1.00
H369   H     1.13849   0.34693  -0.45804   0.00000  Uiso   1.00
H370   H     0.97432   0.02232  -0.07169   0.00000  Uiso   1.00
H371   H     0.68780   0.23272   0.01672   0.00000  Uiso   1.00
H372   H     0.66960   0.26998  -0.01038   0.00000  Uiso   1.00
H373   H     0.69125   0.29457   0.51526   0.00000  Uiso   1.00
H374   H     0.70914   0.25701   0.54361   0.00000  Uiso   1.00
H375   H     0.84562   0.15415   0.37202   0.00000  Uiso   1.00
H376   H     0.81423   0.17962   0.34901   0.00000  Uiso   1.00
H377   H     0.83632   0.09879   0.18611   0.00000  Uiso   1.00
H378   H     0.87103   0.07752   0.22380   0.00000  Uiso   1.00
H379   H     0.85612   0.07297   0.76429   0.00000  Uiso   1.00
H380   H     0.82164   0.09446   0.72612   0.00000  Uiso   1.00
H381   H     0.89034   0.05638   0.65166   0.00000  Uiso   1.00
H382   H     0.75932   0.16287   0.13647   0.00000  Uiso   1.00
H383   H     0.73415   0.19445   0.14313   0.00000  Uiso   1.00
H384   H     0.72521   0.18389   0.68664   0.00000  Uiso   1.00
H385   H     0.75023   0.15224   0.67925   0.00000  Uiso   1.00
H386   H     0.70836   0.21594   0.54863   0.00000  Uiso   1.00
H387   H     0.76749   0.03026   0.36373   0.00000  Uiso   1.00
H388   H     0.68802   0.08896   0.53644   0.00000  Uiso   1.00
H389   H     0.91185   0.03388   0.13302   0.00000  Uiso   1.00
H390   H     0.94486   0.01038   0.13413   0.00000  Uiso   1.00
H391   H     0.96276   0.03039   0.66492   0.00000  Uiso   1.00
H392   H     0.92983   0.05390   0.66566   0.00000  Uiso   1.00
H393   H     0.71541   0.09612   0.14930   0.00000  Uiso   1.00
H394   H     0.67251   0.08165   0.19389   0.00000  Uiso   1.00
H395   H     0.73689   0.00947   0.71219   0.00000  Uiso   1.00
H396   H     0.78062   0.03599   0.74180   0.00000  Uiso   1.00
H397   H     0.46261   0.69467  -0.37990   0.00000  Uiso   1.00
H398   H     0.40674   0.67486  -0.40523   0.00000  Uiso   1.00
H399   H     0.40497   0.70473   0.10390   0.00000  Uiso   1.00
H400   H     0.46086   0.72433   0.13054   0.00000  Uiso   1.00
H401   H     0.69710   0.85866  -0.09147   0.00000  Uiso   1.00
H402   H     0.64055   0.82402  -0.11155   0.00000  Uiso   1.00
H403   H     0.74581   0.81956  -0.16279   0.00000  Uiso   1.00
H404   H     0.80187   0.85636  -0.17377   0.00000  Uiso   1.00
H405   H     0.79081   0.91374   0.19126   0.00000  Uiso   1.00
H406   H     0.73513   0.87620   0.20854   0.00000  Uiso   1.00
H407   H     0.84015   0.93344   0.04219   0.00000  Uiso   1.00
H408   H     0.60426   0.76359  -0.26541   0.00000  Uiso   1.00
H409   H     0.54738   0.73806  -0.25881   0.00000  Uiso   1.00
H410   H     0.54988   0.74427   0.28700   0.00000  Uiso   1.00
H411   H     0.60654   0.77030   0.27996   0.00000  Uiso   1.00
H412   H     0.50053   0.72189   0.14675   0.00000  Uiso   1.00
H413   H     0.75302   0.79729   0.14958   0.00000  Uiso   1.00
H414   H     0.60292   0.72134   0.08420   0.00000  Uiso   1.00
H415   H     0.89263   0.88594  -0.06848   0.00000  Uiso   1.00
H416   H     0.94877   0.92088  -0.09057   0.00000  Uiso   1.00
H417   H     0.93329   0.99691  -0.16280   0.00000  Uiso   1.00
H418   H     0.87827   0.96296  -0.10567   0.00000  Uiso   1.00
H419   H     0.60419   0.66914   0.15405   0.00000  Uiso   1.00
H420   H     0.64842   0.69353   0.16850   0.00000  Uiso   1.00
H421   H     0.70934   0.77706   0.49272   0.00000  Uiso   1.00
H422   H     0.75369   0.80044   0.50034   0.00000  Uiso   1.00
H423   H     0.37468   0.72032  -0.17399   0.00000  Uiso   1.00
H424   H     0.79655   1.11239  -0.05968   0.00000  Uiso   1.00
H425   H     0.29567   0.05009  -0.13151   0.00000  Uiso   1.00
H426   H     0.25818   0.71535  -0.30148   0.00000  Uiso   1.00
H427   H     0.27947   0.68072  -0.33296   0.00000  Uiso   1.00
H428   H     0.35054   0.73508   0.02739   0.00000  Uiso   1.00
H429   H     0.32898   0.76942   0.06050   0.00000  Uiso   1.00
H430   H     0.15479   0.83966   0.22497   0.00000  Uiso   1.00
H431   H     0.18401   0.81190   0.20237   0.00000  Uiso   1.00
H432   H     0.15932   0.88503  -0.17157   0.00000  Uiso   1.00
H433   H     0.12615   0.90847  -0.17091   0.00000  Uiso   1.00
H434   H     0.14125   0.92483   0.36660   0.00000  Uiso   1.00
H435   H     0.17450   0.90156   0.36501   0.00000  Uiso   1.00
H436   H     0.10928   0.94121   0.22260   0.00000  Uiso   1.00
H437   H     0.21806   0.81239  -0.18983   0.00000  Uiso   1.00
H438   H     0.24461   0.78218  -0.20838   0.00000  Uiso   1.00
H439   H     0.28501   0.81571   0.28341   0.00000  Uiso   1.00
H440   H     0.25853   0.84585   0.30134   0.00000  Uiso   1.00
H441   H     0.29741   0.78124   0.13508   0.00000  Uiso   1.00
H442   H     0.22336   0.95456  -0.15666   0.00000  Uiso   1.00
H443   H     0.28037   0.86556  -0.08405   0.00000  Uiso   1.00
H444   H     0.09239   0.96959   0.19893   0.00000  Uiso   1.00
H445   H     0.06081   0.99418   0.15380   0.00000  Uiso   1.00
H446   H     0.03726   0.95549  -0.34641   0.00000  Uiso   1.00
H447   H     0.06895   0.93115  -0.30424   0.00000  Uiso   1.00
H448   H     0.31990   0.90956  -0.32214   0.00000  Uiso   1.00
H449   H     0.32198   0.93771  -0.14926   0.00000  Uiso   1.00
H450   H     0.26248   0.97427   0.17626   0.00000  Uiso   1.00
H451   H     0.21929   0.95896   0.21643   0.00000  Uiso   1.00
H452   H     0.28236   0.64415  -0.16038   0.00000  Uiso   1.00
H453   H     0.00601   0.77458  -0.05894   0.00000  Uiso   1.00
H454   H     0.02694   0.96938   0.38647   0.00000  Uiso   1.00
H455   H     0.98983   0.94761  -0.16381   0.00000  Uiso   1.00
H456   H     0.73627   0.45812   0.01751   0.00000  Uiso   1.00
H457   H     0.69859   0.40281  -0.01200   0.00000  Uiso   1.00
H458   H     0.71263   0.38844   0.51145   0.00000  Uiso   1.00
H459   H     0.75040   0.44371   0.54153   0.00000  Uiso   1.00
H460   H     0.85471   0.68590   0.59162   0.00000  Uiso   1.00
H461   H     0.82574   0.62904   0.56450   0.00000  Uiso   1.00
H462   H     0.90513   0.72825   0.19513   0.00000  Uiso   1.00
H463   H     0.92625   0.78449   0.20771   0.00000  Uiso   1.00
H464   H     0.93411   0.78162   0.75136   0.00000  Uiso   1.00
H465   H     0.91341   0.72559   0.73794   0.00000  Uiso   1.00
H466   H     0.94687   0.82982   0.62075   0.00000  Uiso   1.00
H467   H     0.82261   0.59530   0.17997   0.00000  Uiso   1.00
H468   H     0.78963   0.53870   0.16983   0.00000  Uiso   1.00
H469   H     0.82873   0.53127   0.64217   0.00000  Uiso   1.00
H470   H     0.86145   0.58781   0.65234   0.00000  Uiso   1.00
H471   H     0.78950   0.48473   0.50883   0.00000  Uiso   1.00
H472   H     0.97150   0.73103   0.22385   0.00000  Uiso   1.00
H473   H     0.87716   0.58533   0.26837   0.00000  Uiso   1.00
H474   H     0.97434   0.87480   0.11918   0.00000  Uiso   1.00
H475   H     0.99066   0.93011   0.12556   0.00000  Uiso   1.00
H476   H     0.94876   0.91818   0.61699   0.00000  Uiso   1.00
H477   H     0.93322   0.86330   0.61369   0.00000  Uiso   1.00
H478   H     0.91858   0.58468   0.04146   0.00000  Uiso   1.00
H479   H     0.94949   0.61960   0.16554   0.00000  Uiso   1.00
H480   H     0.99846   0.72504   0.53668   0.00000  Uiso   1.00
H481   H     0.95974   0.71897   0.62148   0.00000  Uiso   1.00
H482   H     0.64463   0.36761   0.21574   0.00000  Uiso   1.00
H483   H     0.35807   0.60499  -0.22189   0.00000  Uiso   1.00
H484   H     0.33301   0.60139   0.15245   0.00000  Uiso   1.00
H485   H     0.37019   0.63938   0.43423   0.00000  Uiso   1.00
H486   H     0.39914   0.60348   0.44191   0.00000  Uiso   1.00
H487   H     0.40719   0.60832  -0.06242   0.00000  Uiso   1.00
H488   H     0.43915   0.60029   0.13389   0.00000  Uiso   1.00
H489   H     0.46506   0.63526   0.27432   0.00000  Uiso   1.00
H490   H     0.73844   0.34579   0.32732   0.00000  Uiso   1.00
H491   H     0.78380   0.38514   0.18331   0.00000  Uiso   1.00
H492   H     0.79102   0.37670  -0.32421   0.00000  Uiso   1.00
H493   H     0.72830   0.35471  -0.36247   0.00000  Uiso   1.00
H494   H     0.71679   0.31612  -0.06652   0.00000  Uiso   1.00
H495   H     0.75230   0.41737  -0.18635   0.00000  Uiso   1.00
H496   H     0.79315   0.44840  -0.11881   0.00000  Uiso   1.00
H497   H     0.92601   0.94722   0.16064   0.00000  Uiso   1.00
H498   H     0.89340   0.89331   0.29260   0.00000  Uiso   1.00
H499   H     0.81444   0.88690   0.42714   0.00000  Uiso   1.00
H500   H     0.84524   0.94373   0.59597   0.00000  Uiso   1.00
H501   H     0.88843   0.97021   0.32167   0.00000  Uiso   1.00
H502   H     0.85109   0.84317   0.40293   0.00000  Uiso   1.00
H503   H     0.81494   0.84086   0.50357   0.00000  Uiso   1.00
H504   H     1.08516   1.04739  -0.27443   0.00000  Uiso   1.00
H505   H     1.11748   1.04036   0.14349   0.00000  Uiso   1.00
H506   H     1.15669   1.11103  -0.26462   0.00000  Uiso   1.00
H507   H     1.15279   1.13600   0.05095   0.00000  Uiso   1.00
H508   H     1.08511   1.10055   0.02886   0.00000  Uiso   1.00
H509   H     1.18572   1.06557  -0.07571   0.00000  Uiso   1.00
H510   H     1.18469   1.09218   0.09732   0.00000  Uiso   1.00
loop_
_geom_bond_atom_site_label_1
_geom_bond_atom_site_label_2
_geom_bond_distance
_geom_bond_site_symmetry_2
_ccdc_geom_bond_type
C1     C2      1.402   .     S
C1     C6      1.411   .     S
C1     N34     1.439   .     D
C2     C3      1.399   .     D
C2     H315    1.140   .     S
C3     C4      1.401   .     S
C3     H316    1.140   .     S
C4     C5      1.401   .     S
C4     C8      1.476   .     D
C5     C6      1.396   .     D
C5     H317    1.140   .     S
C6     H318    1.140   .     S
C7     C39     1.475   .     D
C7     C45     1.418   .     S
C7     C95     1.399   1_455 S
C8     C46     1.419   .     S
C8     C234    1.402   .     S
C9     C10     1.403   .     D
C9     C14     1.407   .     S
C9     H319    1.140   .     S
C10    C11     1.406   .     S
C10    H320    1.140   .     S
C11    C12     1.411   .     S
C11    C21     1.470   .     D
C12    C13     1.381   .     D
C12    N28     1.357   .     S
C13    C14     1.412   .     S
C13    N30     1.355   .     S
C14    C15     1.471   .     D
C15    C16     1.402   .     S
C15    C20     1.402   .     S
C16    C17     1.397   .     D
C16    H321    1.140   .     S
C17    C18     1.407   .     S
C17    H322    1.140   .     S
C18    C19     1.404   .     S
C18    C22     1.476   .     D
C19    C20     1.397   .     D
C19    H323    1.140   .     S
C20    H324    1.140   .     S
C21    C23     1.401   .     S
C21    C27     1.401   .     S
C22    N35     1.300   .     S
C22    H325    1.140   .     S
C23    C24     1.398   .     D
C23    H326    1.140   .     S
C24    C25     1.407   .     S
C24    H327    1.140   .     S
C25    C26     1.404   .     S
C25    C31     1.476   .     D
C26    C27     1.397   .     D
C26    H328    1.140   .     S
C27    H329    1.140   .     S
N28    C29     1.359   .     D
N28    C33     1.472   .     S
C29    N30     1.351   .     S
C29    Au42    1.994   .     S
N30    C32     1.465   .     S
C31    N34     1.300   .     S
C31    H330    1.140   .     S
C32    C44     1.525   .     D
C32    H331    1.140   .     S
C33    C43     1.526   .     D
C33    H332    1.140   .     S
N35    C36     1.438   .     D
C36    C37     1.409   .     S
C36    C41     1.401   .     S
C37    C38     1.396   .     D
C37    H333    1.140   .     S
C38    C39     1.399   .     S
C38    H334    1.140   .     S
C39    C40     1.400   .     S
C40    C41     1.397   .     D
C40    H335    1.140   .     S
C41    H336    1.140   .     S
C43    H337    1.140   .     S
C43    H338    1.140   .     S
C44    H339    1.140   .     S
C44    H340    1.140   .     S
C45    C196    1.422   1_545 S
C45    C307    1.529   1_445 D
C46    C148    1.419   .     S
C46    C283    1.522   .     D
C47    C48     1.399   .     D
C47    C52     1.408   .     S
C47    N80     1.438   .     S
C48    C49     1.398   .     S
C48    H341    1.140   .     S
C49    C50     1.406   .     D
C49    H342    1.140   .     S
C50    C51     1.405   .     S
C50    C54     1.484   .     S
C51    C52     1.397   .     D
C51    H343    1.140   .     S
C52    H344    1.140   .     S
C53    C85     1.510   .     S
C53    C92     1.407   .     S
C53    C236    1.403   1_545 D
C54    C93     1.402   .     S
C54    C282    1.402   .     D
C55    C56     1.402   .     S
C55    C60     1.408   .     D
C55    H345    1.140   .     S
C56    C57     1.408   .     D
C56    H346    1.140   .     S
C57    C58     1.412   .     S
C57    C67     1.478   .     S
C58    C59     1.382   .     D
C58    N74     1.357   .     S
C59    C60     1.414   .     S
C59    N76     1.359   .     S
C60    C61     1.474   .     S
C61    C62     1.404   .     D
C61    C66     1.402   .     S
C62    C63     1.398   .     S
C62    H347    1.140   .     S
C63    C64     1.406   .     D
C63    H348    1.140   .     S
C64    C65     1.402   .     S
C64    C68     1.473   .     S
C65    C66     1.396   .     D
C65    H349    1.140   .     S
C66    H350    1.140   .     S
C67    C69     1.403   .     D
C67    C73     1.404   .     S
C68    N81     1.299   .     D
C68    H351    1.140   .     S
C69    C70     1.399   .     S
C69    H352    1.140   .     S
C70    C71     1.407   .     D
C70    H353    1.140   .     S
C71    C72     1.403   .     S
C71    C77     1.475   .     S
C72    C73     1.395   .     D
C72    H354    1.140   .     S
C73    H355    1.140   .     S
N74    C75     1.351   .     D
N74    C79     1.468   .     S
C75    N76     1.353   .     S
C75    Au88    1.991   .     S
N76    C78     1.469   .     S
C77    N80     1.300   .     D
C77    H356    1.140   .     S
C78    C91     1.528   .     D
C78    H357    1.140   .     S
C79    C90     1.527   .     D
C79    H358    1.140   .     S
N81    C82     1.438   .     S
C82    C83     1.394   .     D
C82    C87     1.405   .     S
C83    C84     1.398   .     S
C83    H359    1.140   .     S
C84    C85     1.413   .     D
C84    H360    1.140   .     S
C85    C86     1.414   .     S
C86    C87     1.396   .     D
C86    H361    1.140   .     S
C87    H362    1.140   .     S
Au88   Cl89    2.260   .     S
C90    H363    1.140   .     S
C90    H364    1.140   .     S
C91    H365    1.140   .     S
C91    H366    1.140   .     S
C92    H367    1.140   .     S
C92    C102    1.407   1_455 D
C93    C103    1.401   .     D
C93    H368    1.140   .     S
Cl94   H369    1.360   .     S
C95    H370    1.140   .     S
C95    C7      1.399   1_655 S
C95    C147    1.407   1_545 D
C96    C97     1.402   .     S
C96    C101    1.410   .     D
C96    N129    1.437   .     S
C97    C98     1.398   .     D
C97    H371    1.140   .     S
C98    C99     1.400   .     S
C98    H372    1.140   .     S
C99    C100    1.401   .     D
C99    C103    1.474   .     S
C100   C101    1.396   .     S
C100   H373    1.140   .     S
C101   H374    1.140   .     S
C102   C134    1.483   .     S
C102   C92     1.407   1_655 D
C102   C188    1.425   1_545 S
C103   C140    1.417   .     S
C104   C105    1.402   .     D
C104   C109    1.407   .     S
C104   H375    1.140   .     S
C105   C106    1.406   .     S
C105   H376    1.140   .     S
C106   C107    1.411   .     D
C106   C116    1.471   .     S
C107   C108    1.383   .     S
C107   N123    1.357   .     S
C108   C109    1.413   .     D
C108   N125    1.358   .     S
C109   C110    1.469   .     S
C110   C111    1.401   .     S
C110   C115    1.401   .     D
C111   C112    1.397   .     D
C111   H377    1.140   .     S
C112   C113    1.407   .     S
C112   H378    1.140   .     S
C113   C114    1.404   .     D
C113   C117    1.476   .     S
C114   C115    1.398   .     S
C114   H379    1.140   .     S
C115   H380    1.140   .     S
C116   C118    1.401   .     S
C116   C122    1.402   .     D
C117   N130    1.299   .     D
C117   H381    1.140   .     S
C118   C119    1.397   .     D
C118   H382    1.140   .     S
C119   C120    1.407   .     S
C119   H383    1.140   .     S
C120   C121    1.404   .     D
C120   C126    1.476   .     S
C121   C122    1.397   .     S
C121   H384    1.140   .     S
C122   H385    1.140   .     S
N123   C124    1.350   .     D
N123   C128    1.464   .     S
C124   N125    1.352   .     S
C124   Au137   1.991   .     S
N125   C127    1.465   .     S
C126   N129    1.300   .     D
C126   H386    1.140   .     S
C127   C139    1.524   .     D
C127   H387    1.140   .     S
C128   C138    1.525   .     D
C128   H388    1.140   .     S
N130   C131    1.437   .     S
C131   C132    1.399   .     S
C131   C136    1.408   .     D
C132   C133    1.395   .     D
C132   H389    1.140   .     S
C133   C134    1.402   .     S
C133   H390    1.140   .     S
C134   C135    1.402   .     D
C135   C136    1.398   .     S
C135   H391    1.140   .     S
C136   H392    1.140   .     S
C138   H393    1.140   .     S
C138   H394    1.140   .     S
C139   H395    1.140   .     S
C139   H396    1.140   .     S
C140   C245    1.416   .     S
C140   C291    1.523   .     D
C141   C142    1.401   .     D
C141   C146    1.410   .     S
C141   N174    1.437   .     S
C142   C143    1.397   .     S
C142   H397    1.140   .     S
C143   C144    1.401   .     D
C143   H398    1.140   .     S
C144   C145    1.401   .     S
C144   C148    1.478   .     S
C145   C146    1.397   .     D
C145   H399    1.140   .     S
C146   H400    1.140   .     S
C147   C179    1.508   .     S
C147   C237    1.404   .     S
C147   C95     1.407   1_565 D
C148   C186    1.401   .     D
C149   C150    1.402   .     S
C149   C154    1.407   .     D
C149   H401    1.140   .     S
C150   C151    1.406   .     D
C150   H402    1.140   .     S
C151   C152    1.412   .     S
C151   C161    1.473   .     S
C152   C153    1.383   .     D
C152   N168    1.356   .     S
C153   C154    1.414   .     S
C153   N170    1.359   .     S
C154   C155    1.470   .     S
C155   C156    1.403   .     D
C155   C160    1.402   .     S
C156   C157    1.398   .     S
C156   H403    1.140   .     S
C157   C158    1.407   .     D
C157   H404    1.140   .     S
C158   C159    1.402   .     S
C158   C162    1.471   .     S
C159   C160    1.396   .     D
C159   H405    1.140   .     S
C160   H406    1.140   .     S
C161   C163    1.402   .     D
C161   C167    1.402   .     S
C162   N175    1.298   .     D
C162   H407    1.140   .     S
C163   C164    1.399   .     S
C163   H408    1.140   .     S
C164   C165    1.407   .     D
C164   H409    1.140   .     S
C165   C166    1.403   .     S
C165   C171    1.476   .     S
C166   C167    1.396   .     D
C166   H410    1.140   .     S
C167   H411    1.140   .     S
N168   C169    1.357   .     D
N168   C173    1.473   .     S
C169   N170    1.353   .     S
C169   Au182   1.993   .     S
N170   C172    1.468   .     S
C171   N174    1.300   .     D
C171   H412    1.140   .     S
C172   C185    1.527   .     D
C172   H413    1.140   .     S
C173   C184    1.526   .     D
C173   H414    1.140   .     S
N175   C176    1.435   .     S
C176   C177    1.395   .     D
C176   C181    1.402   .     S
C177   C178    1.396   .     S
C177   H415    1.140   .     S
C178   C179    1.416   .     D
C178   H416    1.140   .     S
C179   C180    1.412   .     S
C180   C181    1.392   .     D
C180   H417    1.140   .     S
C181   H418    1.140   .     S
Au182  Cl183   2.260   .     S
C184   H419    1.140   .     S
C184   H420    1.140   .     S
C185   H421    1.140   .     S
C185   H422    1.140   .     S
C186   C197    1.401   .     S
C186   H423    1.140   .     S
Cl187  H424    1.360   .     S
C188   C244    1.420   .     S
C188   C299    1.530   .     D
C188   C102    1.425   1_565 S
Cl189  H425    1.360   .     S
C190   C191    1.400   .     S
C190   C195    1.408   .     D
C190   N223    1.437   .     S
C191   C192    1.398   .     D
C191   H426    1.140   .     S
C192   C193    1.405   .     S
C192   H427    1.140   .     S
C193   C194    1.406   .     D
C193   C197    1.484   .     S
C194   C195    1.397   .     S
C194   H428    1.140   .     S
C195   H429    1.140   .     S
C196   C228    1.477   .     S
C196   C45     1.422   1_565 S
C196   C237    1.401   1_455 D
C197   C234    1.401   .     D
C198   C199    1.404   .     D
C198   C203    1.407   .     S
C198   H430    1.140   .     S
C199   C200    1.406   .     S
C199   H431    1.140   .     S
C200   C201    1.411   .     D
C200   C210    1.471   .     S
C201   C202    1.380   .     S
C201   N217    1.358   .     S
C202   C203    1.412   .     D
C202   N219    1.355   .     S
C203   C204    1.472   .     S
C204   C205    1.402   .     S
C204   C209    1.401   .     D
C205   C206    1.397   .     D
C205   H432    1.140   .     S
C206   C207    1.407   .     S
C206   H433    1.140   .     S
C207   C208    1.404   .     D
C207   C211    1.476   .     S
C208   C209    1.397   .     S
C208   H434    1.140   .     S
C209   H435    1.140   .     S
C210   C212    1.401   .     S
C210   C216    1.401   .     D
C211   N224    1.300   .     D
C211   H436    1.140   .     S
C212   C213    1.397   .     D
C212   H437    1.140   .     S
C213   C214    1.407   .     S
C213   H438    1.140   .     S
C214   C215    1.404   .     D
C214   C220    1.477   .     S
C215   C216    1.397   .     S
C215   H439    1.140   .     S
C216   H440    1.140   .     S
N217   C218    1.359   .     D
N217   C222    1.472   .     S
C218   N219    1.351   .     S
C218   Au231   1.994   .     S
N219   C221    1.464   .     S
C220   N223    1.300   .     D
C220   H441    1.140   .     S
C221   C233    1.525   .     D
C221   H442    1.140   .     S
C222   C232    1.526   .     D
C222   H443    1.140   .     S
N224   C225    1.438   .     S
C225   C226    1.409   .     S
C225   C230    1.402   .     D
C226   C227    1.395   .     D
C226   H444    1.140   .     S
C227   C228    1.399   .     S
C227   H445    1.140   .     S
C228   C229    1.401   .     D
C229   C230    1.398   .     S
C229   H446    1.140   .     S
C230   H447    1.140   .     S
C232   H448    1.140   .     S
C232   H449    1.140   .     S
C233   H450    1.140   .     S
C233   H451    1.140   .     S
C234   H452    1.140   .     S
Cl235  H453    1.360   .     S
C236   H454    1.140   .     S
C236   C53     1.403   1_565 D
C236   C244    1.398   1_455 S
C237   H455    1.140   .     S
C237   C196    1.401   1_655 D
C238   C239    1.402   .     S
C238   C243    1.409   .     S
C238   N271    1.437   .     D
C239   C240    1.398   .     D
C239   H456    1.140   .     S
C240   C241    1.400   .     S
C240   H457    1.140   .     S
C241   C242    1.401   .     S
C241   C245    1.476   .     D
C242   C243    1.395   .     D
C242   H458    1.140   .     S
C243   H459    1.140   .     S
C244   C276    1.475   .     D
C244   C236    1.398   1_655 S
C245   C282    1.400   .     S
C246   C247    1.403   .     D
C246   C251    1.407   .     S
C246   H460    1.140   .     S
C247   C248    1.405   .     S
C247   H461    1.140   .     S
C248   C249    1.411   .     S
C248   C258    1.469   .     D
C249   C250    1.380   .     D
C249   N265    1.357   .     S
C250   C251    1.412   .     S
C250   N267    1.355   .     S
C251   C252    1.472   .     D
C252   C253    1.403   .     S
C252   C257    1.401   .     S
C253   C254    1.398   .     D
C253   H462    1.140   .     S
C254   C255    1.406   .     S
C254   H463    1.140   .     S
C255   C256    1.403   .     S
C255   C259    1.474   .     D
C256   C257    1.396   .     D
C256   H464    1.140   .     S
C257   H465    1.140   .     S
C258   C260    1.401   .     S
C258   C264    1.401   .     S
C259   N272    1.300   .     S
C259   H466    1.140   .     S
C260   C261    1.397   .     D
C260   H467    1.140   .     S
C261   C262    1.407   .     S
C261   H468    1.140   .     S
C262   C263    1.404   .     S
C262   C268    1.476   .     D
C263   C264    1.397   .     D
C263   H469    1.140   .     S
C264   H470    1.140   .     S
N265   C266    1.359   .     D
N265   C270    1.472   .     S
C266   N267    1.352   .     S
C266   Au279   1.994   .     S
N267   C269    1.465   .     S
C268   N271    1.300   .     S
C268   H471    1.140   .     S
C269   C281    1.526   .     D
C269   H472    1.140   .     S
C270   C280    1.525   .     D
C270   H473    1.140   .     S
N272   C273    1.436   .     D
C273   C274    1.402   .     S
C273   C278    1.408   .     S
C274   C275    1.399   .     D
C274   H474    1.140   .     S
C275   C276    1.403   .     S
C275   H475    1.140   .     S
C276   C277    1.397   .     S
C277   C278    1.394   .     D
C277   H476    1.140   .     S
C278   H477    1.140   .     S
C280   H478    1.140   .     S
C280   H479    1.140   .     S
C281   H480    1.140   .     S
C281   H481    1.140   .     S
C282   H482    1.140   .     S
C283   N284    1.476   .     S
C283   H483    1.140   .     S
N284   C285    1.475   .     S
N284   C289    1.473   .     D
C285   C286    1.528   .     D
C285   H484    1.140   .     S
C286   N287    1.469   .     S
C286   H485    1.140   .     S
N287   C288    1.473   .     S
N287   H486    1.110   .     S
C288   C289    1.540   .     S
C288   C290    1.531   .     D
C289   H487    1.140   .     S
C290   H488    1.140   .     S
C290   H489    1.140   .     S
C291   N292    1.479   .     S
C291   H490    1.140   .     S
N292   C293    1.475   .     D
N292   C297    1.478   .     S
C293   C294    1.541   .     S
C293   H491    1.140   .     S
C294   N295    1.475   .     S
C294   C298    1.540   .     D
N295   C296    1.468   .     S
N295   H492    1.110   .     S
C296   C297    1.529   .     D
C296   H493    1.140   .     S
C297   H494    1.140   .     S
C298   H495    1.140   .     S
C298   H496    1.140   .     S
C299   N300    1.494   .     S
C299   H497    1.140   .     S
N300   C301    1.485   .     D
N300   C305    1.486   .     S
C301   C302    1.535   .     S
C301   H498    1.140   .     S
C302   N303    1.467   .     S
C302   C306    1.531   .     D
N303   C304    1.464   .     S
N303   H499    1.110   .     S
C304   C305    1.538   .     D
C304   H500    1.140   .     S
C305   H501    1.140   .     S
C306   H502    1.140   .     S
C306   H503    1.140   .     S
C307   N308    1.486   .     S
C307   H504    1.140   .     S
C307   C45     1.529   1_665 D
N308   C309    1.483   .     D
N308   C313    1.494   .     S
C309   C310    1.549   .     S
C309   H505    1.140   .     S
C310   N311    1.478   .     S
C310   C314    1.537   .     D
N311   C312    1.462   .     S
N311   H506    1.110   .     S
C312   C313    1.536   .     D
C312   H507    1.140   .     S
C313   H508    1.140   .     S
C314   H509    1.140   .     S
C314   H510    1.140   .     S
