data_910
_audit_creation_date              2023-09-08
_audit_creation_method            'Materials Studio'
_symmetry_space_group_name_H-M    'P1'
_symmetry_Int_Tables_number       1
_symmetry_cell_setting            triclinic
loop_
_symmetry_equiv_pos_as_xyz
  x,y,z
_cell_length_a                    64.4930
_cell_length_b                    64.4930
_cell_length_c                    31.1324
_cell_angle_alpha                 90.0000
_cell_angle_beta                  90.0000
_cell_angle_gamma                 90.0000
loop_
_atom_site_label
_atom_site_type_symbol
_atom_site_fract_x
_atom_site_fract_y
_atom_site_fract_z
_atom_site_U_iso_or_equiv
_atom_site_adp_type
_atom_site_occupancy
C1     C     0.41316   0.49511   0.53893   0.00000  Uiso   1.00
C2     C     0.39155   0.49390   0.53890   0.00000  Uiso   1.00
C3     C     0.31369   0.50537   0.46135   0.00000  Uiso   1.00
C4     C     0.05357   0.49558   0.11157   0.00000  Uiso   1.00
C5     C     0.06367   0.51350   0.12585   0.00000  Uiso   1.00
C6     C     0.07813   0.51232   0.15912   0.00000  Uiso   1.00
C7     C     0.08256   0.49332   0.17884   0.00000  Uiso   1.00
C8     C     0.07277   0.47523   0.16359   0.00000  Uiso   1.00
C9     C     0.05832   0.47643   0.13028   0.00000  Uiso   1.00
N10    N     0.09697   0.49320   0.21404   0.00000  Uiso   1.00
C11    C     0.09967   0.47827   0.24147   0.00000  Uiso   1.00
C12    C     0.11453   0.48045   0.27721   0.00000  Uiso   1.00
C13    C     0.11588   0.46474   0.30816   0.00000  Uiso   1.00
C14    C     0.12921   0.46679   0.34322   0.00000  Uiso   1.00
C15    C     0.14152   0.48461   0.34801   0.00000  Uiso   1.00
C16    C     0.14039   0.50020   0.31658   0.00000  Uiso   1.00
C17    C     0.12703   0.49816   0.28154   0.00000  Uiso   1.00
C18    C     0.15503   0.48714   0.38625   0.00000  Uiso   1.00
C19    C     0.16604   0.47017   0.40309   0.00000  Uiso   1.00
C20    C     0.17802   0.47240   0.44014   0.00000  Uiso   1.00
C21    C     0.17924   0.49161   0.46084   0.00000  Uiso   1.00
C22    C     0.16859   0.50865   0.44396   0.00000  Uiso   1.00
C23    C     0.15657   0.50645   0.40696   0.00000  Uiso   1.00
C24    C     0.29214   0.50336   0.53879   0.00000  Uiso   1.00
C25    C     0.24582   0.49901   0.53868   0.00000  Uiso   1.00
C26    C     0.22428   0.49693   0.53862   0.00000  Uiso   1.00
C27    C     0.50136   0.01664   0.90905   0.00000  Uiso   1.00
C28    C     0.50353   0.04386   0.03458   0.00000  Uiso   1.00
C29    C     0.50534   0.06434   0.02188   0.00000  Uiso   1.00
C30    C     0.01052   0.49916   0.86645   0.00000  Uiso   1.00
C31    C     0.96255   0.50305   0.07776   0.00000  Uiso   1.00
H32    H     0.42142   0.49555   0.56916   0.00000  Uiso   1.00
H33    H     0.38323   0.49341   0.56905   0.00000  Uiso   1.00
H34    H     0.32195   0.50613   0.43113   0.00000  Uiso   1.00
H35    H     0.06015   0.52838   0.11157   0.00000  Uiso   1.00
H36    H     0.08566   0.52632   0.17019   0.00000  Uiso   1.00
H37    H     0.07618   0.46017   0.17691   0.00000  Uiso   1.00
H38    H     0.05069   0.46246   0.11926   0.00000  Uiso   1.00
H39    H     0.09039   0.46434   0.23997   0.00000  Uiso   1.00
H40    H     0.10637   0.45098   0.30556   0.00000  Uiso   1.00
H41    H     0.12950   0.45464   0.36715   0.00000  Uiso   1.00
H42    H     0.14989   0.51397   0.31903   0.00000  Uiso   1.00
H43    H     0.12639   0.51049   0.25804   0.00000  Uiso   1.00
H44    H     0.16540   0.45518   0.38758   0.00000  Uiso   1.00
H45    H     0.18623   0.45917   0.45302   0.00000  Uiso   1.00
H46    H     0.16945   0.52355   0.45975   0.00000  Uiso   1.00
H47    H     0.14809   0.51975   0.39517   0.00000  Uiso   1.00
H48    H     0.28496   0.50268   0.56990   0.00000  Uiso   1.00
H49    H     0.25300   0.49977   0.56977   0.00000  Uiso   1.00
H50    H     0.21640   0.49629   0.56923   0.00000  Uiso   1.00
H51    H     0.50659   0.07792   0.04208   0.00000  Uiso   1.00
H52    H     0.02021   0.49840   0.83816   0.00000  Uiso   1.00
C53    C     0.58684   0.50489   0.53893   0.00000  Uiso   1.00
C54    C     0.60845   0.50610   0.53890   0.00000  Uiso   1.00
C55    C     0.68631   0.49463   0.46135   0.00000  Uiso   1.00
C56    C     0.94643   0.50442   0.11157   0.00000  Uiso   1.00
C57    C     0.93633   0.48650   0.12585   0.00000  Uiso   1.00
C58    C     0.92187   0.48768   0.15912   0.00000  Uiso   1.00
C59    C     0.91744   0.50668   0.17884   0.00000  Uiso   1.00
C60    C     0.92723   0.52477   0.16359   0.00000  Uiso   1.00
C61    C     0.94168   0.52357   0.13028   0.00000  Uiso   1.00
N62    N     0.90303   0.50680   0.21404   0.00000  Uiso   1.00
C63    C     0.90033   0.52173   0.24147   0.00000  Uiso   1.00
C64    C     0.88547   0.51955   0.27721   0.00000  Uiso   1.00
C65    C     0.88412   0.53526   0.30816   0.00000  Uiso   1.00
C66    C     0.87079   0.53321   0.34322   0.00000  Uiso   1.00
C67    C     0.85848   0.51539   0.34801   0.00000  Uiso   1.00
C68    C     0.85961   0.49980   0.31658   0.00000  Uiso   1.00
C69    C     0.87297   0.50184   0.28154   0.00000  Uiso   1.00
C70    C     0.84497   0.51286   0.38625   0.00000  Uiso   1.00
C71    C     0.83396   0.52983   0.40309   0.00000  Uiso   1.00
C72    C     0.82198   0.52760   0.44014   0.00000  Uiso   1.00
C73    C     0.82076   0.50839   0.46084   0.00000  Uiso   1.00
C74    C     0.83141   0.49135   0.44396   0.00000  Uiso   1.00
C75    C     0.84343   0.49355   0.40696   0.00000  Uiso   1.00
C76    C     0.70786   0.49664   0.53879   0.00000  Uiso   1.00
C77    C     0.75418   0.50099   0.53868   0.00000  Uiso   1.00
C78    C     0.77572   0.50307   0.53862   0.00000  Uiso   1.00
C79    C     0.49864   0.98336   0.90905   0.00000  Uiso   1.00
C80    C     0.49647   0.95614   0.03458   0.00000  Uiso   1.00
C81    C     0.49466   0.93566   0.02188   0.00000  Uiso   1.00
C82    C     0.98948   0.50084   0.86645   0.00000  Uiso   1.00
C83    C     0.03745   0.49695   0.07776   0.00000  Uiso   1.00
H84    H     0.57858   0.50445   0.56916   0.00000  Uiso   1.00
H85    H     0.61677   0.50659   0.56905   0.00000  Uiso   1.00
H86    H     0.67805   0.49387   0.43113   0.00000  Uiso   1.00
H87    H     0.93985   0.47162   0.11157   0.00000  Uiso   1.00
H88    H     0.91434   0.47368   0.17019   0.00000  Uiso   1.00
H89    H     0.92382   0.53983   0.17691   0.00000  Uiso   1.00
H90    H     0.94931   0.53754   0.11926   0.00000  Uiso   1.00
H91    H     0.90961   0.53566   0.23997   0.00000  Uiso   1.00
H92    H     0.89363   0.54902   0.30556   0.00000  Uiso   1.00
H93    H     0.87050   0.54536   0.36715   0.00000  Uiso   1.00
H94    H     0.85011   0.48603   0.31903   0.00000  Uiso   1.00
H95    H     0.87361   0.48951   0.25804   0.00000  Uiso   1.00
H96    H     0.83460   0.54482   0.38758   0.00000  Uiso   1.00
H97    H     0.81377   0.54083   0.45302   0.00000  Uiso   1.00
H98    H     0.83055   0.47645   0.45975   0.00000  Uiso   1.00
H99    H     0.85191   0.48025   0.39517   0.00000  Uiso   1.00
H100   H     0.71504   0.49732   0.56990   0.00000  Uiso   1.00
H101   H     0.74700   0.50023   0.56977   0.00000  Uiso   1.00
H102   H     0.78360   0.50371   0.56923   0.00000  Uiso   1.00
H103   H     0.49341   0.92208   0.04208   0.00000  Uiso   1.00
H104   H     0.97979   0.50160   0.83816   0.00000  Uiso   1.00
C105   C     0.50489   0.41316   0.53893   0.00000  Uiso   1.00
C106   C     0.50610   0.39155   0.53890   0.00000  Uiso   1.00
C107   C     0.49463   0.31369   0.46135   0.00000  Uiso   1.00
C108   C     0.50442   0.05357   0.11157   0.00000  Uiso   1.00
C109   C     0.48650   0.06367   0.12585   0.00000  Uiso   1.00
C110   C     0.48768   0.07813   0.15912   0.00000  Uiso   1.00
C111   C     0.50668   0.08256   0.17884   0.00000  Uiso   1.00
C112   C     0.52477   0.07277   0.16359   0.00000  Uiso   1.00
C113   C     0.52357   0.05832   0.13028   0.00000  Uiso   1.00
N114   N     0.50680   0.09697   0.21404   0.00000  Uiso   1.00
C115   C     0.52173   0.09967   0.24147   0.00000  Uiso   1.00
C116   C     0.51955   0.11453   0.27721   0.00000  Uiso   1.00
C117   C     0.53526   0.11588   0.30816   0.00000  Uiso   1.00
C118   C     0.53321   0.12921   0.34322   0.00000  Uiso   1.00
C119   C     0.51539   0.14152   0.34801   0.00000  Uiso   1.00
C120   C     0.49980   0.14039   0.31658   0.00000  Uiso   1.00
C121   C     0.50184   0.12703   0.28154   0.00000  Uiso   1.00
C122   C     0.51286   0.15503   0.38625   0.00000  Uiso   1.00
C123   C     0.52983   0.16604   0.40309   0.00000  Uiso   1.00
C124   C     0.52760   0.17802   0.44014   0.00000  Uiso   1.00
C125   C     0.50839   0.17924   0.46084   0.00000  Uiso   1.00
C126   C     0.49135   0.16859   0.44396   0.00000  Uiso   1.00
C127   C     0.49355   0.15657   0.40696   0.00000  Uiso   1.00
C128   C     0.49664   0.29214   0.53879   0.00000  Uiso   1.00
C129   C     0.50099   0.24582   0.53868   0.00000  Uiso   1.00
C130   C     0.50307   0.22428   0.53862   0.00000  Uiso   1.00
C131   C     0.98336   0.50136   0.90905   0.00000  Uiso   1.00
C132   C     0.95614   0.50353   0.03458   0.00000  Uiso   1.00
C133   C     0.93566   0.50534   0.02188   0.00000  Uiso   1.00
C134   C     0.50084   0.01052   0.86645   0.00000  Uiso   1.00
C135   C     0.49695   0.96255   0.07776   0.00000  Uiso   1.00
H136   H     0.50445   0.42142   0.56916   0.00000  Uiso   1.00
H137   H     0.50659   0.38323   0.56905   0.00000  Uiso   1.00
H138   H     0.49387   0.32195   0.43113   0.00000  Uiso   1.00
H139   H     0.47162   0.06015   0.11157   0.00000  Uiso   1.00
H140   H     0.47368   0.08566   0.17019   0.00000  Uiso   1.00
H141   H     0.53983   0.07618   0.17691   0.00000  Uiso   1.00
H142   H     0.53754   0.05069   0.11926   0.00000  Uiso   1.00
H143   H     0.53566   0.09039   0.23997   0.00000  Uiso   1.00
H144   H     0.54902   0.10637   0.30556   0.00000  Uiso   1.00
H145   H     0.54536   0.12950   0.36715   0.00000  Uiso   1.00
H146   H     0.48603   0.14989   0.31903   0.00000  Uiso   1.00
H147   H     0.48951   0.12639   0.25804   0.00000  Uiso   1.00
H148   H     0.54482   0.16540   0.38758   0.00000  Uiso   1.00
H149   H     0.54083   0.18623   0.45302   0.00000  Uiso   1.00
H150   H     0.47645   0.16945   0.45975   0.00000  Uiso   1.00
H151   H     0.48025   0.14809   0.39517   0.00000  Uiso   1.00
H152   H     0.49732   0.28496   0.56990   0.00000  Uiso   1.00
H153   H     0.50023   0.25300   0.56977   0.00000  Uiso   1.00
H154   H     0.50371   0.21640   0.56923   0.00000  Uiso   1.00
H155   H     0.92208   0.50659   0.04208   0.00000  Uiso   1.00
H156   H     0.50160   0.02021   0.83816   0.00000  Uiso   1.00
C157   C     0.49511   0.58684   0.53893   0.00000  Uiso   1.00
C158   C     0.49390   0.60845   0.53890   0.00000  Uiso   1.00
C159   C     0.50537   0.68631   0.46135   0.00000  Uiso   1.00
C160   C     0.49558   0.94643   0.11157   0.00000  Uiso   1.00
C161   C     0.51350   0.93633   0.12585   0.00000  Uiso   1.00
C162   C     0.51232   0.92187   0.15912   0.00000  Uiso   1.00
C163   C     0.49332   0.91744   0.17884   0.00000  Uiso   1.00
C164   C     0.47523   0.92723   0.16359   0.00000  Uiso   1.00
C165   C     0.47643   0.94168   0.13028   0.00000  Uiso   1.00
N166   N     0.49320   0.90303   0.21404   0.00000  Uiso   1.00
C167   C     0.47827   0.90033   0.24147   0.00000  Uiso   1.00
C168   C     0.48045   0.88547   0.27721   0.00000  Uiso   1.00
C169   C     0.46474   0.88412   0.30816   0.00000  Uiso   1.00
C170   C     0.46679   0.87079   0.34322   0.00000  Uiso   1.00
C171   C     0.48461   0.85848   0.34801   0.00000  Uiso   1.00
C172   C     0.50020   0.85961   0.31658   0.00000  Uiso   1.00
C173   C     0.49816   0.87297   0.28154   0.00000  Uiso   1.00
C174   C     0.48714   0.84497   0.38625   0.00000  Uiso   1.00
C175   C     0.47017   0.83396   0.40309   0.00000  Uiso   1.00
C176   C     0.47240   0.82198   0.44014   0.00000  Uiso   1.00
C177   C     0.49161   0.82076   0.46084   0.00000  Uiso   1.00
C178   C     0.50865   0.83141   0.44396   0.00000  Uiso   1.00
C179   C     0.50645   0.84343   0.40696   0.00000  Uiso   1.00
C180   C     0.50336   0.70786   0.53879   0.00000  Uiso   1.00
C181   C     0.49901   0.75418   0.53868   0.00000  Uiso   1.00
C182   C     0.49693   0.77572   0.53862   0.00000  Uiso   1.00
C183   C     0.01664   0.49864   0.90905   0.00000  Uiso   1.00
C184   C     0.04386   0.49647   0.03458   0.00000  Uiso   1.00
C185   C     0.06434   0.49466   0.02188   0.00000  Uiso   1.00
C186   C     0.49916   0.98948   0.86645   0.00000  Uiso   1.00
C187   C     0.50305   0.03745   0.07776   0.00000  Uiso   1.00
H188   H     0.49555   0.57858   0.56916   0.00000  Uiso   1.00
H189   H     0.49341   0.61677   0.56905   0.00000  Uiso   1.00
H190   H     0.50613   0.67805   0.43113   0.00000  Uiso   1.00
H191   H     0.52838   0.93985   0.11157   0.00000  Uiso   1.00
H192   H     0.52632   0.91434   0.17019   0.00000  Uiso   1.00
H193   H     0.46017   0.92382   0.17691   0.00000  Uiso   1.00
H194   H     0.46246   0.94931   0.11926   0.00000  Uiso   1.00
H195   H     0.46434   0.90961   0.23997   0.00000  Uiso   1.00
H196   H     0.45098   0.89363   0.30556   0.00000  Uiso   1.00
H197   H     0.45464   0.87050   0.36715   0.00000  Uiso   1.00
H198   H     0.51397   0.85011   0.31903   0.00000  Uiso   1.00
H199   H     0.51049   0.87361   0.25804   0.00000  Uiso   1.00
H200   H     0.45518   0.83460   0.38758   0.00000  Uiso   1.00
H201   H     0.45917   0.81377   0.45302   0.00000  Uiso   1.00
H202   H     0.52355   0.83055   0.45975   0.00000  Uiso   1.00
H203   H     0.51975   0.85191   0.39517   0.00000  Uiso   1.00
H204   H     0.50268   0.71504   0.56990   0.00000  Uiso   1.00
H205   H     0.49977   0.74700   0.56977   0.00000  Uiso   1.00
H206   H     0.49629   0.78360   0.56923   0.00000  Uiso   1.00
H207   H     0.07792   0.49341   0.04208   0.00000  Uiso   1.00
H208   H     0.49840   0.97979   0.83816   0.00000  Uiso   1.00
C209   C     0.58684   0.50489   0.46107   0.00000  Uiso   1.00
C210   C     0.60845   0.50610   0.46110   0.00000  Uiso   1.00
C211   C     0.68631   0.49463   0.53865   0.00000  Uiso   1.00
C212   C     0.94643   0.50442   0.88843   0.00000  Uiso   1.00
C213   C     0.93633   0.48650   0.87415   0.00000  Uiso   1.00
C214   C     0.92187   0.48768   0.84088   0.00000  Uiso   1.00
C215   C     0.91744   0.50668   0.82116   0.00000  Uiso   1.00
C216   C     0.92723   0.52477   0.83641   0.00000  Uiso   1.00
C217   C     0.94168   0.52357   0.86972   0.00000  Uiso   1.00
N218   N     0.90303   0.50680   0.78596   0.00000  Uiso   1.00
C219   C     0.90033   0.52173   0.75853   0.00000  Uiso   1.00
C220   C     0.88547   0.51955   0.72279   0.00000  Uiso   1.00
C221   C     0.88412   0.53526   0.69184   0.00000  Uiso   1.00
C222   C     0.87079   0.53321   0.65678   0.00000  Uiso   1.00
C223   C     0.85848   0.51539   0.65199   0.00000  Uiso   1.00
C224   C     0.85961   0.49980   0.68342   0.00000  Uiso   1.00
C225   C     0.87297   0.50184   0.71846   0.00000  Uiso   1.00
C226   C     0.84497   0.51286   0.61375   0.00000  Uiso   1.00
C227   C     0.83396   0.52983   0.59691   0.00000  Uiso   1.00
C228   C     0.82198   0.52760   0.55986   0.00000  Uiso   1.00
C229   C     0.82076   0.50839   0.53916   0.00000  Uiso   1.00
C230   C     0.83141   0.49135   0.55604   0.00000  Uiso   1.00
C231   C     0.84343   0.49355   0.59304   0.00000  Uiso   1.00
C232   C     0.70786   0.49664   0.46121   0.00000  Uiso   1.00
C233   C     0.75418   0.50099   0.46132   0.00000  Uiso   1.00
C234   C     0.77572   0.50307   0.46138   0.00000  Uiso   1.00
C235   C     0.49864   0.98336   0.09095   0.00000  Uiso   1.00
C236   C     0.49647   0.95614   0.96542   0.00000  Uiso   1.00
C237   C     0.49466   0.93566   0.97812   0.00000  Uiso   1.00
C238   C     0.98948   0.50084   0.13355   0.00000  Uiso   1.00
C239   C     0.03745   0.49695   0.92224   0.00000  Uiso   1.00
H240   H     0.57858   0.50445   0.43084   0.00000  Uiso   1.00
H241   H     0.61677   0.50659   0.43095   0.00000  Uiso   1.00
H242   H     0.67805   0.49387   0.56887   0.00000  Uiso   1.00
H243   H     0.93985   0.47162   0.88843   0.00000  Uiso   1.00
H244   H     0.91434   0.47368   0.82981   0.00000  Uiso   1.00
H245   H     0.92382   0.53983   0.82309   0.00000  Uiso   1.00
H246   H     0.94931   0.53754   0.88074   0.00000  Uiso   1.00
H247   H     0.90961   0.53566   0.76003   0.00000  Uiso   1.00
H248   H     0.89363   0.54902   0.69444   0.00000  Uiso   1.00
H249   H     0.87050   0.54536   0.63285   0.00000  Uiso   1.00
H250   H     0.85011   0.48603   0.68097   0.00000  Uiso   1.00
H251   H     0.87361   0.48951   0.74196   0.00000  Uiso   1.00
H252   H     0.83460   0.54482   0.61242   0.00000  Uiso   1.00
H253   H     0.81377   0.54083   0.54698   0.00000  Uiso   1.00
H254   H     0.83055   0.47645   0.54025   0.00000  Uiso   1.00
H255   H     0.85191   0.48025   0.60483   0.00000  Uiso   1.00
H256   H     0.71504   0.49732   0.43010   0.00000  Uiso   1.00
H257   H     0.74700   0.50023   0.43023   0.00000  Uiso   1.00
H258   H     0.78360   0.50371   0.43077   0.00000  Uiso   1.00
H259   H     0.49341   0.92208   0.95792   0.00000  Uiso   1.00
H260   H     0.97979   0.50160   0.16184   0.00000  Uiso   1.00
C261   C     0.41316   0.49511   0.46107   0.00000  Uiso   1.00
C262   C     0.39155   0.49390   0.46110   0.00000  Uiso   1.00
C263   C     0.31369   0.50537   0.53865   0.00000  Uiso   1.00
C264   C     0.05357   0.49558   0.88843   0.00000  Uiso   1.00
C265   C     0.06367   0.51350   0.87415   0.00000  Uiso   1.00
C266   C     0.07813   0.51232   0.84088   0.00000  Uiso   1.00
C267   C     0.08256   0.49332   0.82116   0.00000  Uiso   1.00
C268   C     0.07277   0.47523   0.83641   0.00000  Uiso   1.00
C269   C     0.05832   0.47643   0.86972   0.00000  Uiso   1.00
N270   N     0.09697   0.49320   0.78596   0.00000  Uiso   1.00
C271   C     0.09967   0.47827   0.75853   0.00000  Uiso   1.00
C272   C     0.11453   0.48045   0.72279   0.00000  Uiso   1.00
C273   C     0.11588   0.46474   0.69184   0.00000  Uiso   1.00
C274   C     0.12921   0.46679   0.65678   0.00000  Uiso   1.00
C275   C     0.14152   0.48461   0.65199   0.00000  Uiso   1.00
C276   C     0.14039   0.50020   0.68342   0.00000  Uiso   1.00
C277   C     0.12703   0.49816   0.71846   0.00000  Uiso   1.00
C278   C     0.15503   0.48714   0.61375   0.00000  Uiso   1.00
C279   C     0.16604   0.47017   0.59691   0.00000  Uiso   1.00
C280   C     0.17802   0.47240   0.55986   0.00000  Uiso   1.00
C281   C     0.17924   0.49161   0.53916   0.00000  Uiso   1.00
C282   C     0.16859   0.50865   0.55604   0.00000  Uiso   1.00
C283   C     0.15657   0.50645   0.59304   0.00000  Uiso   1.00
C284   C     0.29214   0.50336   0.46121   0.00000  Uiso   1.00
C285   C     0.24582   0.49901   0.46132   0.00000  Uiso   1.00
C286   C     0.22428   0.49693   0.46138   0.00000  Uiso   1.00
C287   C     0.50136   0.01664   0.09095   0.00000  Uiso   1.00
C288   C     0.50353   0.04386   0.96542   0.00000  Uiso   1.00
C289   C     0.50534   0.06434   0.97812   0.00000  Uiso   1.00
C290   C     0.01052   0.49916   0.13355   0.00000  Uiso   1.00
C291   C     0.96255   0.50305   0.92224   0.00000  Uiso   1.00
H292   H     0.42142   0.49555   0.43084   0.00000  Uiso   1.00
H293   H     0.38323   0.49341   0.43095   0.00000  Uiso   1.00
H294   H     0.32195   0.50613   0.56887   0.00000  Uiso   1.00
H295   H     0.06015   0.52838   0.88843   0.00000  Uiso   1.00
H296   H     0.08566   0.52632   0.82981   0.00000  Uiso   1.00
H297   H     0.07618   0.46017   0.82309   0.00000  Uiso   1.00
H298   H     0.05069   0.46246   0.88074   0.00000  Uiso   1.00
H299   H     0.09039   0.46434   0.76003   0.00000  Uiso   1.00
H300   H     0.10637   0.45098   0.69444   0.00000  Uiso   1.00
H301   H     0.12950   0.45464   0.63285   0.00000  Uiso   1.00
H302   H     0.14989   0.51397   0.68097   0.00000  Uiso   1.00
H303   H     0.12639   0.51049   0.74196   0.00000  Uiso   1.00
H304   H     0.16540   0.45518   0.61242   0.00000  Uiso   1.00
H305   H     0.18623   0.45917   0.54698   0.00000  Uiso   1.00
H306   H     0.16945   0.52355   0.54025   0.00000  Uiso   1.00
H307   H     0.14809   0.51975   0.60483   0.00000  Uiso   1.00
H308   H     0.28496   0.50268   0.43010   0.00000  Uiso   1.00
H309   H     0.25300   0.49977   0.43023   0.00000  Uiso   1.00
H310   H     0.21640   0.49629   0.43077   0.00000  Uiso   1.00
H311   H     0.50659   0.07792   0.95792   0.00000  Uiso   1.00
H312   H     0.02021   0.49840   0.16184   0.00000  Uiso   1.00
C313   C     0.49511   0.58684   0.46107   0.00000  Uiso   1.00
C314   C     0.49390   0.60845   0.46110   0.00000  Uiso   1.00
C315   C     0.50537   0.68631   0.53865   0.00000  Uiso   1.00
C316   C     0.49558   0.94643   0.88843   0.00000  Uiso   1.00
C317   C     0.51350   0.93633   0.87415   0.00000  Uiso   1.00
C318   C     0.51232   0.92187   0.84088   0.00000  Uiso   1.00
C319   C     0.49332   0.91744   0.82116   0.00000  Uiso   1.00
C320   C     0.47523   0.92723   0.83641   0.00000  Uiso   1.00
C321   C     0.47643   0.94168   0.86972   0.00000  Uiso   1.00
N322   N     0.49320   0.90303   0.78596   0.00000  Uiso   1.00
C323   C     0.47827   0.90033   0.75853   0.00000  Uiso   1.00
C324   C     0.48045   0.88547   0.72279   0.00000  Uiso   1.00
C325   C     0.46474   0.88412   0.69184   0.00000  Uiso   1.00
C326   C     0.46679   0.87079   0.65678   0.00000  Uiso   1.00
C327   C     0.48461   0.85848   0.65199   0.00000  Uiso   1.00
C328   C     0.50020   0.85961   0.68342   0.00000  Uiso   1.00
C329   C     0.49816   0.87297   0.71846   0.00000  Uiso   1.00
C330   C     0.48714   0.84497   0.61375   0.00000  Uiso   1.00
C331   C     0.47017   0.83396   0.59691   0.00000  Uiso   1.00
C332   C     0.47240   0.82198   0.55986   0.00000  Uiso   1.00
C333   C     0.49161   0.82076   0.53916   0.00000  Uiso   1.00
C334   C     0.50865   0.83141   0.55604   0.00000  Uiso   1.00
C335   C     0.50645   0.84343   0.59304   0.00000  Uiso   1.00
C336   C     0.50336   0.70786   0.46121   0.00000  Uiso   1.00
C337   C     0.49901   0.75418   0.46132   0.00000  Uiso   1.00
C338   C     0.49693   0.77572   0.46138   0.00000  Uiso   1.00
C339   C     0.01664   0.49864   0.09095   0.00000  Uiso   1.00
C340   C     0.04386   0.49647   0.96542   0.00000  Uiso   1.00
C341   C     0.06434   0.49466   0.97812   0.00000  Uiso   1.00
C342   C     0.49916   0.98948   0.13355   0.00000  Uiso   1.00
C343   C     0.50305   0.03745   0.92224   0.00000  Uiso   1.00
H344   H     0.49555   0.57858   0.43084   0.00000  Uiso   1.00
H345   H     0.49341   0.61677   0.43095   0.00000  Uiso   1.00
H346   H     0.50613   0.67805   0.56887   0.00000  Uiso   1.00
H347   H     0.52838   0.93985   0.88843   0.00000  Uiso   1.00
H348   H     0.52632   0.91434   0.82981   0.00000  Uiso   1.00
H349   H     0.46017   0.92382   0.82309   0.00000  Uiso   1.00
H350   H     0.46246   0.94931   0.88074   0.00000  Uiso   1.00
H351   H     0.46434   0.90961   0.76003   0.00000  Uiso   1.00
H352   H     0.45098   0.89363   0.69444   0.00000  Uiso   1.00
H353   H     0.45464   0.87050   0.63285   0.00000  Uiso   1.00
H354   H     0.51397   0.85011   0.68097   0.00000  Uiso   1.00
H355   H     0.51049   0.87361   0.74196   0.00000  Uiso   1.00
H356   H     0.45518   0.83460   0.61242   0.00000  Uiso   1.00
H357   H     0.45917   0.81377   0.54698   0.00000  Uiso   1.00
H358   H     0.52355   0.83055   0.54025   0.00000  Uiso   1.00
H359   H     0.51975   0.85191   0.60483   0.00000  Uiso   1.00
H360   H     0.50268   0.71504   0.43010   0.00000  Uiso   1.00
H361   H     0.49977   0.74700   0.43023   0.00000  Uiso   1.00
H362   H     0.49629   0.78360   0.43077   0.00000  Uiso   1.00
H363   H     0.07792   0.49341   0.95792   0.00000  Uiso   1.00
H364   H     0.49840   0.97979   0.16184   0.00000  Uiso   1.00
C365   C     0.50489   0.41316   0.46107   0.00000  Uiso   1.00
C366   C     0.50610   0.39155   0.46110   0.00000  Uiso   1.00
C367   C     0.49463   0.31369   0.53865   0.00000  Uiso   1.00
C368   C     0.50442   0.05357   0.88843   0.00000  Uiso   1.00
C369   C     0.48650   0.06367   0.87415   0.00000  Uiso   1.00
C370   C     0.48768   0.07813   0.84088   0.00000  Uiso   1.00
C371   C     0.50668   0.08256   0.82116   0.00000  Uiso   1.00
C372   C     0.52477   0.07277   0.83641   0.00000  Uiso   1.00
C373   C     0.52357   0.05832   0.86972   0.00000  Uiso   1.00
N374   N     0.50680   0.09697   0.78596   0.00000  Uiso   1.00
C375   C     0.52173   0.09967   0.75853   0.00000  Uiso   1.00
C376   C     0.51955   0.11453   0.72279   0.00000  Uiso   1.00
C377   C     0.53526   0.11588   0.69184   0.00000  Uiso   1.00
C378   C     0.53321   0.12921   0.65678   0.00000  Uiso   1.00
C379   C     0.51539   0.14152   0.65199   0.00000  Uiso   1.00
C380   C     0.49980   0.14039   0.68342   0.00000  Uiso   1.00
C381   C     0.50184   0.12703   0.71846   0.00000  Uiso   1.00
C382   C     0.51286   0.15503   0.61375   0.00000  Uiso   1.00
C383   C     0.52983   0.16604   0.59691   0.00000  Uiso   1.00
C384   C     0.52760   0.17802   0.55986   0.00000  Uiso   1.00
C385   C     0.50839   0.17924   0.53916   0.00000  Uiso   1.00
C386   C     0.49135   0.16859   0.55604   0.00000  Uiso   1.00
C387   C     0.49355   0.15657   0.59304   0.00000  Uiso   1.00
C388   C     0.49664   0.29214   0.46121   0.00000  Uiso   1.00
C389   C     0.50099   0.24582   0.46132   0.00000  Uiso   1.00
C390   C     0.50307   0.22428   0.46138   0.00000  Uiso   1.00
C391   C     0.98336   0.50136   0.09095   0.00000  Uiso   1.00
C392   C     0.95614   0.50353   0.96542   0.00000  Uiso   1.00
C393   C     0.93566   0.50534   0.97812   0.00000  Uiso   1.00
C394   C     0.50084   0.01052   0.13355   0.00000  Uiso   1.00
C395   C     0.49695   0.96255   0.92224   0.00000  Uiso   1.00
H396   H     0.50445   0.42142   0.43084   0.00000  Uiso   1.00
H397   H     0.50659   0.38323   0.43095   0.00000  Uiso   1.00
H398   H     0.49387   0.32195   0.56887   0.00000  Uiso   1.00
H399   H     0.47162   0.06015   0.88843   0.00000  Uiso   1.00
H400   H     0.47368   0.08566   0.82981   0.00000  Uiso   1.00
H401   H     0.53983   0.07618   0.82309   0.00000  Uiso   1.00
H402   H     0.53754   0.05069   0.88074   0.00000  Uiso   1.00
H403   H     0.53566   0.09039   0.76003   0.00000  Uiso   1.00
H404   H     0.54902   0.10637   0.69444   0.00000  Uiso   1.00
H405   H     0.54536   0.12950   0.63285   0.00000  Uiso   1.00
H406   H     0.48603   0.14989   0.68097   0.00000  Uiso   1.00
H407   H     0.48951   0.12639   0.74196   0.00000  Uiso   1.00
H408   H     0.54482   0.16540   0.61242   0.00000  Uiso   1.00
H409   H     0.54083   0.18623   0.54698   0.00000  Uiso   1.00
H410   H     0.47645   0.16945   0.54025   0.00000  Uiso   1.00
H411   H     0.48025   0.14809   0.60483   0.00000  Uiso   1.00
H412   H     0.49732   0.28496   0.43010   0.00000  Uiso   1.00
H413   H     0.50023   0.25300   0.43023   0.00000  Uiso   1.00
H414   H     0.50371   0.21640   0.43077   0.00000  Uiso   1.00
H415   H     0.92208   0.50659   0.95792   0.00000  Uiso   1.00
H416   H     0.50160   0.02021   0.16184   0.00000  Uiso   1.00
C417   C     0.49702   0.55302   0.50000   0.00000  Uiso   1.00
C418   C     0.47835   0.54173   0.50000   0.00000  Uiso   1.00
C419   C     0.45893   0.55086   0.50000   0.00000  Uiso   1.00
C420   C     0.42405   0.49573   0.50000   0.00000  Uiso   1.00
C421   C     0.38069   0.49337   0.50000   0.00000  Uiso   1.00
N422   N     0.35862   0.49203   0.50000   0.00000  Uiso   1.00
C423   C     0.28068   0.50229   0.50000   0.00000  Uiso   1.00
C424   C     0.25727   0.50007   0.50000   0.00000  Uiso   1.00
C425   C     0.21314   0.49573   0.50000   0.00000  Uiso   1.00
C426   C     0.45611   0.51684   0.50000   0.00000  Uiso   1.00
C427   C     0.44485   0.53511   0.50000   0.00000  Uiso   1.00
N428   N     0.47672   0.52080   0.50000   0.00000  Uiso   1.00
N429   N     0.19076   0.49362   0.50000   0.00000  Uiso   1.00
C430   C     0.34708   0.50844   0.50000   0.00000  Uiso   1.00
C431   C     0.32451   0.50635   0.50000   0.00000  Uiso   1.00
H432   H     0.45524   0.56722   0.50000   0.00000  Uiso   1.00
H433   H     0.42818   0.53694   0.50000   0.00000  Uiso   1.00
H434   H     0.35391   0.52378   0.50000   0.00000  Uiso   1.00
C435   C     0.50298   0.44698   0.50000   0.00000  Uiso   1.00
C436   C     0.52165   0.45827   0.50000   0.00000  Uiso   1.00
C437   C     0.54107   0.44914   0.50000   0.00000  Uiso   1.00
C438   C     0.57595   0.50427   0.50000   0.00000  Uiso   1.00
C439   C     0.61931   0.50663   0.50000   0.00000  Uiso   1.00
N440   N     0.64138   0.50797   0.50000   0.00000  Uiso   1.00
C441   C     0.71932   0.49771   0.50000   0.00000  Uiso   1.00
C442   C     0.74273   0.49993   0.50000   0.00000  Uiso   1.00
C443   C     0.78686   0.50427   0.50000   0.00000  Uiso   1.00
C444   C     0.54389   0.48316   0.50000   0.00000  Uiso   1.00
C445   C     0.55515   0.46489   0.50000   0.00000  Uiso   1.00
N446   N     0.52328   0.47920   0.50000   0.00000  Uiso   1.00
N447   N     0.80924   0.50638   0.50000   0.00000  Uiso   1.00
C448   C     0.65292   0.49156   0.50000   0.00000  Uiso   1.00
C449   C     0.67549   0.49365   0.50000   0.00000  Uiso   1.00
H450   H     0.54476   0.43278   0.50000   0.00000  Uiso   1.00
H451   H     0.57182   0.46306   0.50000   0.00000  Uiso   1.00
H452   H     0.64609   0.47622   0.50000   0.00000  Uiso   1.00
C453   C     0.44698   0.49702   0.50000   0.00000  Uiso   1.00
C454   C     0.45827   0.47835   0.50000   0.00000  Uiso   1.00
C455   C     0.44914   0.45893   0.50000   0.00000  Uiso   1.00
C456   C     0.50427   0.42405   0.50000   0.00000  Uiso   1.00
C457   C     0.50663   0.38069   0.50000   0.00000  Uiso   1.00
N458   N     0.50797   0.35862   0.50000   0.00000  Uiso   1.00
C459   C     0.49771   0.28068   0.50000   0.00000  Uiso   1.00
C460   C     0.49993   0.25727   0.50000   0.00000  Uiso   1.00
C461   C     0.50427   0.21314   0.50000   0.00000  Uiso   1.00
C462   C     0.48316   0.45611   0.50000   0.00000  Uiso   1.00
C463   C     0.46489   0.44485   0.50000   0.00000  Uiso   1.00
N464   N     0.47920   0.47672   0.50000   0.00000  Uiso   1.00
N465   N     0.50638   0.19076   0.50000   0.00000  Uiso   1.00
C466   C     0.49156   0.34708   0.50000   0.00000  Uiso   1.00
C467   C     0.49365   0.32451   0.50000   0.00000  Uiso   1.00
H468   H     0.43278   0.45524   0.50000   0.00000  Uiso   1.00
H469   H     0.46306   0.42818   0.50000   0.00000  Uiso   1.00
H470   H     0.47622   0.35391   0.50000   0.00000  Uiso   1.00
C471   C     0.55302   0.50298   0.50000   0.00000  Uiso   1.00
C472   C     0.54173   0.52165   0.50000   0.00000  Uiso   1.00
C473   C     0.55086   0.54107   0.50000   0.00000  Uiso   1.00
C474   C     0.49573   0.57595   0.50000   0.00000  Uiso   1.00
C475   C     0.49337   0.61931   0.50000   0.00000  Uiso   1.00
N476   N     0.49203   0.64138   0.50000   0.00000  Uiso   1.00
C477   C     0.50229   0.71932   0.50000   0.00000  Uiso   1.00
C478   C     0.50007   0.74273   0.50000   0.00000  Uiso   1.00
C479   C     0.49573   0.78686   0.50000   0.00000  Uiso   1.00
C480   C     0.51684   0.54389   0.50000   0.00000  Uiso   1.00
C481   C     0.53511   0.55515   0.50000   0.00000  Uiso   1.00
N482   N     0.52080   0.52328   0.50000   0.00000  Uiso   1.00
N483   N     0.49362   0.80924   0.50000   0.00000  Uiso   1.00
C484   C     0.50844   0.65292   0.50000   0.00000  Uiso   1.00
C485   C     0.50635   0.67549   0.50000   0.00000  Uiso   1.00
H486   H     0.56722   0.54476   0.50000   0.00000  Uiso   1.00
H487   H     0.53694   0.57182   0.50000   0.00000  Uiso   1.00
H488   H     0.52378   0.64609   0.50000   0.00000  Uiso   1.00
N489   N     0.96883   0.50242   0.00000   0.00000  Uiso   1.00
N490   N     0.03117   0.49758   0.00000   0.00000  Uiso   1.00
N491   N     0.49758   0.96883   0.00000   0.00000  Uiso   1.00
N492   N     0.50242   0.03117   0.00000   0.00000  Uiso   1.00
N493   N     0.00000   0.50000   0.06456   0.00000  Uiso   1.00
N494   N     0.50000   0.00000   0.06456   0.00000  Uiso   1.00
N495   N     0.00000   0.50000   0.93544   0.00000  Uiso   1.00
N496   N     0.50000   0.00000   0.93544   0.00000  Uiso   1.00
loop_
_geom_bond_atom_site_label_1
_geom_bond_atom_site_label_2
_geom_bond_distance
_geom_bond_site_symmetry_2
_ccdc_geom_bond_type
C1     C2      1.396   .     D
C1     H32     1.082   .     S
C1     C420    1.401   .     S
C2     H33     1.082   .     S
C2     C421    1.399   .     S
C3     H34     1.082   .     S
C3     C431    1.392   .     S
C3     C284    1.396   .     D
C4     C5      1.399   .     D
C4     C9      1.399   .     S
C4     C83     1.482   .     S
C5     C6      1.396   .     S
C5     H35     1.082   .     S
C6     C7      1.400   .     D
C6     H36     1.082   .     S
C7     C8      1.409   .     S
C7     N10     1.437   .     S
C8     C9      1.396   .     D
C8     H37     1.079   .     S
C9     H38     1.082   .     S
N10    C11     1.299   .     D
C11    C12     1.475   .     S
C11    H39     1.080   .     S
C12    C13     1.401   .     D
C12    C17     1.405   .     S
C13    C14     1.396   .     S
C13    H40     1.082   .     S
C14    C15     1.405   .     D
C14    H41     1.081   .     S
C15    C16     1.405   .     S
C15    C18     1.484   .     S
C16    C17     1.396   .     D
C16    H42     1.082   .     S
C17    H43     1.081   .     S
C18    C19     1.406   .     D
C18    C23     1.406   .     S
C19    C20     1.396   .     S
C19    H44     1.081   .     S
C20    C21     1.399   .     D
C20    H45     1.081   .     S
C21    C22     1.398   .     S
C21    N429    1.434   .     S
C22    C23     1.396   .     D
C22    H46     1.081   .     S
C23    H47     1.081   .     S
C24    H48     1.074   .     S
C24    C423    1.418   .     D
C24    C263    1.396   .     S
C25    C26     1.396   .     D
C25    H49     1.074   .     S
C25    C424    1.414   .     S
C26    H50     1.081   .     S
C26    C425    1.403   .     S
C27    C134    1.384   .     S
C27    C343    1.408   .     S
C27    N496    1.354   .     D
C28    C29     1.384   .     S
C28    N492    1.354   .     D
C28    C187    1.407   .     S
C29    H51     1.081   .     S
C29    C289    1.362   1_554 D
C30    H52     1.081   .     S
C30    C183    1.384   .     S
C30    C82     1.361   1_455 D
C31    C56     1.482   .     S
C31    C391    1.408   .     D
C31    C132    1.407   .     S
C53    C54     1.396   .     D
C53    H84     1.082   .     S
C53    C438    1.401   .     S
C54    H85     1.082   .     S
C54    C439    1.399   .     S
C55    H86     1.082   .     S
C55    C449    1.392   .     S
C55    C232    1.396   .     D
C56    C57     1.399   .     D
C56    C61     1.399   .     S
C57    C58     1.396   .     S
C57    H87     1.082   .     S
C58    C59     1.400   .     D
C58    H88     1.082   .     S
C59    C60     1.409   .     S
C59    N62     1.437   .     S
C60    C61     1.396   .     D
C60    H89     1.079   .     S
C61    H90     1.082   .     S
N62    C63     1.299   .     D
C63    C64     1.475   .     S
C63    H91     1.080   .     S
C64    C65     1.401   .     D
C64    C69     1.405   .     S
C65    C66     1.396   .     S
C65    H92     1.082   .     S
C66    C67     1.405   .     D
C66    H93     1.081   .     S
C67    C68     1.405   .     S
C67    C70     1.484   .     S
C68    C69     1.396   .     D
C68    H94     1.082   .     S
C69    H95     1.081   .     S
C70    C71     1.406   .     D
C70    C75     1.406   .     S
C71    C72     1.396   .     S
C71    H96     1.081   .     S
C72    C73     1.399   .     D
C72    H97     1.081   .     S
C73    C74     1.398   .     S
C73    N447    1.434   .     S
C74    C75     1.396   .     D
C74    H98     1.081   .     S
C75    H99     1.081   .     S
C76    H100    1.074   .     S
C76    C441    1.418   .     D
C76    C211    1.396   .     S
C77    C78     1.396   .     D
C77    H101    1.074   .     S
C77    C442    1.414   .     S
C78    H102    1.081   .     S
C78    C443    1.403   .     S
C79    C186    1.384   .     S
C79    C395    1.408   .     D
C79    N496    1.354   1_565 S
C80    C81     1.384   .     S
C80    N491    1.354   .     S
C80    C135    1.407   .     D
C81    H103    1.081   .     S
C81    C237    1.362   1_554 D
C82    H104    1.081   .     S
C82    C131    1.384   .     S
C82    C30     1.361   1_655 D
C83    C339    1.408   .     S
C83    C184    1.407   .     D
C105   C106    1.396   .     D
C105   H136    1.082   .     S
C105   C456    1.401   .     S
C106   H137    1.082   .     S
C106   C457    1.399   .     S
C107   H138    1.082   .     S
C107   C467    1.392   .     S
C107   C388    1.396   .     D
C108   C109    1.399   .     D
C108   C113    1.399   .     S
C108   C187    1.482   .     S
C109   C110    1.396   .     S
C109   H139    1.082   .     S
C110   C111    1.400   .     D
C110   H140    1.082   .     S
C111   C112    1.409   .     S
C111   N114    1.437   .     S
C112   C113    1.396   .     D
C112   H141    1.079   .     S
C113   H142    1.082   .     S
N114   C115    1.299   .     D
C115   C116    1.475   .     S
C115   H143    1.080   .     S
C116   C117    1.401   .     D
C116   C121    1.405   .     S
C117   C118    1.396   .     S
C117   H144    1.082   .     S
C118   C119    1.405   .     D
C118   H145    1.081   .     S
C119   C120    1.405   .     S
C119   C122    1.484   .     S
C120   C121    1.396   .     D
C120   H146    1.082   .     S
C121   H147    1.081   .     S
C122   C123    1.406   .     D
C122   C127    1.406   .     S
C123   C124    1.396   .     S
C123   H148    1.081   .     S
C124   C125    1.399   .     D
C124   H149    1.081   .     S
C125   C126    1.398   .     S
C125   N465    1.434   .     S
C126   C127    1.396   .     D
C126   H150    1.081   .     S
C127   H151    1.081   .     S
C128   H152    1.074   .     S
C128   C459    1.418   .     D
C128   C367    1.396   .     S
C129   C130    1.396   .     D
C129   H153    1.074   .     S
C129   C460    1.414   .     S
C130   H154    1.081   .     S
C130   C461    1.403   .     S
C131   C291    1.408   .     S
C131   N495    1.354   1_655 D
C132   C133    1.384   .     S
C132   N489    1.354   .     D
C133   H155    1.081   .     S
C133   C393    1.362   1_554 D
C134   H156    1.081   .     S
C134   C186    1.361   1_545 D
C135   C160    1.482   .     S
C135   C235    1.408   .     S
C157   C158    1.396   .     S
C157   H188    1.082   .     S
C157   C474    1.401   .     D
C158   H189    1.082   .     S
C158   C475    1.399   .     D
C159   H190    1.082   .     S
C159   C485    1.392   .     D
C159   C336    1.396   .     S
C160   C161    1.399   .     D
C160   C165    1.399   .     S
C161   C162    1.396   .     S
C161   H191    1.082   .     S
C162   C163    1.400   .     D
C162   H192    1.082   .     S
C163   C164    1.409   .     S
C163   N166    1.437   .     S
C164   C165    1.396   .     D
C164   H193    1.079   .     S
C165   H194    1.082   .     S
N166   C167    1.299   .     D
C167   C168    1.475   .     S
C167   H195    1.080   .     S
C168   C169    1.401   .     D
C168   C173    1.405   .     S
C169   C170    1.396   .     S
C169   H196    1.082   .     S
C170   C171    1.405   .     D
C170   H197    1.081   .     S
C171   C172    1.405   .     S
C171   C174    1.484   .     S
C172   C173    1.396   .     D
C172   H198    1.082   .     S
C173   H199    1.081   .     S
C174   C175    1.406   .     D
C174   C179    1.406   .     S
C175   C176    1.396   .     S
C175   H200    1.081   .     S
C176   C177    1.399   .     D
C176   H201    1.081   .     S
C177   C178    1.398   .     S
C177   N483    1.434   .     S
C178   C179    1.396   .     D
C178   H202    1.081   .     S
C179   H203    1.081   .     S
C180   H204    1.074   .     S
C180   C477    1.418   .     S
C180   C315    1.396   .     D
C181   C182    1.396   .     S
C181   H205    1.074   .     S
C181   C478    1.414   .     D
C182   H206    1.081   .     S
C182   C479    1.403   .     D
C183   C239    1.408   .     D
C183   N495    1.354   .     S
C184   C185    1.384   .     S
C184   N490    1.354   .     S
C185   H207    1.081   .     S
C185   C341    1.362   1_554 D
C186   H208    1.081   .     S
C186   C134    1.361   1_565 D
C187   C287    1.408   .     D
C209   C210    1.396   .     S
C209   H240    1.082   .     S
C209   C438    1.401   .     D
C210   H241    1.082   .     S
C210   C439    1.399   .     D
C211   H242    1.082   .     S
C211   C449    1.392   .     D
C212   C213    1.399   .     D
C212   C217    1.399   .     S
C212   C291    1.482   .     S
C213   C214    1.396   .     S
C213   H243    1.082   .     S
C214   C215    1.400   .     D
C214   H244    1.082   .     S
C215   C216    1.409   .     S
C215   N218    1.437   .     S
C216   C217    1.396   .     D
C216   H245    1.079   .     S
C217   H246    1.082   .     S
N218   C219    1.299   .     D
C219   C220    1.475   .     S
C219   H247    1.080   .     S
C220   C221    1.401   .     D
C220   C225    1.405   .     S
C221   C222    1.396   .     S
C221   H248    1.082   .     S
C222   C223    1.405   .     D
C222   H249    1.081   .     S
C223   C224    1.405   .     S
C223   C226    1.484   .     S
C224   C225    1.396   .     D
C224   H250    1.082   .     S
C225   H251    1.081   .     S
C226   C227    1.406   .     D
C226   C231    1.406   .     S
C227   C228    1.396   .     S
C227   H252    1.081   .     S
C228   C229    1.399   .     D
C228   H253    1.081   .     S
C229   C230    1.398   .     S
C229   N447    1.434   .     S
C230   C231    1.396   .     D
C230   H254    1.081   .     S
C231   H255    1.081   .     S
C232   H256    1.074   .     S
C232   C441    1.418   .     S
C233   C234    1.396   .     S
C233   H257    1.074   .     S
C233   C442    1.414   .     D
C234   H258    1.081   .     S
C234   C443    1.403   .     D
C235   C342    1.384   .     S
C235   N494    1.354   1_565 D
C236   C237    1.384   .     S
C236   C395    1.407   .     S
C236   N491    1.354   1_556 D
C237   H259    1.081   .     S
C237   C81     1.362   1_556 D
C238   H260    1.081   .     S
C238   C391    1.384   .     S
C238   C290    1.361   1_655 D
C239   C264    1.482   .     S
C239   C340    1.407   .     S
C261   C262    1.396   .     S
C261   H292    1.082   .     S
C261   C420    1.401   .     D
C262   H293    1.082   .     S
C262   C421    1.399   .     D
C263   H294    1.082   .     S
C263   C431    1.392   .     D
C264   C265    1.399   .     D
C264   C269    1.399   .     S
C265   C266    1.396   .     S
C265   H295    1.082   .     S
C266   C267    1.400   .     D
C266   H296    1.082   .     S
C267   C268    1.409   .     S
C267   N270    1.437   .     S
C268   C269    1.396   .     D
C268   H297    1.079   .     S
C269   H298    1.082   .     S
N270   C271    1.299   .     D
C271   C272    1.475   .     S
C271   H299    1.080   .     S
C272   C273    1.401   .     D
C272   C277    1.405   .     S
C273   C274    1.396   .     S
C273   H300    1.082   .     S
C274   C275    1.405   .     D
C274   H301    1.081   .     S
C275   C276    1.405   .     S
C275   C278    1.484   .     S
C276   C277    1.396   .     D
C276   H302    1.082   .     S
C277   H303    1.081   .     S
C278   C279    1.406   .     D
C278   C283    1.406   .     S
C279   C280    1.396   .     S
C279   H304    1.081   .     S
C280   C281    1.399   .     D
C280   H305    1.081   .     S
C281   C282    1.398   .     S
C281   N429    1.434   .     S
C282   C283    1.396   .     D
C282   H306    1.081   .     S
C283   H307    1.081   .     S
C284   H308    1.074   .     S
C284   C423    1.418   .     S
C285   C286    1.396   .     S
C285   H309    1.074   .     S
C285   C424    1.414   .     D
C286   H310    1.081   .     S
C286   C425    1.403   .     D
C287   C394    1.384   .     S
C287   N494    1.354   .     S
C288   C289    1.384   .     S
C288   C343    1.407   .     D
C288   N492    1.354   1_556 S
C289   H311    1.081   .     S
C289   C29     1.362   1_556 D
C290   H312    1.081   .     S
C290   C339    1.384   .     S
C290   C238    1.361   1_455 D
C291   C392    1.407   .     D
C313   C314    1.396   .     D
C313   H344    1.082   .     S
C313   C474    1.401   .     S
C314   H345    1.082   .     S
C314   C475    1.399   .     S
C315   H346    1.082   .     S
C315   C485    1.392   .     S
C316   C317    1.399   .     D
C316   C321    1.399   .     S
C316   C395    1.482   .     S
C317   C318    1.396   .     S
C317   H347    1.082   .     S
C318   C319    1.400   .     D
C318   H348    1.082   .     S
C319   C320    1.409   .     S
C319   N322    1.437   .     S
C320   C321    1.396   .     D
C320   H349    1.079   .     S
C321   H350    1.082   .     S
N322   C323    1.299   .     D
C323   C324    1.475   .     S
C323   H351    1.080   .     S
C324   C325    1.401   .     D
C324   C329    1.405   .     S
C325   C326    1.396   .     S
C325   H352    1.082   .     S
C326   C327    1.405   .     D
C326   H353    1.081   .     S
C327   C328    1.405   .     S
C327   C330    1.484   .     S
C328   C329    1.396   .     D
C328   H354    1.082   .     S
C329   H355    1.081   .     S
C330   C331    1.406   .     D
C330   C335    1.406   .     S
C331   C332    1.396   .     S
C331   H356    1.081   .     S
C332   C333    1.399   .     D
C332   H357    1.081   .     S
C333   C334    1.398   .     S
C333   N483    1.434   .     S
C334   C335    1.396   .     D
C334   H358    1.081   .     S
C335   H359    1.081   .     S
C336   H360    1.074   .     S
C336   C477    1.418   .     D
C337   C338    1.396   .     D
C337   H361    1.074   .     S
C337   C478    1.414   .     S
C338   H362    1.081   .     S
C338   C479    1.403   .     S
C339   N493    1.354   .     D
C340   C341    1.384   .     S
C340   N490    1.354   1_556 D
C341   H363    1.081   .     S
C341   C185    1.362   1_556 D
C342   H364    1.081   .     S
C342   C394    1.361   1_565 D
C343   C368    1.482   .     S
C365   C366    1.396   .     S
C365   H396    1.082   .     S
C365   C456    1.401   .     D
C366   H397    1.082   .     S
C366   C457    1.399   .     D
C367   H398    1.082   .     S
C367   C467    1.392   .     D
C368   C369    1.399   .     D
C368   C373    1.399   .     S
C369   C370    1.396   .     S
C369   H399    1.082   .     S
C370   C371    1.400   .     D
C370   H400    1.082   .     S
C371   C372    1.409   .     S
C371   N374    1.437   .     S
C372   C373    1.396   .     D
C372   H401    1.079   .     S
C373   H402    1.082   .     S
N374   C375    1.299   .     D
C375   C376    1.475   .     S
C375   H403    1.080   .     S
C376   C377    1.401   .     D
C376   C381    1.405   .     S
C377   C378    1.396   .     S
C377   H404    1.082   .     S
C378   C379    1.405   .     D
C378   H405    1.081   .     S
C379   C380    1.405   .     S
C379   C382    1.484   .     S
C380   C381    1.396   .     D
C380   H406    1.082   .     S
C381   H407    1.081   .     S
C382   C383    1.406   .     D
C382   C387    1.406   .     S
C383   C384    1.396   .     S
C383   H408    1.081   .     S
C384   C385    1.399   .     D
C384   H409    1.081   .     S
C385   C386    1.398   .     S
C385   N465    1.434   .     S
C386   C387    1.396   .     D
C386   H410    1.081   .     S
C387   H411    1.081   .     S
C388   H412    1.074   .     S
C388   C459    1.418   .     S
C389   C390    1.396   .     S
C389   H413    1.074   .     S
C389   C460    1.414   .     D
C390   H414    1.081   .     S
C390   C461    1.403   .     D
C391   N493    1.354   1_655 S
C392   C393    1.384   .     S
C392   N489    1.354   1_556 S
C393   H415    1.081   .     S
C393   C133    1.362   1_556 D
C394   H416    1.081   .     S
C394   C342    1.361   1_545 D
C417   C418    1.407   .     S
C417   C474    1.481   .     S
C417   C480    1.407   .     D
C418   C419    1.384   .     S
C418   N428    1.354   .     D
C419   C427    1.362   .     D
C419   H432    1.082   .     S
C420   C453    1.481   .     S
C421   N422    1.426   .     S
N422   C430    1.294   .     D
C423   C424    1.517   .     S
C425   N429    1.450   .     S
C426   C427    1.384   .     S
C426   N428    1.354   .     S
C426   C453    1.407   .     D
C427   H433    1.082   .     S
C430   C431    1.462   .     S
C430   H434    1.083   .     S
C435   C436    1.407   .     S
C435   C456    1.481   .     S
C435   C462    1.407   .     D
C436   C437    1.384   .     S
C436   N446    1.354   .     D
C437   C445    1.362   .     D
C437   H450    1.082   .     S
C438   C471    1.481   .     S
C439   N440    1.426   .     S
N440   C448    1.294   .     D
C441   C442    1.517   .     S
C443   N447    1.450   .     S
C444   C445    1.384   .     S
C444   N446    1.354   .     S
C444   C471    1.407   .     D
C445   H451    1.082   .     S
C448   C449    1.462   .     S
C448   H452    1.083   .     S
C453   C454    1.407   .     S
C454   C455    1.384   .     S
C454   N464    1.354   .     D
C455   C463    1.362   .     D
C455   H468    1.082   .     S
C457   N458    1.426   .     S
N458   C466    1.294   .     D
C459   C460    1.517   .     S
C461   N465    1.450   .     S
C462   C463    1.384   .     S
C462   N464    1.354   .     S
C463   H469    1.082   .     S
C466   C467    1.462   .     S
C466   H470    1.083   .     S
C471   C472    1.407   .     S
C472   C473    1.384   .     S
C472   N482    1.354   .     D
C473   C481    1.362   .     D
C473   H486    1.082   .     S
C475   N476    1.426   .     S
N476   C484    1.294   .     D
C477   C478    1.517   .     S
C479   N483    1.450   .     S
C480   C481    1.384   .     S
C480   N482    1.354   .     S
C481   H487    1.082   .     S
C484   C485    1.462   .     S
C484   H488    1.083   .     S
N489   C392    1.354   1_554 S
N490   C340    1.354   1_554 D
N491   C236    1.354   1_554 D
N492   C288    1.354   1_554 S
N493   C391    1.354   1_455 S
N494   C235    1.354   1_545 D
N495   C131    1.354   1_455 D
N496   C79     1.354   1_545 S
