data_911
_audit_creation_date              2023-09-08
_audit_creation_method            'Materials Studio'
_symmetry_space_group_name_H-M    'P1'
_symmetry_Int_Tables_number       1
_symmetry_cell_setting            triclinic
loop_
_symmetry_equiv_pos_as_xyz
  x,y,z
_cell_length_a                    66.5298
_cell_length_b                    66.5298
_cell_length_c                    32.3478
_cell_angle_alpha                 90.0000
_cell_angle_beta                  90.0000
_cell_angle_gamma                 90.0000
loop_
_atom_site_label
_atom_site_type_symbol
_atom_site_fract_x
_atom_site_fract_y
_atom_site_fract_z
_atom_site_U_iso_or_equiv
_atom_site_adp_type
_atom_site_occupancy
C1     C     0.91336   0.99609   0.53903   0.00000  Uiso   1.00
C2     C     0.89179   0.99519   0.53900   0.00000  Uiso   1.00
C3     C     0.81440   0.00833   0.46124   0.00000  Uiso   1.00
C4     C     0.55358   0.99857   0.11187   0.00000  Uiso   1.00
C5     C     0.56254   0.01691   0.12683   0.00000  Uiso   1.00
C6     C     0.57704   0.01634   0.16013   0.00000  Uiso   1.00
C7     C     0.58264   0.99754   0.17917   0.00000  Uiso   1.00
C8     C     0.57399   0.97907   0.16324   0.00000  Uiso   1.00
C9     C     0.55950   0.97965   0.12991   0.00000  Uiso   1.00
N10    N     0.59707   0.99796   0.21436   0.00000  Uiso   1.00
C11    C     0.60051   0.98307   0.24149   0.00000  Uiso   1.00
C12    C     0.61532   0.98570   0.27721   0.00000  Uiso   1.00
C13    C     0.61741   0.96994   0.30785   0.00000  Uiso   1.00
C14    C     0.63072   0.97233   0.34287   0.00000  Uiso   1.00
C15    C     0.64230   0.99055   0.34792   0.00000  Uiso   1.00
C16    C     0.64044   0.00620   0.31679   0.00000  Uiso   1.00
C17    C     0.62708   0.00382   0.28179   0.00000  Uiso   1.00
C18    C     0.65581   0.99339   0.38613   0.00000  Uiso   1.00
C19    C     0.66738   0.97677   0.40262   0.00000  Uiso   1.00
C20    C     0.67934   0.97924   0.43970   0.00000  Uiso   1.00
C21    C     0.68000   0.99835   0.46075   0.00000  Uiso   1.00
C22    C     0.66879   0.01505   0.44420   0.00000  Uiso   1.00
C23    C     0.65678   0.01260   0.40720   0.00000  Uiso   1.00
C24    C     0.79285   0.00701   0.53889   0.00000  Uiso   1.00
C25    C     0.74653   0.00433   0.53878   0.00000  Uiso   1.00
C26    C     0.72500   0.00295   0.53872   0.00000  Uiso   1.00
C27    C     0.00036   0.51664   0.90881   0.00000  Uiso   1.00
C28    C     0.00083   0.54387   0.03467   0.00000  Uiso   1.00
C29    C     0.00136   0.56437   0.02195   0.00000  Uiso   1.00
C30    C     0.51052   0.99978   0.86609   0.00000  Uiso   1.00
C31    C     0.46254   0.00080   0.07797   0.00000  Uiso   1.00
H32    H     0.92212   0.99644   0.57084   0.00000  Uiso   1.00
H33    H     0.88298   0.99474   0.57075   0.00000  Uiso   1.00
H34    H     0.82323   0.00888   0.42953   0.00000  Uiso   1.00
H35    H     0.55801   0.03233   0.11185   0.00000  Uiso   1.00
H36    H     0.58443   0.03127   0.17203   0.00000  Uiso   1.00
H37    H     0.57880   0.96359   0.17754   0.00000  Uiso   1.00
H38    H     0.55251   0.96465   0.11743   0.00000  Uiso   1.00
H39    H     0.59205   0.96773   0.23789   0.00000  Uiso   1.00
H40    H     0.60820   0.95503   0.30430   0.00000  Uiso   1.00
H41    H     0.63227   0.95945   0.36767   0.00000  Uiso   1.00
H42    H     0.64987   0.02099   0.31996   0.00000  Uiso   1.00
H43    H     0.62575   0.01668   0.25689   0.00000  Uiso   1.00
H44    H     0.66705   0.96115   0.38571   0.00000  Uiso   1.00
H45    H     0.68859   0.96568   0.45292   0.00000  Uiso   1.00
H46    H     0.66944   0.03071   0.46092   0.00000  Uiso   1.00
H47    H     0.64772   0.02633   0.39410   0.00000  Uiso   1.00
H48    H     0.78448   0.00646   0.57115   0.00000  Uiso   1.00
H49    H     0.75529   0.00496   0.57057   0.00000  Uiso   1.00
H50    H     0.71647   0.00257   0.57081   0.00000  Uiso   1.00
H51    H     0.00170   0.57715   0.04716   0.00000  Uiso   1.00
H52    H     0.52261   0.99954   0.83943   0.00000  Uiso   1.00
C53    C     0.41336   0.49609   0.03903   0.00000  Uiso   1.00
C54    C     0.39179   0.49519   0.03900   0.00000  Uiso   1.00
C55    C     0.31440   0.50833   0.96124   0.00000  Uiso   1.00
C56    C     0.05358   0.49857   0.61187   0.00000  Uiso   1.00
C57    C     0.06254   0.51691   0.62683   0.00000  Uiso   1.00
C58    C     0.07704   0.51634   0.66013   0.00000  Uiso   1.00
C59    C     0.08264   0.49754   0.67917   0.00000  Uiso   1.00
C60    C     0.07399   0.47907   0.66324   0.00000  Uiso   1.00
C61    C     0.05950   0.47965   0.62991   0.00000  Uiso   1.00
N62    N     0.09707   0.49796   0.71436   0.00000  Uiso   1.00
C63    C     0.10051   0.48307   0.74149   0.00000  Uiso   1.00
C64    C     0.11532   0.48570   0.77721   0.00000  Uiso   1.00
C65    C     0.11741   0.46994   0.80785   0.00000  Uiso   1.00
C66    C     0.13072   0.47233   0.84287   0.00000  Uiso   1.00
C67    C     0.14230   0.49055   0.84792   0.00000  Uiso   1.00
C68    C     0.14044   0.50620   0.81679   0.00000  Uiso   1.00
C69    C     0.12708   0.50382   0.78179   0.00000  Uiso   1.00
C70    C     0.15581   0.49339   0.88613   0.00000  Uiso   1.00
C71    C     0.16738   0.47677   0.90262   0.00000  Uiso   1.00
C72    C     0.17934   0.47924   0.93970   0.00000  Uiso   1.00
C73    C     0.18000   0.49835   0.96075   0.00000  Uiso   1.00
C74    C     0.16879   0.51505   0.94420   0.00000  Uiso   1.00
C75    C     0.15678   0.51260   0.90720   0.00000  Uiso   1.00
C76    C     0.29285   0.50701   0.03889   0.00000  Uiso   1.00
C77    C     0.24653   0.50433   0.03878   0.00000  Uiso   1.00
C78    C     0.22500   0.50295   0.03872   0.00000  Uiso   1.00
C79    C     0.50036   0.01664   0.40881   0.00000  Uiso   1.00
C80    C     0.50083   0.04387   0.53467   0.00000  Uiso   1.00
C81    C     0.50136   0.06437   0.52195   0.00000  Uiso   1.00
C82    C     0.01052   0.49978   0.36609   0.00000  Uiso   1.00
C83    C     0.96254   0.50080   0.57797   0.00000  Uiso   1.00
H84    H     0.42212   0.49644   0.07084   0.00000  Uiso   1.00
H85    H     0.38298   0.49474   0.07075   0.00000  Uiso   1.00
H86    H     0.32323   0.50888   0.92953   0.00000  Uiso   1.00
H87    H     0.05801   0.53233   0.61185   0.00000  Uiso   1.00
H88    H     0.08443   0.53127   0.67203   0.00000  Uiso   1.00
H89    H     0.07880   0.46359   0.67754   0.00000  Uiso   1.00
H90    H     0.05251   0.46465   0.61743   0.00000  Uiso   1.00
H91    H     0.09205   0.46773   0.73789   0.00000  Uiso   1.00
H92    H     0.10820   0.45503   0.80430   0.00000  Uiso   1.00
H93    H     0.13227   0.45945   0.86767   0.00000  Uiso   1.00
H94    H     0.14987   0.52099   0.81996   0.00000  Uiso   1.00
H95    H     0.12575   0.51668   0.75689   0.00000  Uiso   1.00
H96    H     0.16705   0.46115   0.88571   0.00000  Uiso   1.00
H97    H     0.18859   0.46568   0.95292   0.00000  Uiso   1.00
H98    H     0.16944   0.53071   0.96092   0.00000  Uiso   1.00
H99    H     0.14772   0.52633   0.89410   0.00000  Uiso   1.00
H100   H     0.28448   0.50646   0.07115   0.00000  Uiso   1.00
H101   H     0.25529   0.50496   0.07057   0.00000  Uiso   1.00
H102   H     0.21647   0.50257   0.07081   0.00000  Uiso   1.00
H103   H     0.50170   0.07715   0.54716   0.00000  Uiso   1.00
H104   H     0.02261   0.49954   0.33943   0.00000  Uiso   1.00
C105   C     0.08664   0.00391   0.53903   0.00000  Uiso   1.00
C106   C     0.10821   0.00481   0.53900   0.00000  Uiso   1.00
C107   C     0.18560   0.99167   0.46124   0.00000  Uiso   1.00
C108   C     0.44642   0.00143   0.11187   0.00000  Uiso   1.00
C109   C     0.43746   0.98309   0.12683   0.00000  Uiso   1.00
C110   C     0.42296   0.98366   0.16013   0.00000  Uiso   1.00
C111   C     0.41736   0.00246   0.17917   0.00000  Uiso   1.00
C112   C     0.42601   0.02093   0.16324   0.00000  Uiso   1.00
C113   C     0.44050   0.02035   0.12991   0.00000  Uiso   1.00
N114   N     0.40293   0.00204   0.21436   0.00000  Uiso   1.00
C115   C     0.39949   0.01693   0.24149   0.00000  Uiso   1.00
C116   C     0.38468   0.01430   0.27721   0.00000  Uiso   1.00
C117   C     0.38259   0.03006   0.30785   0.00000  Uiso   1.00
C118   C     0.36928   0.02767   0.34287   0.00000  Uiso   1.00
C119   C     0.35770   0.00945   0.34792   0.00000  Uiso   1.00
C120   C     0.35956   0.99380   0.31679   0.00000  Uiso   1.00
C121   C     0.37292   0.99618   0.28179   0.00000  Uiso   1.00
C122   C     0.34419   0.00661   0.38613   0.00000  Uiso   1.00
C123   C     0.33262   0.02323   0.40262   0.00000  Uiso   1.00
C124   C     0.32066   0.02076   0.43970   0.00000  Uiso   1.00
C125   C     0.32000   0.00165   0.46075   0.00000  Uiso   1.00
C126   C     0.33121   0.98495   0.44420   0.00000  Uiso   1.00
C127   C     0.34322   0.98740   0.40720   0.00000  Uiso   1.00
C128   C     0.20715   0.99299   0.53889   0.00000  Uiso   1.00
C129   C     0.25347   0.99567   0.53878   0.00000  Uiso   1.00
C130   C     0.27500   0.99705   0.53872   0.00000  Uiso   1.00
C131   C     0.99964   0.48336   0.90881   0.00000  Uiso   1.00
C132   C     0.99917   0.45613   0.03467   0.00000  Uiso   1.00
C133   C     0.99864   0.43563   0.02195   0.00000  Uiso   1.00
C134   C     0.48948   0.00022   0.86609   0.00000  Uiso   1.00
C135   C     0.53746   0.99920   0.07797   0.00000  Uiso   1.00
H136   H     0.07788   0.00356   0.57084   0.00000  Uiso   1.00
H137   H     0.11702   0.00526   0.57075   0.00000  Uiso   1.00
H138   H     0.17677   0.99112   0.42953   0.00000  Uiso   1.00
H139   H     0.44199   0.96767   0.11185   0.00000  Uiso   1.00
H140   H     0.41557   0.96873   0.17203   0.00000  Uiso   1.00
H141   H     0.42120   0.03641   0.17754   0.00000  Uiso   1.00
H142   H     0.44749   0.03535   0.11743   0.00000  Uiso   1.00
H143   H     0.40795   0.03227   0.23789   0.00000  Uiso   1.00
H144   H     0.39180   0.04497   0.30430   0.00000  Uiso   1.00
H145   H     0.36773   0.04055   0.36767   0.00000  Uiso   1.00
H146   H     0.35013   0.97901   0.31996   0.00000  Uiso   1.00
H147   H     0.37425   0.98332   0.25689   0.00000  Uiso   1.00
H148   H     0.33295   0.03885   0.38571   0.00000  Uiso   1.00
H149   H     0.31141   0.03432   0.45292   0.00000  Uiso   1.00
H150   H     0.33056   0.96929   0.46092   0.00000  Uiso   1.00
H151   H     0.35228   0.97367   0.39410   0.00000  Uiso   1.00
H152   H     0.21552   0.99354   0.57115   0.00000  Uiso   1.00
H153   H     0.24471   0.99504   0.57057   0.00000  Uiso   1.00
H154   H     0.28353   0.99743   0.57081   0.00000  Uiso   1.00
H155   H     0.99830   0.42285   0.04716   0.00000  Uiso   1.00
H156   H     0.47739   0.00046   0.83943   0.00000  Uiso   1.00
C157   C     0.58664   0.50391   0.03903   0.00000  Uiso   1.00
C158   C     0.60821   0.50481   0.03900   0.00000  Uiso   1.00
C159   C     0.68560   0.49167   0.96124   0.00000  Uiso   1.00
C160   C     0.94642   0.50143   0.61187   0.00000  Uiso   1.00
C161   C     0.93746   0.48309   0.62683   0.00000  Uiso   1.00
C162   C     0.92296   0.48366   0.66013   0.00000  Uiso   1.00
C163   C     0.91736   0.50246   0.67917   0.00000  Uiso   1.00
C164   C     0.92601   0.52093   0.66324   0.00000  Uiso   1.00
C165   C     0.94050   0.52035   0.62991   0.00000  Uiso   1.00
N166   N     0.90293   0.50204   0.71436   0.00000  Uiso   1.00
C167   C     0.89949   0.51693   0.74149   0.00000  Uiso   1.00
C168   C     0.88468   0.51430   0.77721   0.00000  Uiso   1.00
C169   C     0.88259   0.53006   0.80785   0.00000  Uiso   1.00
C170   C     0.86928   0.52767   0.84287   0.00000  Uiso   1.00
C171   C     0.85770   0.50945   0.84792   0.00000  Uiso   1.00
C172   C     0.85956   0.49380   0.81679   0.00000  Uiso   1.00
C173   C     0.87292   0.49618   0.78179   0.00000  Uiso   1.00
C174   C     0.84419   0.50661   0.88613   0.00000  Uiso   1.00
C175   C     0.83262   0.52323   0.90262   0.00000  Uiso   1.00
C176   C     0.82066   0.52076   0.93970   0.00000  Uiso   1.00
C177   C     0.82000   0.50165   0.96075   0.00000  Uiso   1.00
C178   C     0.83121   0.48495   0.94420   0.00000  Uiso   1.00
C179   C     0.84322   0.48740   0.90720   0.00000  Uiso   1.00
C180   C     0.70715   0.49299   0.03889   0.00000  Uiso   1.00
C181   C     0.75347   0.49567   0.03878   0.00000  Uiso   1.00
C182   C     0.77500   0.49705   0.03872   0.00000  Uiso   1.00
C183   C     0.49964   0.98336   0.40881   0.00000  Uiso   1.00
C184   C     0.49917   0.95613   0.53467   0.00000  Uiso   1.00
C185   C     0.49864   0.93563   0.52195   0.00000  Uiso   1.00
C186   C     0.98948   0.50022   0.36609   0.00000  Uiso   1.00
C187   C     0.03746   0.49920   0.57797   0.00000  Uiso   1.00
H188   H     0.57788   0.50356   0.07084   0.00000  Uiso   1.00
H189   H     0.61702   0.50526   0.07075   0.00000  Uiso   1.00
H190   H     0.67677   0.49112   0.92953   0.00000  Uiso   1.00
H191   H     0.94199   0.46767   0.61185   0.00000  Uiso   1.00
H192   H     0.91557   0.46873   0.67203   0.00000  Uiso   1.00
H193   H     0.92120   0.53641   0.67754   0.00000  Uiso   1.00
H194   H     0.94749   0.53535   0.61743   0.00000  Uiso   1.00
H195   H     0.90795   0.53227   0.73789   0.00000  Uiso   1.00
H196   H     0.89180   0.54497   0.80430   0.00000  Uiso   1.00
H197   H     0.86773   0.54055   0.86767   0.00000  Uiso   1.00
H198   H     0.85013   0.47901   0.81996   0.00000  Uiso   1.00
H199   H     0.87425   0.48332   0.75689   0.00000  Uiso   1.00
H200   H     0.83295   0.53885   0.88571   0.00000  Uiso   1.00
H201   H     0.81141   0.53432   0.95292   0.00000  Uiso   1.00
H202   H     0.83056   0.46929   0.96092   0.00000  Uiso   1.00
H203   H     0.85228   0.47367   0.89410   0.00000  Uiso   1.00
H204   H     0.71552   0.49354   0.07115   0.00000  Uiso   1.00
H205   H     0.74471   0.49504   0.07057   0.00000  Uiso   1.00
H206   H     0.78353   0.49743   0.07081   0.00000  Uiso   1.00
H207   H     0.49830   0.92285   0.54716   0.00000  Uiso   1.00
H208   H     0.97739   0.50046   0.33943   0.00000  Uiso   1.00
C209   C     0.00391   0.91336   0.53903   0.00000  Uiso   1.00
C210   C     0.00481   0.89179   0.53900   0.00000  Uiso   1.00
C211   C     0.99167   0.81440   0.46124   0.00000  Uiso   1.00
C212   C     0.00143   0.55358   0.11187   0.00000  Uiso   1.00
C213   C     0.98309   0.56254   0.12683   0.00000  Uiso   1.00
C214   C     0.98366   0.57704   0.16013   0.00000  Uiso   1.00
C215   C     0.00246   0.58264   0.17917   0.00000  Uiso   1.00
C216   C     0.02093   0.57399   0.16324   0.00000  Uiso   1.00
C217   C     0.02035   0.55950   0.12991   0.00000  Uiso   1.00
N218   N     0.00204   0.59707   0.21436   0.00000  Uiso   1.00
C219   C     0.01693   0.60051   0.24149   0.00000  Uiso   1.00
C220   C     0.01430   0.61532   0.27721   0.00000  Uiso   1.00
C221   C     0.03006   0.61741   0.30785   0.00000  Uiso   1.00
C222   C     0.02767   0.63072   0.34287   0.00000  Uiso   1.00
C223   C     0.00945   0.64230   0.34792   0.00000  Uiso   1.00
C224   C     0.99380   0.64044   0.31679   0.00000  Uiso   1.00
C225   C     0.99618   0.62708   0.28179   0.00000  Uiso   1.00
C226   C     0.00661   0.65581   0.38613   0.00000  Uiso   1.00
C227   C     0.02323   0.66738   0.40262   0.00000  Uiso   1.00
C228   C     0.02076   0.67934   0.43970   0.00000  Uiso   1.00
C229   C     0.00165   0.68000   0.46075   0.00000  Uiso   1.00
C230   C     0.98495   0.66879   0.44420   0.00000  Uiso   1.00
C231   C     0.98740   0.65678   0.40720   0.00000  Uiso   1.00
C232   C     0.99299   0.79285   0.53889   0.00000  Uiso   1.00
C233   C     0.99567   0.74653   0.53878   0.00000  Uiso   1.00
C234   C     0.99705   0.72500   0.53872   0.00000  Uiso   1.00
C235   C     0.48336   0.00036   0.90881   0.00000  Uiso   1.00
C236   C     0.45613   0.00083   0.03467   0.00000  Uiso   1.00
C237   C     0.43563   0.00136   0.02195   0.00000  Uiso   1.00
C238   C     0.00022   0.51052   0.86609   0.00000  Uiso   1.00
C239   C     0.99920   0.46254   0.07797   0.00000  Uiso   1.00
H240   H     0.00356   0.92212   0.57084   0.00000  Uiso   1.00
H241   H     0.00526   0.88298   0.57075   0.00000  Uiso   1.00
H242   H     0.99112   0.82323   0.42953   0.00000  Uiso   1.00
H243   H     0.96767   0.55801   0.11185   0.00000  Uiso   1.00
H244   H     0.96873   0.58443   0.17203   0.00000  Uiso   1.00
H245   H     0.03641   0.57880   0.17754   0.00000  Uiso   1.00
H246   H     0.03535   0.55251   0.11743   0.00000  Uiso   1.00
H247   H     0.03227   0.59205   0.23789   0.00000  Uiso   1.00
H248   H     0.04497   0.60820   0.30430   0.00000  Uiso   1.00
H249   H     0.04055   0.63227   0.36767   0.00000  Uiso   1.00
H250   H     0.97901   0.64987   0.31996   0.00000  Uiso   1.00
H251   H     0.98332   0.62575   0.25689   0.00000  Uiso   1.00
H252   H     0.03885   0.66705   0.38571   0.00000  Uiso   1.00
H253   H     0.03432   0.68859   0.45292   0.00000  Uiso   1.00
H254   H     0.96929   0.66944   0.46092   0.00000  Uiso   1.00
H255   H     0.97367   0.64772   0.39410   0.00000  Uiso   1.00
H256   H     0.99354   0.78448   0.57115   0.00000  Uiso   1.00
H257   H     0.99504   0.75529   0.57057   0.00000  Uiso   1.00
H258   H     0.99743   0.71647   0.57081   0.00000  Uiso   1.00
H259   H     0.42285   0.00170   0.04716   0.00000  Uiso   1.00
H260   H     0.00046   0.52261   0.83943   0.00000  Uiso   1.00
C261   C     0.50391   0.41336   0.03903   0.00000  Uiso   1.00
C262   C     0.50481   0.39179   0.03900   0.00000  Uiso   1.00
C263   C     0.49167   0.31440   0.96124   0.00000  Uiso   1.00
C264   C     0.50143   0.05358   0.61187   0.00000  Uiso   1.00
C265   C     0.48309   0.06254   0.62683   0.00000  Uiso   1.00
C266   C     0.48366   0.07704   0.66013   0.00000  Uiso   1.00
C267   C     0.50246   0.08264   0.67917   0.00000  Uiso   1.00
C268   C     0.52093   0.07399   0.66324   0.00000  Uiso   1.00
C269   C     0.52035   0.05950   0.62991   0.00000  Uiso   1.00
N270   N     0.50204   0.09707   0.71436   0.00000  Uiso   1.00
C271   C     0.51693   0.10051   0.74149   0.00000  Uiso   1.00
C272   C     0.51430   0.11532   0.77721   0.00000  Uiso   1.00
C273   C     0.53006   0.11741   0.80785   0.00000  Uiso   1.00
C274   C     0.52767   0.13072   0.84287   0.00000  Uiso   1.00
C275   C     0.50945   0.14230   0.84792   0.00000  Uiso   1.00
C276   C     0.49380   0.14044   0.81679   0.00000  Uiso   1.00
C277   C     0.49618   0.12708   0.78179   0.00000  Uiso   1.00
C278   C     0.50661   0.15581   0.88613   0.00000  Uiso   1.00
C279   C     0.52323   0.16738   0.90262   0.00000  Uiso   1.00
C280   C     0.52076   0.17934   0.93970   0.00000  Uiso   1.00
C281   C     0.50165   0.18000   0.96075   0.00000  Uiso   1.00
C282   C     0.48495   0.16879   0.94420   0.00000  Uiso   1.00
C283   C     0.48740   0.15678   0.90720   0.00000  Uiso   1.00
C284   C     0.49299   0.29285   0.03889   0.00000  Uiso   1.00
C285   C     0.49567   0.24653   0.03878   0.00000  Uiso   1.00
C286   C     0.49705   0.22500   0.03872   0.00000  Uiso   1.00
C287   C     0.98336   0.50036   0.40881   0.00000  Uiso   1.00
C288   C     0.95613   0.50083   0.53467   0.00000  Uiso   1.00
C289   C     0.93563   0.50136   0.52195   0.00000  Uiso   1.00
C290   C     0.50022   0.01052   0.36609   0.00000  Uiso   1.00
C291   C     0.49920   0.96254   0.57797   0.00000  Uiso   1.00
H292   H     0.50356   0.42212   0.07084   0.00000  Uiso   1.00
H293   H     0.50526   0.38298   0.07075   0.00000  Uiso   1.00
H294   H     0.49112   0.32323   0.92953   0.00000  Uiso   1.00
H295   H     0.46767   0.05801   0.61185   0.00000  Uiso   1.00
H296   H     0.46873   0.08443   0.67203   0.00000  Uiso   1.00
H297   H     0.53641   0.07880   0.67754   0.00000  Uiso   1.00
H298   H     0.53535   0.05251   0.61743   0.00000  Uiso   1.00
H299   H     0.53227   0.09205   0.73789   0.00000  Uiso   1.00
H300   H     0.54497   0.10820   0.80430   0.00000  Uiso   1.00
H301   H     0.54055   0.13227   0.86767   0.00000  Uiso   1.00
H302   H     0.47901   0.14987   0.81996   0.00000  Uiso   1.00
H303   H     0.48332   0.12575   0.75689   0.00000  Uiso   1.00
H304   H     0.53885   0.16705   0.88571   0.00000  Uiso   1.00
H305   H     0.53432   0.18859   0.95292   0.00000  Uiso   1.00
H306   H     0.46929   0.16944   0.96092   0.00000  Uiso   1.00
H307   H     0.47367   0.14772   0.89410   0.00000  Uiso   1.00
H308   H     0.49354   0.28448   0.07115   0.00000  Uiso   1.00
H309   H     0.49504   0.25529   0.07057   0.00000  Uiso   1.00
H310   H     0.49743   0.21647   0.07081   0.00000  Uiso   1.00
H311   H     0.92285   0.50170   0.54716   0.00000  Uiso   1.00
H312   H     0.50046   0.02261   0.33943   0.00000  Uiso   1.00
C313   C     0.99609   0.08664   0.53903   0.00000  Uiso   1.00
C314   C     0.99519   0.10821   0.53900   0.00000  Uiso   1.00
C315   C     0.00833   0.18560   0.46124   0.00000  Uiso   1.00
C316   C     0.99857   0.44642   0.11187   0.00000  Uiso   1.00
C317   C     0.01691   0.43746   0.12683   0.00000  Uiso   1.00
C318   C     0.01634   0.42296   0.16013   0.00000  Uiso   1.00
C319   C     0.99754   0.41736   0.17917   0.00000  Uiso   1.00
C320   C     0.97907   0.42601   0.16324   0.00000  Uiso   1.00
C321   C     0.97965   0.44050   0.12991   0.00000  Uiso   1.00
N322   N     0.99796   0.40293   0.21436   0.00000  Uiso   1.00
C323   C     0.98307   0.39949   0.24149   0.00000  Uiso   1.00
C324   C     0.98570   0.38468   0.27721   0.00000  Uiso   1.00
C325   C     0.96994   0.38259   0.30785   0.00000  Uiso   1.00
C326   C     0.97233   0.36928   0.34287   0.00000  Uiso   1.00
C327   C     0.99055   0.35770   0.34792   0.00000  Uiso   1.00
C328   C     0.00620   0.35956   0.31679   0.00000  Uiso   1.00
C329   C     0.00382   0.37292   0.28179   0.00000  Uiso   1.00
C330   C     0.99339   0.34419   0.38613   0.00000  Uiso   1.00
C331   C     0.97677   0.33262   0.40262   0.00000  Uiso   1.00
C332   C     0.97924   0.32066   0.43970   0.00000  Uiso   1.00
C333   C     0.99835   0.32000   0.46075   0.00000  Uiso   1.00
C334   C     0.01505   0.33121   0.44420   0.00000  Uiso   1.00
C335   C     0.01260   0.34322   0.40720   0.00000  Uiso   1.00
C336   C     0.00701   0.20715   0.53889   0.00000  Uiso   1.00
C337   C     0.00433   0.25347   0.53878   0.00000  Uiso   1.00
C338   C     0.00295   0.27500   0.53872   0.00000  Uiso   1.00
C339   C     0.51664   0.99964   0.90881   0.00000  Uiso   1.00
C340   C     0.54387   0.99917   0.03467   0.00000  Uiso   1.00
C341   C     0.56437   0.99864   0.02195   0.00000  Uiso   1.00
C342   C     0.99978   0.48948   0.86609   0.00000  Uiso   1.00
C343   C     0.00080   0.53746   0.07797   0.00000  Uiso   1.00
H344   H     0.99644   0.07788   0.57084   0.00000  Uiso   1.00
H345   H     0.99474   0.11702   0.57075   0.00000  Uiso   1.00
H346   H     0.00888   0.17677   0.42953   0.00000  Uiso   1.00
H347   H     0.03233   0.44199   0.11185   0.00000  Uiso   1.00
H348   H     0.03127   0.41557   0.17203   0.00000  Uiso   1.00
H349   H     0.96359   0.42120   0.17754   0.00000  Uiso   1.00
H350   H     0.96465   0.44749   0.11743   0.00000  Uiso   1.00
H351   H     0.96773   0.40795   0.23789   0.00000  Uiso   1.00
H352   H     0.95503   0.39180   0.30430   0.00000  Uiso   1.00
H353   H     0.95945   0.36773   0.36767   0.00000  Uiso   1.00
H354   H     0.02099   0.35013   0.31996   0.00000  Uiso   1.00
H355   H     0.01668   0.37425   0.25689   0.00000  Uiso   1.00
H356   H     0.96115   0.33295   0.38571   0.00000  Uiso   1.00
H357   H     0.96568   0.31141   0.45292   0.00000  Uiso   1.00
H358   H     0.03071   0.33056   0.46092   0.00000  Uiso   1.00
H359   H     0.02633   0.35228   0.39410   0.00000  Uiso   1.00
H360   H     0.00646   0.21552   0.57115   0.00000  Uiso   1.00
H361   H     0.00496   0.24471   0.57057   0.00000  Uiso   1.00
H362   H     0.00257   0.28353   0.57081   0.00000  Uiso   1.00
H363   H     0.57715   0.99830   0.04716   0.00000  Uiso   1.00
H364   H     0.99954   0.47739   0.83943   0.00000  Uiso   1.00
C365   C     0.49609   0.58664   0.03903   0.00000  Uiso   1.00
C366   C     0.49519   0.60821   0.03900   0.00000  Uiso   1.00
C367   C     0.50833   0.68560   0.96124   0.00000  Uiso   1.00
C368   C     0.49857   0.94642   0.61187   0.00000  Uiso   1.00
C369   C     0.51691   0.93746   0.62683   0.00000  Uiso   1.00
C370   C     0.51634   0.92296   0.66013   0.00000  Uiso   1.00
C371   C     0.49754   0.91736   0.67917   0.00000  Uiso   1.00
C372   C     0.47907   0.92601   0.66324   0.00000  Uiso   1.00
C373   C     0.47965   0.94050   0.62991   0.00000  Uiso   1.00
N374   N     0.49796   0.90293   0.71436   0.00000  Uiso   1.00
C375   C     0.48307   0.89949   0.74149   0.00000  Uiso   1.00
C376   C     0.48570   0.88468   0.77721   0.00000  Uiso   1.00
C377   C     0.46994   0.88259   0.80785   0.00000  Uiso   1.00
C378   C     0.47233   0.86928   0.84287   0.00000  Uiso   1.00
C379   C     0.49055   0.85770   0.84792   0.00000  Uiso   1.00
C380   C     0.50620   0.85956   0.81679   0.00000  Uiso   1.00
C381   C     0.50382   0.87292   0.78179   0.00000  Uiso   1.00
C382   C     0.49339   0.84419   0.88613   0.00000  Uiso   1.00
C383   C     0.47677   0.83262   0.90262   0.00000  Uiso   1.00
C384   C     0.47924   0.82066   0.93970   0.00000  Uiso   1.00
C385   C     0.49835   0.82000   0.96075   0.00000  Uiso   1.00
C386   C     0.51505   0.83121   0.94420   0.00000  Uiso   1.00
C387   C     0.51260   0.84322   0.90720   0.00000  Uiso   1.00
C388   C     0.50701   0.70715   0.03889   0.00000  Uiso   1.00
C389   C     0.50433   0.75347   0.03878   0.00000  Uiso   1.00
C390   C     0.50295   0.77500   0.03872   0.00000  Uiso   1.00
C391   C     0.01664   0.49964   0.40881   0.00000  Uiso   1.00
C392   C     0.04387   0.49917   0.53467   0.00000  Uiso   1.00
C393   C     0.06437   0.49864   0.52195   0.00000  Uiso   1.00
C394   C     0.49978   0.98948   0.36609   0.00000  Uiso   1.00
C395   C     0.50080   0.03746   0.57797   0.00000  Uiso   1.00
H396   H     0.49644   0.57788   0.07084   0.00000  Uiso   1.00
H397   H     0.49474   0.61702   0.07075   0.00000  Uiso   1.00
H398   H     0.50888   0.67677   0.92953   0.00000  Uiso   1.00
H399   H     0.53233   0.94199   0.61185   0.00000  Uiso   1.00
H400   H     0.53127   0.91557   0.67203   0.00000  Uiso   1.00
H401   H     0.46359   0.92120   0.67754   0.00000  Uiso   1.00
H402   H     0.46465   0.94749   0.61743   0.00000  Uiso   1.00
H403   H     0.46773   0.90795   0.73789   0.00000  Uiso   1.00
H404   H     0.45503   0.89180   0.80430   0.00000  Uiso   1.00
H405   H     0.45945   0.86773   0.86767   0.00000  Uiso   1.00
H406   H     0.52099   0.85013   0.81996   0.00000  Uiso   1.00
H407   H     0.51668   0.87425   0.75689   0.00000  Uiso   1.00
H408   H     0.46115   0.83295   0.88571   0.00000  Uiso   1.00
H409   H     0.46568   0.81141   0.95292   0.00000  Uiso   1.00
H410   H     0.53071   0.83056   0.96092   0.00000  Uiso   1.00
H411   H     0.52633   0.85228   0.89410   0.00000  Uiso   1.00
H412   H     0.50646   0.71552   0.07115   0.00000  Uiso   1.00
H413   H     0.50496   0.74471   0.07057   0.00000  Uiso   1.00
H414   H     0.50257   0.78353   0.07081   0.00000  Uiso   1.00
H415   H     0.07715   0.49830   0.54716   0.00000  Uiso   1.00
H416   H     0.49954   0.97739   0.33943   0.00000  Uiso   1.00
C417   C     0.08664   0.00391   0.46097   0.00000  Uiso   1.00
C418   C     0.10821   0.00481   0.46100   0.00000  Uiso   1.00
C419   C     0.18560   0.99167   0.53876   0.00000  Uiso   1.00
C420   C     0.44642   0.00143   0.88813   0.00000  Uiso   1.00
C421   C     0.43746   0.98309   0.87317   0.00000  Uiso   1.00
C422   C     0.42296   0.98366   0.83987   0.00000  Uiso   1.00
C423   C     0.41736   0.00246   0.82083   0.00000  Uiso   1.00
C424   C     0.42601   0.02093   0.83676   0.00000  Uiso   1.00
C425   C     0.44050   0.02035   0.87009   0.00000  Uiso   1.00
N426   N     0.40293   0.00204   0.78564   0.00000  Uiso   1.00
C427   C     0.39949   0.01693   0.75851   0.00000  Uiso   1.00
C428   C     0.38468   0.01430   0.72279   0.00000  Uiso   1.00
C429   C     0.38259   0.03006   0.69215   0.00000  Uiso   1.00
C430   C     0.36928   0.02767   0.65713   0.00000  Uiso   1.00
C431   C     0.35770   0.00945   0.65208   0.00000  Uiso   1.00
C432   C     0.35956   0.99380   0.68321   0.00000  Uiso   1.00
C433   C     0.37292   0.99618   0.71821   0.00000  Uiso   1.00
C434   C     0.34419   0.00661   0.61387   0.00000  Uiso   1.00
C435   C     0.33262   0.02323   0.59738   0.00000  Uiso   1.00
C436   C     0.32066   0.02076   0.56030   0.00000  Uiso   1.00
C437   C     0.32000   0.00165   0.53925   0.00000  Uiso   1.00
C438   C     0.33121   0.98495   0.55580   0.00000  Uiso   1.00
C439   C     0.34322   0.98740   0.59280   0.00000  Uiso   1.00
C440   C     0.20715   0.99299   0.46111   0.00000  Uiso   1.00
C441   C     0.25347   0.99567   0.46122   0.00000  Uiso   1.00
C442   C     0.27500   0.99705   0.46128   0.00000  Uiso   1.00
C443   C     0.99964   0.48336   0.09119   0.00000  Uiso   1.00
C444   C     0.99917   0.45613   0.96533   0.00000  Uiso   1.00
C445   C     0.99864   0.43563   0.97805   0.00000  Uiso   1.00
C446   C     0.48948   0.00022   0.13391   0.00000  Uiso   1.00
C447   C     0.53746   0.99920   0.92203   0.00000  Uiso   1.00
H448   H     0.07788   0.00356   0.42916   0.00000  Uiso   1.00
H449   H     0.11702   0.00526   0.42925   0.00000  Uiso   1.00
H450   H     0.17677   0.99112   0.57047   0.00000  Uiso   1.00
H451   H     0.44199   0.96767   0.88815   0.00000  Uiso   1.00
H452   H     0.41557   0.96873   0.82797   0.00000  Uiso   1.00
H453   H     0.42120   0.03641   0.82246   0.00000  Uiso   1.00
H454   H     0.44749   0.03535   0.88257   0.00000  Uiso   1.00
H455   H     0.40795   0.03227   0.76211   0.00000  Uiso   1.00
H456   H     0.39180   0.04497   0.69570   0.00000  Uiso   1.00
H457   H     0.36773   0.04055   0.63233   0.00000  Uiso   1.00
H458   H     0.35013   0.97901   0.68004   0.00000  Uiso   1.00
H459   H     0.37425   0.98332   0.74311   0.00000  Uiso   1.00
H460   H     0.33295   0.03885   0.61429   0.00000  Uiso   1.00
H461   H     0.31141   0.03432   0.54708   0.00000  Uiso   1.00
H462   H     0.33056   0.96929   0.53908   0.00000  Uiso   1.00
H463   H     0.35228   0.97367   0.60590   0.00000  Uiso   1.00
H464   H     0.21552   0.99354   0.42885   0.00000  Uiso   1.00
H465   H     0.24471   0.99504   0.42943   0.00000  Uiso   1.00
H466   H     0.28353   0.99743   0.42919   0.00000  Uiso   1.00
H467   H     0.99830   0.42285   0.95284   0.00000  Uiso   1.00
H468   H     0.47739   0.00046   0.16057   0.00000  Uiso   1.00
C469   C     0.58664   0.50391   0.96097   0.00000  Uiso   1.00
C470   C     0.60821   0.50481   0.96100   0.00000  Uiso   1.00
C471   C     0.68560   0.49167   0.03876   0.00000  Uiso   1.00
C472   C     0.94642   0.50143   0.38813   0.00000  Uiso   1.00
C473   C     0.93746   0.48309   0.37317   0.00000  Uiso   1.00
C474   C     0.92296   0.48366   0.33987   0.00000  Uiso   1.00
C475   C     0.91736   0.50246   0.32083   0.00000  Uiso   1.00
C476   C     0.92601   0.52093   0.33676   0.00000  Uiso   1.00
C477   C     0.94050   0.52035   0.37009   0.00000  Uiso   1.00
N478   N     0.90293   0.50204   0.28564   0.00000  Uiso   1.00
C479   C     0.89949   0.51693   0.25851   0.00000  Uiso   1.00
C480   C     0.88468   0.51430   0.22279   0.00000  Uiso   1.00
C481   C     0.88259   0.53006   0.19215   0.00000  Uiso   1.00
C482   C     0.86928   0.52767   0.15713   0.00000  Uiso   1.00
C483   C     0.85770   0.50945   0.15208   0.00000  Uiso   1.00
C484   C     0.85956   0.49380   0.18321   0.00000  Uiso   1.00
C485   C     0.87292   0.49618   0.21821   0.00000  Uiso   1.00
C486   C     0.84419   0.50661   0.11387   0.00000  Uiso   1.00
C487   C     0.83262   0.52323   0.09738   0.00000  Uiso   1.00
C488   C     0.82066   0.52076   0.06030   0.00000  Uiso   1.00
C489   C     0.82000   0.50165   0.03925   0.00000  Uiso   1.00
C490   C     0.83121   0.48495   0.05580   0.00000  Uiso   1.00
C491   C     0.84322   0.48740   0.09280   0.00000  Uiso   1.00
C492   C     0.70715   0.49299   0.96111   0.00000  Uiso   1.00
C493   C     0.75347   0.49567   0.96122   0.00000  Uiso   1.00
C494   C     0.77500   0.49705   0.96128   0.00000  Uiso   1.00
C495   C     0.49964   0.98336   0.59119   0.00000  Uiso   1.00
C496   C     0.49917   0.95613   0.46533   0.00000  Uiso   1.00
C497   C     0.49864   0.93563   0.47805   0.00000  Uiso   1.00
C498   C     0.98948   0.50022   0.63391   0.00000  Uiso   1.00
C499   C     0.03746   0.49920   0.42203   0.00000  Uiso   1.00
H500   H     0.57788   0.50356   0.92916   0.00000  Uiso   1.00
H501   H     0.61702   0.50526   0.92925   0.00000  Uiso   1.00
H502   H     0.67677   0.49112   0.07047   0.00000  Uiso   1.00
H503   H     0.94199   0.46767   0.38815   0.00000  Uiso   1.00
H504   H     0.91557   0.46873   0.32797   0.00000  Uiso   1.00
H505   H     0.92120   0.53641   0.32246   0.00000  Uiso   1.00
H506   H     0.94749   0.53535   0.38257   0.00000  Uiso   1.00
H507   H     0.90795   0.53227   0.26211   0.00000  Uiso   1.00
H508   H     0.89180   0.54497   0.19570   0.00000  Uiso   1.00
H509   H     0.86773   0.54055   0.13233   0.00000  Uiso   1.00
H510   H     0.85013   0.47901   0.18004   0.00000  Uiso   1.00
H511   H     0.87425   0.48332   0.24311   0.00000  Uiso   1.00
H512   H     0.83295   0.53885   0.11429   0.00000  Uiso   1.00
H513   H     0.81141   0.53432   0.04708   0.00000  Uiso   1.00
H514   H     0.83056   0.46929   0.03908   0.00000  Uiso   1.00
H515   H     0.85228   0.47367   0.10590   0.00000  Uiso   1.00
H516   H     0.71552   0.49354   0.92885   0.00000  Uiso   1.00
H517   H     0.74471   0.49504   0.92943   0.00000  Uiso   1.00
H518   H     0.78353   0.49743   0.92919   0.00000  Uiso   1.00
H519   H     0.49830   0.92285   0.45284   0.00000  Uiso   1.00
H520   H     0.97739   0.50046   0.66057   0.00000  Uiso   1.00
C521   C     0.91336   0.99609   0.46097   0.00000  Uiso   1.00
C522   C     0.89179   0.99519   0.46100   0.00000  Uiso   1.00
C523   C     0.81440   0.00833   0.53876   0.00000  Uiso   1.00
C524   C     0.55358   0.99857   0.88813   0.00000  Uiso   1.00
C525   C     0.56254   0.01691   0.87317   0.00000  Uiso   1.00
C526   C     0.57704   0.01634   0.83987   0.00000  Uiso   1.00
C527   C     0.58264   0.99754   0.82083   0.00000  Uiso   1.00
C528   C     0.57399   0.97907   0.83676   0.00000  Uiso   1.00
C529   C     0.55950   0.97965   0.87009   0.00000  Uiso   1.00
N530   N     0.59707   0.99796   0.78564   0.00000  Uiso   1.00
C531   C     0.60051   0.98307   0.75851   0.00000  Uiso   1.00
C532   C     0.61532   0.98570   0.72279   0.00000  Uiso   1.00
C533   C     0.61741   0.96994   0.69215   0.00000  Uiso   1.00
C534   C     0.63072   0.97233   0.65713   0.00000  Uiso   1.00
C535   C     0.64230   0.99055   0.65208   0.00000  Uiso   1.00
C536   C     0.64044   0.00620   0.68321   0.00000  Uiso   1.00
C537   C     0.62708   0.00382   0.71821   0.00000  Uiso   1.00
C538   C     0.65581   0.99339   0.61387   0.00000  Uiso   1.00
C539   C     0.66738   0.97677   0.59738   0.00000  Uiso   1.00
C540   C     0.67934   0.97924   0.56030   0.00000  Uiso   1.00
C541   C     0.68000   0.99835   0.53925   0.00000  Uiso   1.00
C542   C     0.66879   0.01505   0.55580   0.00000  Uiso   1.00
C543   C     0.65678   0.01260   0.59280   0.00000  Uiso   1.00
C544   C     0.79285   0.00701   0.46111   0.00000  Uiso   1.00
C545   C     0.74653   0.00433   0.46122   0.00000  Uiso   1.00
C546   C     0.72500   0.00295   0.46128   0.00000  Uiso   1.00
C547   C     0.00036   0.51664   0.09119   0.00000  Uiso   1.00
C548   C     0.00083   0.54387   0.96533   0.00000  Uiso   1.00
C549   C     0.00136   0.56437   0.97805   0.00000  Uiso   1.00
C550   C     0.51052   0.99978   0.13391   0.00000  Uiso   1.00
C551   C     0.46254   0.00080   0.92203   0.00000  Uiso   1.00
H552   H     0.92212   0.99644   0.42916   0.00000  Uiso   1.00
H553   H     0.88298   0.99474   0.42925   0.00000  Uiso   1.00
H554   H     0.82323   0.00888   0.57047   0.00000  Uiso   1.00
H555   H     0.55801   0.03233   0.88815   0.00000  Uiso   1.00
H556   H     0.58443   0.03127   0.82797   0.00000  Uiso   1.00
H557   H     0.57880   0.96359   0.82246   0.00000  Uiso   1.00
H558   H     0.55251   0.96465   0.88257   0.00000  Uiso   1.00
H559   H     0.59205   0.96773   0.76211   0.00000  Uiso   1.00
H560   H     0.60820   0.95503   0.69570   0.00000  Uiso   1.00
H561   H     0.63227   0.95945   0.63233   0.00000  Uiso   1.00
H562   H     0.64987   0.02099   0.68004   0.00000  Uiso   1.00
H563   H     0.62575   0.01668   0.74311   0.00000  Uiso   1.00
H564   H     0.66705   0.96115   0.61429   0.00000  Uiso   1.00
H565   H     0.68859   0.96568   0.54708   0.00000  Uiso   1.00
H566   H     0.66944   0.03071   0.53908   0.00000  Uiso   1.00
H567   H     0.64772   0.02633   0.60590   0.00000  Uiso   1.00
H568   H     0.78448   0.00646   0.42885   0.00000  Uiso   1.00
H569   H     0.75529   0.00496   0.42943   0.00000  Uiso   1.00
H570   H     0.71647   0.00257   0.42919   0.00000  Uiso   1.00
H571   H     0.00170   0.57715   0.95284   0.00000  Uiso   1.00
H572   H     0.52261   0.99954   0.16057   0.00000  Uiso   1.00
C573   C     0.41336   0.49609   0.96097   0.00000  Uiso   1.00
C574   C     0.39179   0.49519   0.96100   0.00000  Uiso   1.00
C575   C     0.31440   0.50833   0.03876   0.00000  Uiso   1.00
C576   C     0.05358   0.49857   0.38813   0.00000  Uiso   1.00
C577   C     0.06254   0.51691   0.37317   0.00000  Uiso   1.00
C578   C     0.07704   0.51634   0.33987   0.00000  Uiso   1.00
C579   C     0.08264   0.49754   0.32083   0.00000  Uiso   1.00
C580   C     0.07399   0.47907   0.33676   0.00000  Uiso   1.00
C581   C     0.05950   0.47965   0.37009   0.00000  Uiso   1.00
N582   N     0.09707   0.49796   0.28564   0.00000  Uiso   1.00
C583   C     0.10051   0.48307   0.25851   0.00000  Uiso   1.00
C584   C     0.11532   0.48570   0.22279   0.00000  Uiso   1.00
C585   C     0.11741   0.46994   0.19215   0.00000  Uiso   1.00
C586   C     0.13072   0.47233   0.15713   0.00000  Uiso   1.00
C587   C     0.14230   0.49055   0.15208   0.00000  Uiso   1.00
C588   C     0.14044   0.50620   0.18321   0.00000  Uiso   1.00
C589   C     0.12708   0.50382   0.21821   0.00000  Uiso   1.00
C590   C     0.15581   0.49339   0.11387   0.00000  Uiso   1.00
C591   C     0.16738   0.47677   0.09738   0.00000  Uiso   1.00
C592   C     0.17934   0.47924   0.06030   0.00000  Uiso   1.00
C593   C     0.18000   0.49835   0.03925   0.00000  Uiso   1.00
C594   C     0.16879   0.51505   0.05580   0.00000  Uiso   1.00
C595   C     0.15678   0.51260   0.09280   0.00000  Uiso   1.00
C596   C     0.29285   0.50701   0.96111   0.00000  Uiso   1.00
C597   C     0.24653   0.50433   0.96122   0.00000  Uiso   1.00
C598   C     0.22500   0.50295   0.96128   0.00000  Uiso   1.00
C599   C     0.50036   0.01664   0.59119   0.00000  Uiso   1.00
C600   C     0.50083   0.04387   0.46533   0.00000  Uiso   1.00
C601   C     0.50136   0.06437   0.47805   0.00000  Uiso   1.00
C602   C     0.01052   0.49978   0.63391   0.00000  Uiso   1.00
C603   C     0.96254   0.50080   0.42203   0.00000  Uiso   1.00
H604   H     0.42212   0.49644   0.92916   0.00000  Uiso   1.00
H605   H     0.38298   0.49474   0.92925   0.00000  Uiso   1.00
H606   H     0.32323   0.50888   0.07047   0.00000  Uiso   1.00
H607   H     0.05801   0.53233   0.38815   0.00000  Uiso   1.00
H608   H     0.08443   0.53127   0.32797   0.00000  Uiso   1.00
H609   H     0.07880   0.46359   0.32246   0.00000  Uiso   1.00
H610   H     0.05251   0.46465   0.38257   0.00000  Uiso   1.00
H611   H     0.09205   0.46773   0.26211   0.00000  Uiso   1.00
H612   H     0.10820   0.45503   0.19570   0.00000  Uiso   1.00
H613   H     0.13227   0.45945   0.13233   0.00000  Uiso   1.00
H614   H     0.14987   0.52099   0.18004   0.00000  Uiso   1.00
H615   H     0.12575   0.51668   0.24311   0.00000  Uiso   1.00
H616   H     0.16705   0.46115   0.11429   0.00000  Uiso   1.00
H617   H     0.18859   0.46568   0.04708   0.00000  Uiso   1.00
H618   H     0.16944   0.53071   0.03908   0.00000  Uiso   1.00
H619   H     0.14772   0.52633   0.10590   0.00000  Uiso   1.00
H620   H     0.28448   0.50646   0.92885   0.00000  Uiso   1.00
H621   H     0.25529   0.50496   0.92943   0.00000  Uiso   1.00
H622   H     0.21647   0.50257   0.92919   0.00000  Uiso   1.00
H623   H     0.50170   0.07715   0.45284   0.00000  Uiso   1.00
H624   H     0.02261   0.49954   0.66057   0.00000  Uiso   1.00
C625   C     0.99609   0.08664   0.46097   0.00000  Uiso   1.00
C626   C     0.99519   0.10821   0.46100   0.00000  Uiso   1.00
C627   C     0.00833   0.18560   0.53876   0.00000  Uiso   1.00
C628   C     0.99857   0.44642   0.88813   0.00000  Uiso   1.00
C629   C     0.01691   0.43746   0.87317   0.00000  Uiso   1.00
C630   C     0.01634   0.42296   0.83987   0.00000  Uiso   1.00
C631   C     0.99754   0.41736   0.82083   0.00000  Uiso   1.00
C632   C     0.97907   0.42601   0.83676   0.00000  Uiso   1.00
C633   C     0.97965   0.44050   0.87009   0.00000  Uiso   1.00
N634   N     0.99796   0.40293   0.78564   0.00000  Uiso   1.00
C635   C     0.98307   0.39949   0.75851   0.00000  Uiso   1.00
C636   C     0.98570   0.38468   0.72279   0.00000  Uiso   1.00
C637   C     0.96994   0.38259   0.69215   0.00000  Uiso   1.00
C638   C     0.97233   0.36928   0.65713   0.00000  Uiso   1.00
C639   C     0.99055   0.35770   0.65208   0.00000  Uiso   1.00
C640   C     0.00620   0.35956   0.68321   0.00000  Uiso   1.00
C641   C     0.00382   0.37292   0.71821   0.00000  Uiso   1.00
C642   C     0.99339   0.34419   0.61387   0.00000  Uiso   1.00
C643   C     0.97677   0.33262   0.59738   0.00000  Uiso   1.00
C644   C     0.97924   0.32066   0.56030   0.00000  Uiso   1.00
C645   C     0.99835   0.32000   0.53925   0.00000  Uiso   1.00
C646   C     0.01505   0.33121   0.55580   0.00000  Uiso   1.00
C647   C     0.01260   0.34322   0.59280   0.00000  Uiso   1.00
C648   C     0.00701   0.20715   0.46111   0.00000  Uiso   1.00
C649   C     0.00433   0.25347   0.46122   0.00000  Uiso   1.00
C650   C     0.00295   0.27500   0.46128   0.00000  Uiso   1.00
C651   C     0.51664   0.99964   0.09119   0.00000  Uiso   1.00
C652   C     0.54387   0.99917   0.96533   0.00000  Uiso   1.00
C653   C     0.56437   0.99864   0.97805   0.00000  Uiso   1.00
C654   C     0.99978   0.48948   0.13391   0.00000  Uiso   1.00
C655   C     0.00080   0.53746   0.92203   0.00000  Uiso   1.00
H656   H     0.99644   0.07788   0.42916   0.00000  Uiso   1.00
H657   H     0.99474   0.11702   0.42925   0.00000  Uiso   1.00
H658   H     0.00888   0.17677   0.57047   0.00000  Uiso   1.00
H659   H     0.03233   0.44199   0.88815   0.00000  Uiso   1.00
H660   H     0.03127   0.41557   0.82797   0.00000  Uiso   1.00
H661   H     0.96359   0.42120   0.82246   0.00000  Uiso   1.00
H662   H     0.96465   0.44749   0.88257   0.00000  Uiso   1.00
H663   H     0.96773   0.40795   0.76211   0.00000  Uiso   1.00
H664   H     0.95503   0.39180   0.69570   0.00000  Uiso   1.00
H665   H     0.95945   0.36773   0.63233   0.00000  Uiso   1.00
H666   H     0.02099   0.35013   0.68004   0.00000  Uiso   1.00
H667   H     0.01668   0.37425   0.74311   0.00000  Uiso   1.00
H668   H     0.96115   0.33295   0.61429   0.00000  Uiso   1.00
H669   H     0.96568   0.31141   0.54708   0.00000  Uiso   1.00
H670   H     0.03071   0.33056   0.53908   0.00000  Uiso   1.00
H671   H     0.02633   0.35228   0.60590   0.00000  Uiso   1.00
H672   H     0.00646   0.21552   0.42885   0.00000  Uiso   1.00
H673   H     0.00496   0.24471   0.42943   0.00000  Uiso   1.00
H674   H     0.00257   0.28353   0.42919   0.00000  Uiso   1.00
H675   H     0.57715   0.99830   0.95284   0.00000  Uiso   1.00
H676   H     0.99954   0.47739   0.16057   0.00000  Uiso   1.00
C677   C     0.49609   0.58664   0.96097   0.00000  Uiso   1.00
C678   C     0.49519   0.60821   0.96100   0.00000  Uiso   1.00
C679   C     0.50833   0.68560   0.03876   0.00000  Uiso   1.00
C680   C     0.49857   0.94642   0.38813   0.00000  Uiso   1.00
C681   C     0.51691   0.93746   0.37317   0.00000  Uiso   1.00
C682   C     0.51634   0.92296   0.33987   0.00000  Uiso   1.00
C683   C     0.49754   0.91736   0.32083   0.00000  Uiso   1.00
C684   C     0.47907   0.92601   0.33676   0.00000  Uiso   1.00
C685   C     0.47965   0.94050   0.37009   0.00000  Uiso   1.00
N686   N     0.49796   0.90293   0.28564   0.00000  Uiso   1.00
C687   C     0.48307   0.89949   0.25851   0.00000  Uiso   1.00
C688   C     0.48570   0.88468   0.22279   0.00000  Uiso   1.00
C689   C     0.46994   0.88259   0.19215   0.00000  Uiso   1.00
C690   C     0.47233   0.86928   0.15713   0.00000  Uiso   1.00
C691   C     0.49055   0.85770   0.15208   0.00000  Uiso   1.00
C692   C     0.50620   0.85956   0.18321   0.00000  Uiso   1.00
C693   C     0.50382   0.87292   0.21821   0.00000  Uiso   1.00
C694   C     0.49339   0.84419   0.11387   0.00000  Uiso   1.00
C695   C     0.47677   0.83262   0.09738   0.00000  Uiso   1.00
C696   C     0.47924   0.82066   0.06030   0.00000  Uiso   1.00
C697   C     0.49835   0.82000   0.03925   0.00000  Uiso   1.00
C698   C     0.51505   0.83121   0.05580   0.00000  Uiso   1.00
C699   C     0.51260   0.84322   0.09280   0.00000  Uiso   1.00
C700   C     0.50701   0.70715   0.96111   0.00000  Uiso   1.00
C701   C     0.50433   0.75347   0.96122   0.00000  Uiso   1.00
C702   C     0.50295   0.77500   0.96128   0.00000  Uiso   1.00
C703   C     0.01664   0.49964   0.59119   0.00000  Uiso   1.00
C704   C     0.04387   0.49917   0.46533   0.00000  Uiso   1.00
C705   C     0.06437   0.49864   0.47805   0.00000  Uiso   1.00
C706   C     0.49978   0.98948   0.63391   0.00000  Uiso   1.00
C707   C     0.50080   0.03746   0.42203   0.00000  Uiso   1.00
H708   H     0.49644   0.57788   0.92916   0.00000  Uiso   1.00
H709   H     0.49474   0.61702   0.92925   0.00000  Uiso   1.00
H710   H     0.50888   0.67677   0.07047   0.00000  Uiso   1.00
H711   H     0.53233   0.94199   0.38815   0.00000  Uiso   1.00
H712   H     0.53127   0.91557   0.32797   0.00000  Uiso   1.00
H713   H     0.46359   0.92120   0.32246   0.00000  Uiso   1.00
H714   H     0.46465   0.94749   0.38257   0.00000  Uiso   1.00
H715   H     0.46773   0.90795   0.26211   0.00000  Uiso   1.00
H716   H     0.45503   0.89180   0.19570   0.00000  Uiso   1.00
H717   H     0.45945   0.86773   0.13233   0.00000  Uiso   1.00
H718   H     0.52099   0.85013   0.18004   0.00000  Uiso   1.00
H719   H     0.51668   0.87425   0.24311   0.00000  Uiso   1.00
H720   H     0.46115   0.83295   0.11429   0.00000  Uiso   1.00
H721   H     0.46568   0.81141   0.04708   0.00000  Uiso   1.00
H722   H     0.53071   0.83056   0.03908   0.00000  Uiso   1.00
H723   H     0.52633   0.85228   0.10590   0.00000  Uiso   1.00
H724   H     0.50646   0.71552   0.92885   0.00000  Uiso   1.00
H725   H     0.50496   0.74471   0.92943   0.00000  Uiso   1.00
H726   H     0.50257   0.78353   0.92919   0.00000  Uiso   1.00
H727   H     0.07715   0.49830   0.45284   0.00000  Uiso   1.00
H728   H     0.49954   0.97739   0.66057   0.00000  Uiso   1.00
C729   C     0.00391   0.91336   0.46097   0.00000  Uiso   1.00
C730   C     0.00481   0.89179   0.46100   0.00000  Uiso   1.00
C731   C     0.99167   0.81440   0.53876   0.00000  Uiso   1.00
C732   C     0.00143   0.55358   0.88813   0.00000  Uiso   1.00
C733   C     0.98309   0.56254   0.87317   0.00000  Uiso   1.00
C734   C     0.98366   0.57704   0.83987   0.00000  Uiso   1.00
C735   C     0.00246   0.58264   0.82083   0.00000  Uiso   1.00
C736   C     0.02093   0.57399   0.83676   0.00000  Uiso   1.00
C737   C     0.02035   0.55950   0.87009   0.00000  Uiso   1.00
N738   N     0.00204   0.59707   0.78564   0.00000  Uiso   1.00
C739   C     0.01693   0.60051   0.75851   0.00000  Uiso   1.00
C740   C     0.01430   0.61532   0.72279   0.00000  Uiso   1.00
C741   C     0.03006   0.61741   0.69215   0.00000  Uiso   1.00
C742   C     0.02767   0.63072   0.65713   0.00000  Uiso   1.00
C743   C     0.00945   0.64230   0.65208   0.00000  Uiso   1.00
C744   C     0.99380   0.64044   0.68321   0.00000  Uiso   1.00
C745   C     0.99618   0.62708   0.71821   0.00000  Uiso   1.00
C746   C     0.00661   0.65581   0.61387   0.00000  Uiso   1.00
C747   C     0.02323   0.66738   0.59738   0.00000  Uiso   1.00
C748   C     0.02076   0.67934   0.56030   0.00000  Uiso   1.00
C749   C     0.00165   0.68000   0.53925   0.00000  Uiso   1.00
C750   C     0.98495   0.66879   0.55580   0.00000  Uiso   1.00
C751   C     0.98740   0.65678   0.59280   0.00000  Uiso   1.00
C752   C     0.99299   0.79285   0.46111   0.00000  Uiso   1.00
C753   C     0.99567   0.74653   0.46122   0.00000  Uiso   1.00
C754   C     0.99705   0.72500   0.46128   0.00000  Uiso   1.00
C755   C     0.48336   0.00036   0.09119   0.00000  Uiso   1.00
C756   C     0.45613   0.00083   0.96533   0.00000  Uiso   1.00
C757   C     0.43563   0.00136   0.97805   0.00000  Uiso   1.00
C758   C     0.00022   0.51052   0.13391   0.00000  Uiso   1.00
C759   C     0.99920   0.46254   0.92203   0.00000  Uiso   1.00
H760   H     0.00356   0.92212   0.42916   0.00000  Uiso   1.00
H761   H     0.00526   0.88298   0.42925   0.00000  Uiso   1.00
H762   H     0.99112   0.82323   0.57047   0.00000  Uiso   1.00
H763   H     0.96767   0.55801   0.88815   0.00000  Uiso   1.00
H764   H     0.96873   0.58443   0.82797   0.00000  Uiso   1.00
H765   H     0.03641   0.57880   0.82246   0.00000  Uiso   1.00
H766   H     0.03535   0.55251   0.88257   0.00000  Uiso   1.00
H767   H     0.03227   0.59205   0.76211   0.00000  Uiso   1.00
H768   H     0.04497   0.60820   0.69570   0.00000  Uiso   1.00
H769   H     0.04055   0.63227   0.63233   0.00000  Uiso   1.00
H770   H     0.97901   0.64987   0.68004   0.00000  Uiso   1.00
H771   H     0.98332   0.62575   0.74311   0.00000  Uiso   1.00
H772   H     0.03885   0.66705   0.61429   0.00000  Uiso   1.00
H773   H     0.03432   0.68859   0.54708   0.00000  Uiso   1.00
H774   H     0.96929   0.66944   0.53908   0.00000  Uiso   1.00
H775   H     0.97367   0.64772   0.60590   0.00000  Uiso   1.00
H776   H     0.99354   0.78448   0.42885   0.00000  Uiso   1.00
H777   H     0.99504   0.75529   0.42943   0.00000  Uiso   1.00
H778   H     0.99743   0.71647   0.42919   0.00000  Uiso   1.00
H779   H     0.42285   0.00170   0.95284   0.00000  Uiso   1.00
H780   H     0.00046   0.52261   0.16057   0.00000  Uiso   1.00
C781   C     0.50391   0.41336   0.96097   0.00000  Uiso   1.00
C782   C     0.50481   0.39179   0.96100   0.00000  Uiso   1.00
C783   C     0.49167   0.31440   0.03876   0.00000  Uiso   1.00
C784   C     0.50143   0.05358   0.38813   0.00000  Uiso   1.00
C785   C     0.48309   0.06254   0.37317   0.00000  Uiso   1.00
C786   C     0.48366   0.07704   0.33987   0.00000  Uiso   1.00
C787   C     0.50246   0.08264   0.32083   0.00000  Uiso   1.00
C788   C     0.52093   0.07399   0.33676   0.00000  Uiso   1.00
C789   C     0.52035   0.05950   0.37009   0.00000  Uiso   1.00
N790   N     0.50204   0.09707   0.28564   0.00000  Uiso   1.00
C791   C     0.51693   0.10051   0.25851   0.00000  Uiso   1.00
C792   C     0.51430   0.11532   0.22279   0.00000  Uiso   1.00
C793   C     0.53006   0.11741   0.19215   0.00000  Uiso   1.00
C794   C     0.52767   0.13072   0.15713   0.00000  Uiso   1.00
C795   C     0.50945   0.14230   0.15208   0.00000  Uiso   1.00
C796   C     0.49380   0.14044   0.18321   0.00000  Uiso   1.00
C797   C     0.49618   0.12708   0.21821   0.00000  Uiso   1.00
C798   C     0.50661   0.15581   0.11387   0.00000  Uiso   1.00
C799   C     0.52323   0.16738   0.09738   0.00000  Uiso   1.00
C800   C     0.52076   0.17934   0.06030   0.00000  Uiso   1.00
C801   C     0.50165   0.18000   0.03925   0.00000  Uiso   1.00
C802   C     0.48495   0.16879   0.05580   0.00000  Uiso   1.00
C803   C     0.48740   0.15678   0.09280   0.00000  Uiso   1.00
C804   C     0.49299   0.29285   0.96111   0.00000  Uiso   1.00
C805   C     0.49567   0.24653   0.96122   0.00000  Uiso   1.00
C806   C     0.49705   0.22500   0.96128   0.00000  Uiso   1.00
C807   C     0.98336   0.50036   0.59119   0.00000  Uiso   1.00
C808   C     0.95613   0.50083   0.46533   0.00000  Uiso   1.00
C809   C     0.93563   0.50136   0.47805   0.00000  Uiso   1.00
C810   C     0.50022   0.01052   0.63391   0.00000  Uiso   1.00
C811   C     0.49920   0.96254   0.42203   0.00000  Uiso   1.00
H812   H     0.50356   0.42212   0.92916   0.00000  Uiso   1.00
H813   H     0.50526   0.38298   0.92925   0.00000  Uiso   1.00
H814   H     0.49112   0.32323   0.07047   0.00000  Uiso   1.00
H815   H     0.46767   0.05801   0.38815   0.00000  Uiso   1.00
H816   H     0.46873   0.08443   0.32797   0.00000  Uiso   1.00
H817   H     0.53641   0.07880   0.32246   0.00000  Uiso   1.00
H818   H     0.53535   0.05251   0.38257   0.00000  Uiso   1.00
H819   H     0.53227   0.09205   0.26211   0.00000  Uiso   1.00
H820   H     0.54497   0.10820   0.19570   0.00000  Uiso   1.00
H821   H     0.54055   0.13227   0.13233   0.00000  Uiso   1.00
H822   H     0.47901   0.14987   0.18004   0.00000  Uiso   1.00
H823   H     0.48332   0.12575   0.24311   0.00000  Uiso   1.00
H824   H     0.53885   0.16705   0.11429   0.00000  Uiso   1.00
H825   H     0.53432   0.18859   0.04708   0.00000  Uiso   1.00
H826   H     0.46929   0.16944   0.03908   0.00000  Uiso   1.00
H827   H     0.47367   0.14772   0.10590   0.00000  Uiso   1.00
H828   H     0.49354   0.28448   0.92885   0.00000  Uiso   1.00
H829   H     0.49504   0.25529   0.92943   0.00000  Uiso   1.00
H830   H     0.49743   0.21647   0.92919   0.00000  Uiso   1.00
H831   H     0.92285   0.50170   0.45284   0.00000  Uiso   1.00
H832   H     0.50046   0.02261   0.66057   0.00000  Uiso   1.00
C833   C     0.99761   0.05290   0.50000   0.00000  Uiso   1.00
C834   C     0.97887   0.04184   0.50000   0.00000  Uiso   1.00
C835   C     0.95961   0.05116   0.50000   0.00000  Uiso   1.00
C836   C     0.92422   0.99658   0.50000   0.00000  Uiso   1.00
C837   C     0.88095   0.99483   0.50000   0.00000  Uiso   1.00
N838   N     0.85891   0.99393   0.50000   0.00000  Uiso   1.00
C839   C     0.78139   0.00635   0.50000   0.00000  Uiso   1.00
C840   C     0.75798   0.00497   0.50000   0.00000  Uiso   1.00
C841   C     0.71386   0.00204   0.50000   0.00000  Uiso   1.00
C842   C     0.95642   0.01727   0.50000   0.00000  Uiso   1.00
C843   C     0.94540   0.03561   0.50000   0.00000  Uiso   1.00
N844   N     0.97702   0.02099   0.50000   0.00000  Uiso   1.00
N845   N     0.69148   0.00055   0.50000   0.00000  Uiso   1.00
C846   C     0.84776   0.01054   0.50000   0.00000  Uiso   1.00
C847   C     0.82521   0.00898   0.50000   0.00000  Uiso   1.00
H848   H     0.95832   0.06872   0.50000   0.00000  Uiso   1.00
H849   H     0.92780   0.03531   0.50000   0.00000  Uiso   1.00
H850   H     0.85549   0.02636   0.50000   0.00000  Uiso   1.00
C851   C     0.49761   0.55290   0.00000   0.00000  Uiso   1.00
C852   C     0.47887   0.54184   0.00000   0.00000  Uiso   1.00
C853   C     0.45961   0.55116   0.00000   0.00000  Uiso   1.00
C854   C     0.42422   0.49658   0.00000   0.00000  Uiso   1.00
C855   C     0.38095   0.49483   0.00000   0.00000  Uiso   1.00
N856   N     0.35891   0.49393   0.00000   0.00000  Uiso   1.00
C857   C     0.28139   0.50635   0.00000   0.00000  Uiso   1.00
C858   C     0.25798   0.50497   0.00000   0.00000  Uiso   1.00
C859   C     0.21386   0.50204   0.00000   0.00000  Uiso   1.00
C860   C     0.45642   0.51727   0.00000   0.00000  Uiso   1.00
C861   C     0.44540   0.53561   0.00000   0.00000  Uiso   1.00
N862   N     0.47702   0.52099   0.00000   0.00000  Uiso   1.00
N863   N     0.19148   0.50055   0.00000   0.00000  Uiso   1.00
C864   C     0.34776   0.51054   0.00000   0.00000  Uiso   1.00
C865   C     0.32521   0.50898   0.00000   0.00000  Uiso   1.00
H866   H     0.45832   0.56872   0.00000   0.00000  Uiso   1.00
H867   H     0.42780   0.53531   0.00000   0.00000  Uiso   1.00
H868   H     0.35549   0.52636   0.00000   0.00000  Uiso   1.00
C869   C     0.00239   0.94710   0.50000   0.00000  Uiso   1.00
C870   C     0.02113   0.95816   0.50000   0.00000  Uiso   1.00
C871   C     0.04039   0.94884   0.50000   0.00000  Uiso   1.00
C872   C     0.07578   0.00342   0.50000   0.00000  Uiso   1.00
C873   C     0.11905   0.00517   0.50000   0.00000  Uiso   1.00
N874   N     0.14109   0.00607   0.50000   0.00000  Uiso   1.00
C875   C     0.21861   0.99365   0.50000   0.00000  Uiso   1.00
C876   C     0.24202   0.99503   0.50000   0.00000  Uiso   1.00
C877   C     0.28614   0.99796   0.50000   0.00000  Uiso   1.00
C878   C     0.04358   0.98273   0.50000   0.00000  Uiso   1.00
C879   C     0.05460   0.96439   0.50000   0.00000  Uiso   1.00
N880   N     0.02298   0.97901   0.50000   0.00000  Uiso   1.00
N881   N     0.30852   0.99945   0.50000   0.00000  Uiso   1.00
C882   C     0.15224   0.98946   0.50000   0.00000  Uiso   1.00
C883   C     0.17479   0.99102   0.50000   0.00000  Uiso   1.00
H884   H     0.04168   0.93128   0.50000   0.00000  Uiso   1.00
H885   H     0.07220   0.96469   0.50000   0.00000  Uiso   1.00
H886   H     0.14451   0.97364   0.50000   0.00000  Uiso   1.00
C887   C     0.50239   0.44710   0.00000   0.00000  Uiso   1.00
C888   C     0.52113   0.45816   0.00000   0.00000  Uiso   1.00
C889   C     0.54039   0.44884   0.00000   0.00000  Uiso   1.00
C890   C     0.57578   0.50342   0.00000   0.00000  Uiso   1.00
C891   C     0.61905   0.50517   0.00000   0.00000  Uiso   1.00
N892   N     0.64109   0.50607   0.00000   0.00000  Uiso   1.00
C893   C     0.71861   0.49365   0.00000   0.00000  Uiso   1.00
C894   C     0.74202   0.49503   0.00000   0.00000  Uiso   1.00
C895   C     0.78614   0.49796   0.00000   0.00000  Uiso   1.00
C896   C     0.54358   0.48273   0.00000   0.00000  Uiso   1.00
C897   C     0.55460   0.46439   0.00000   0.00000  Uiso   1.00
N898   N     0.52298   0.47901   0.00000   0.00000  Uiso   1.00
N899   N     0.80852   0.49945   0.00000   0.00000  Uiso   1.00
C900   C     0.65224   0.48946   0.00000   0.00000  Uiso   1.00
C901   C     0.67479   0.49102   0.00000   0.00000  Uiso   1.00
H902   H     0.54168   0.43128   0.00000   0.00000  Uiso   1.00
H903   H     0.57220   0.46469   0.00000   0.00000  Uiso   1.00
H904   H     0.64451   0.47364   0.00000   0.00000  Uiso   1.00
C905   C     0.94710   0.99761   0.50000   0.00000  Uiso   1.00
C906   C     0.95816   0.97887   0.50000   0.00000  Uiso   1.00
C907   C     0.94884   0.95961   0.50000   0.00000  Uiso   1.00
C908   C     0.00342   0.92422   0.50000   0.00000  Uiso   1.00
C909   C     0.00517   0.88095   0.50000   0.00000  Uiso   1.00
N910   N     0.00607   0.85891   0.50000   0.00000  Uiso   1.00
C911   C     0.99365   0.78139   0.50000   0.00000  Uiso   1.00
C912   C     0.99503   0.75798   0.50000   0.00000  Uiso   1.00
C913   C     0.99796   0.71386   0.50000   0.00000  Uiso   1.00
C914   C     0.98273   0.95642   0.50000   0.00000  Uiso   1.00
C915   C     0.96439   0.94540   0.50000   0.00000  Uiso   1.00
N916   N     0.97901   0.97702   0.50000   0.00000  Uiso   1.00
N917   N     0.99945   0.69148   0.50000   0.00000  Uiso   1.00
C918   C     0.98946   0.84776   0.50000   0.00000  Uiso   1.00
C919   C     0.99102   0.82521   0.50000   0.00000  Uiso   1.00
H920   H     0.93128   0.95832   0.50000   0.00000  Uiso   1.00
H921   H     0.96469   0.92780   0.50000   0.00000  Uiso   1.00
H922   H     0.97364   0.85549   0.50000   0.00000  Uiso   1.00
C923   C     0.44710   0.49761   0.00000   0.00000  Uiso   1.00
C924   C     0.45816   0.47887   0.00000   0.00000  Uiso   1.00
C925   C     0.44884   0.45961   0.00000   0.00000  Uiso   1.00
C926   C     0.50342   0.42422   0.00000   0.00000  Uiso   1.00
C927   C     0.50517   0.38095   0.00000   0.00000  Uiso   1.00
N928   N     0.50607   0.35891   0.00000   0.00000  Uiso   1.00
C929   C     0.49365   0.28139   0.00000   0.00000  Uiso   1.00
C930   C     0.49503   0.25798   0.00000   0.00000  Uiso   1.00
C931   C     0.49796   0.21386   0.00000   0.00000  Uiso   1.00
C932   C     0.48273   0.45642   0.00000   0.00000  Uiso   1.00
C933   C     0.46439   0.44540   0.00000   0.00000  Uiso   1.00
N934   N     0.47901   0.47702   0.00000   0.00000  Uiso   1.00
N935   N     0.49945   0.19148   0.00000   0.00000  Uiso   1.00
C936   C     0.48946   0.34776   0.00000   0.00000  Uiso   1.00
C937   C     0.49102   0.32521   0.00000   0.00000  Uiso   1.00
H938   H     0.43128   0.45832   0.00000   0.00000  Uiso   1.00
H939   H     0.46469   0.42780   0.00000   0.00000  Uiso   1.00
H940   H     0.47364   0.35549   0.00000   0.00000  Uiso   1.00
C941   C     0.05290   0.00239   0.50000   0.00000  Uiso   1.00
C942   C     0.04184   0.02113   0.50000   0.00000  Uiso   1.00
C943   C     0.05116   0.04039   0.50000   0.00000  Uiso   1.00
C944   C     0.99658   0.07578   0.50000   0.00000  Uiso   1.00
C945   C     0.99483   0.11905   0.50000   0.00000  Uiso   1.00
N946   N     0.99393   0.14109   0.50000   0.00000  Uiso   1.00
C947   C     0.00635   0.21861   0.50000   0.00000  Uiso   1.00
C948   C     0.00497   0.24202   0.50000   0.00000  Uiso   1.00
C949   C     0.00204   0.28614   0.50000   0.00000  Uiso   1.00
C950   C     0.01727   0.04358   0.50000   0.00000  Uiso   1.00
C951   C     0.03561   0.05460   0.50000   0.00000  Uiso   1.00
N952   N     0.02099   0.02298   0.50000   0.00000  Uiso   1.00
N953   N     0.00055   0.30852   0.50000   0.00000  Uiso   1.00
C954   C     0.01054   0.15224   0.50000   0.00000  Uiso   1.00
C955   C     0.00898   0.17479   0.50000   0.00000  Uiso   1.00
H956   H     0.06872   0.04168   0.50000   0.00000  Uiso   1.00
H957   H     0.03531   0.07220   0.50000   0.00000  Uiso   1.00
H958   H     0.02636   0.14451   0.50000   0.00000  Uiso   1.00
C959   C     0.55290   0.50239   0.00000   0.00000  Uiso   1.00
C960   C     0.54184   0.52113   0.00000   0.00000  Uiso   1.00
C961   C     0.55116   0.54039   0.00000   0.00000  Uiso   1.00
C962   C     0.49658   0.57578   0.00000   0.00000  Uiso   1.00
C963   C     0.49483   0.61905   0.00000   0.00000  Uiso   1.00
N964   N     0.49393   0.64109   0.00000   0.00000  Uiso   1.00
C965   C     0.50635   0.71861   0.00000   0.00000  Uiso   1.00
C966   C     0.50497   0.74202   0.00000   0.00000  Uiso   1.00
C967   C     0.50204   0.78614   0.00000   0.00000  Uiso   1.00
C968   C     0.51727   0.54358   0.00000   0.00000  Uiso   1.00
C969   C     0.53561   0.55460   0.00000   0.00000  Uiso   1.00
N970   N     0.52099   0.52298   0.00000   0.00000  Uiso   1.00
N971   N     0.50055   0.80852   0.00000   0.00000  Uiso   1.00
C972   C     0.51054   0.65224   0.00000   0.00000  Uiso   1.00
C973   C     0.50898   0.67479   0.00000   0.00000  Uiso   1.00
H974   H     0.56872   0.54168   0.00000   0.00000  Uiso   1.00
H975   H     0.53531   0.57220   0.00000   0.00000  Uiso   1.00
H976   H     0.52636   0.64451   0.00000   0.00000  Uiso   1.00
N977   N     0.46883   0.00049   0.00000   0.00000  Uiso   1.00
N978   N     0.96883   0.50049   0.50000   0.00000  Uiso   1.00
N979   N     0.53117   0.99951   0.00000   0.00000  Uiso   1.00
N980   N     0.03117   0.49951   0.50000   0.00000  Uiso   1.00
N981   N     0.99951   0.46883   0.00000   0.00000  Uiso   1.00
N982   N     0.49951   0.96883   0.50000   0.00000  Uiso   1.00
N983   N     0.00049   0.53117   0.00000   0.00000  Uiso   1.00
N984   N     0.50049   0.03117   0.50000   0.00000  Uiso   1.00
N985   N     0.50000   0.00000   0.06473   0.00000  Uiso   1.00
N986   N     0.00000   0.50000   0.56473   0.00000  Uiso   1.00
N987   N     0.00000   0.50000   0.06473   0.00000  Uiso   1.00
N988   N     0.50000   0.00000   0.56473   0.00000  Uiso   1.00
N989   N     0.50000   0.00000   0.93527   0.00000  Uiso   1.00
N990   N     0.00000   0.50000   0.43527   0.00000  Uiso   1.00
N991   N     0.00000   0.50000   0.93527   0.00000  Uiso   1.00
N992   N     0.50000   0.00000   0.43527   0.00000  Uiso   1.00
loop_
_geom_bond_atom_site_label_1
_geom_bond_atom_site_label_2
_geom_bond_distance
_geom_bond_site_symmetry_2
_ccdc_geom_bond_type
C1     C2      1.436   .     D
C1     H32     1.183   .     S
C1     C836    1.455   .     S
C2     H33     1.183   .     S
C2     C837    1.453   .     S
C3     H34     1.183   .     S
C3     C847    1.446   .     S
C3     C544    1.436   .     D
C4     C9      1.442   .     D
C4     C135    1.534   .     S
C4     C5      1.442   1_565 S
C5     C6      1.447   .     D
C5     H35     1.174   .     S
C5     C4      1.442   1_545 S
C6     H36     1.173   .     S
C6     C7      1.443   1_545 S
C7     C8      1.451   .     D
C7     N10     1.489   .     S
C7     C6      1.443   1_565 S
C8     C9      1.447   .     S
C8     H37     1.173   .     S
C9     H38     1.173   .     S
N10    C11     1.343   .     D
C11    C12     1.529   .     S
C11    H39     1.171   .     S
C12    C13     1.450   .     D
C12    C17     1.445   1_565 S
C13    C14     1.447   .     S
C13    H40     1.172   .     S
C14    C15     1.446   .     D
C14    H41     1.178   .     S
C15    C18     1.540   .     S
C15    C16     1.454   1_565 S
C16    C17     1.448   .     D
C16    H42     1.171   .     S
C16    C15     1.454   1_545 S
C17    H43     1.178   .     S
C17    C12     1.445   1_545 S
C18    C19     1.449   .     D
C18    C23     1.450   1_565 S
C19    C20     1.449   .     S
C19    H44     1.175   .     S
C20    C21     1.443   .     D
C20    H45     1.173   .     S
C21    C22     1.441   1_565 S
C21    N845    1.489   1_565 S
C22    C23     1.448   .     D
C22    H46     1.175   .     S
C22    C21     1.441   1_545 S
C23    H47     1.174   .     S
C23    C18     1.450   1_545 S
C24    H48     1.183   .     S
C24    C839    1.472   .     D
C24    C523    1.436   .     S
C25    C26     1.435   .     D
C25    H49     1.183   .     S
C25    C840    1.468   .     S
C26    H50     1.183   .     S
C26    C841    1.457   .     S
C27    C655    1.450   .     S
C27    C238    1.441   .     S
C27    N991    1.400   .     D
C28    C29     1.425   .     S
C28    N983    1.404   .     D
C28    C343    1.464   .     S
C29    H51     1.178   .     S
C29    C549    1.420   1_554 D
C30    H52     1.179   .     S
C30    C339    1.441   .     S
C30    C134    1.400   1_565 D
C31    C108    1.534   .     S
C31    C755    1.450   .     S
C31    C236    1.464   .     D
C53    C54     1.436   .     D
C53    H84     1.183   .     S
C53    C854    1.455   .     S
C54    H85     1.183   .     S
C54    C855    1.453   .     S
C55    H86     1.183   .     S
C55    C596    1.436   .     S
C55    C865    1.446   1_556 D
C56    C57     1.442   .     D
C56    C61     1.442   .     S
C56    C187    1.534   .     S
C57    C58     1.447   .     S
C57    H87     1.174   .     S
C58    C59     1.443   .     D
C58    H88     1.173   .     S
C59    C60     1.451   .     S
C59    N62     1.489   .     S
C60    C61     1.447   .     D
C60    H89     1.173   .     S
C61    H90     1.173   .     S
N62    C63     1.343   .     D
C63    C64     1.529   .     S
C63    H91     1.171   .     S
C64    C65     1.450   .     D
C64    C69     1.445   .     S
C65    C66     1.447   .     S
C65    H92     1.172   .     S
C66    C67     1.446   .     D
C66    H93     1.178   .     S
C67    C68     1.454   .     S
C67    C70     1.540   .     S
C68    C69     1.448   .     D
C68    H94     1.171   .     S
C69    H95     1.178   .     S
C70    C71     1.449   .     D
C70    C75     1.450   .     S
C71    C72     1.449   .     S
C71    H96     1.175   .     S
C72    C73     1.443   .     D
C72    H97     1.173   .     S
C73    C74     1.441   .     S
C73    N863    1.489   1_556 S
C74    C75     1.448   .     D
C74    H98     1.175   .     S
C75    H99     1.174   .     S
C76    H100    1.183   .     S
C76    C857    1.472   .     S
C76    C575    1.436   .     D
C77    C78     1.435   .     D
C77    H101    1.183   .     S
C77    C858    1.468   .     S
C78    H102    1.183   .     S
C78    C859    1.457   .     S
C79    C707    1.450   .     S
C79    C290    1.441   .     S
C79    N992    1.400   .     D
C80    C81     1.425   .     S
C80    N984    1.404   .     D
C80    C395    1.464   .     S
C81    H103    1.178   .     S
C81    C601    1.420   .     D
C82    H104    1.179   .     S
C82    C391    1.441   .     S
C82    C186    1.400   1_455 D
C83    C160    1.534   .     S
C83    C807    1.450   .     D
C83    C288    1.464   .     S
C105   C106    1.436   .     D
C105   H136    1.183   .     S
C105   C872    1.455   .     S
C106   H137    1.183   .     S
C106   C873    1.453   .     S
C107   H138    1.183   .     S
C107   C883    1.446   .     S
C107   C440    1.436   .     D
C108   C113    1.442   .     D
C108   C109    1.442   1_545 S
C109   C110    1.447   .     D
C109   H139    1.174   .     S
C109   C108    1.442   1_565 S
C110   H140    1.173   .     S
C110   C111    1.443   1_565 S
C111   C112    1.451   .     D
C111   N114    1.489   .     S
C111   C110    1.443   1_545 S
C112   C113    1.447   .     S
C112   H141    1.173   .     S
C113   H142    1.173   .     S
N114   C115    1.343   .     D
C115   C116    1.529   .     S
C115   H143    1.171   .     S
C116   C117    1.450   .     D
C116   C121    1.445   1_545 S
C117   C118    1.447   .     S
C117   H144    1.172   .     S
C118   C119    1.446   .     D
C118   H145    1.178   .     S
C119   C122    1.540   .     S
C119   C120    1.454   1_545 S
C120   C121    1.448   .     D
C120   H146    1.171   .     S
C120   C119    1.454   1_565 S
C121   H147    1.178   .     S
C121   C116    1.445   1_565 S
C122   C123    1.449   .     D
C122   C127    1.450   1_545 S
C123   C124    1.449   .     S
C123   H148    1.175   .     S
C124   C125    1.443   .     D
C124   H149    1.173   .     S
C125   C126    1.441   1_545 S
C125   N881    1.489   1_545 S
C126   C127    1.448   .     D
C126   H150    1.175   .     S
C126   C125    1.441   1_565 S
C127   H151    1.174   .     S
C127   C122    1.450   1_565 S
C128   H152    1.183   .     S
C128   C875    1.472   .     D
C128   C419    1.436   .     S
C129   C130    1.435   .     D
C129   H153    1.183   .     S
C129   C876    1.468   .     S
C130   H154    1.183   .     S
C130   C877    1.457   .     S
C131   C759    1.450   .     D
C131   C342    1.441   .     S
C131   N991    1.400   1_655 S
C132   C133    1.425   .     S
C132   N981    1.404   .     S
C132   C239    1.464   .     D
C133   H155    1.178   .     S
C133   C445    1.420   1_554 D
C134   H156    1.179   .     S
C134   C235    1.441   .     S
C134   C30     1.400   1_545 D
C135   C651    1.450   .     D
C135   C340    1.464   .     S
C157   C158    1.436   .     D
C157   H188    1.183   .     S
C157   C890    1.455   .     S
C158   H189    1.183   .     S
C158   C891    1.453   .     S
C159   H190    1.183   .     S
C159   C492    1.436   .     S
C159   C901    1.446   1_556 D
C160   C161    1.442   .     D
C160   C165    1.442   .     S
C161   C162    1.447   .     S
C161   H191    1.174   .     S
C162   C163    1.443   .     D
C162   H192    1.173   .     S
C163   C164    1.451   .     S
C163   N166    1.489   .     S
C164   C165    1.447   .     D
C164   H193    1.173   .     S
C165   H194    1.173   .     S
N166   C167    1.343   .     D
C167   C168    1.529   .     S
C167   H195    1.171   .     S
C168   C169    1.450   .     D
C168   C173    1.445   .     S
C169   C170    1.447   .     S
C169   H196    1.172   .     S
C170   C171    1.446   .     D
C170   H197    1.178   .     S
C171   C172    1.454   .     S
C171   C174    1.540   .     S
C172   C173    1.448   .     D
C172   H198    1.171   .     S
C173   H199    1.178   .     S
C174   C175    1.449   .     D
C174   C179    1.450   .     S
C175   C176    1.449   .     S
C175   H200    1.175   .     S
C176   C177    1.443   .     D
C176   H201    1.173   .     S
C177   C178    1.441   .     S
C177   N899    1.489   1_556 S
C178   C179    1.448   .     D
C178   H202    1.175   .     S
C179   H203    1.174   .     S
C180   H204    1.183   .     S
C180   C893    1.472   .     S
C180   C471    1.436   .     D
C181   C182    1.435   .     D
C181   H205    1.183   .     S
C181   C894    1.468   .     S
C182   H206    1.183   .     S
C182   C895    1.457   .     S
C183   C811    1.450   .     D
C183   C394    1.441   .     S
C183   N992    1.400   1_565 S
C184   C185    1.425   .     S
C184   N982    1.404   .     S
C184   C291    1.464   .     D
C185   H207    1.178   .     S
C185   C497    1.420   .     D
C186   H208    1.179   .     S
C186   C287    1.441   .     S
C186   C82     1.400   1_655 D
C187   C703    1.450   .     S
C187   C392    1.464   .     D
C209   C210    1.436   .     D
C209   H240    1.183   .     S
C209   C908    1.455   .     S
C210   H241    1.183   .     S
C210   C909    1.453   .     S
C211   H242    1.183   .     S
C211   C919    1.446   .     S
C211   C752    1.436   .     D
C212   C217    1.442   .     D
C212   C343    1.534   .     S
C212   C213    1.442   1_455 S
C213   C214    1.447   .     D
C213   H243    1.174   .     S
C213   C212    1.442   1_655 S
C214   H244    1.173   .     S
C214   C215    1.443   1_655 S
C215   C216    1.451   .     D
C215   N218    1.489   .     S
C215   C214    1.443   1_455 S
C216   C217    1.447   .     S
C216   H245    1.173   .     S
C217   H246    1.173   .     S
N218   C219    1.343   .     D
C219   C220    1.529   .     S
C219   H247    1.171   .     S
C220   C221    1.450   .     D
C220   C225    1.445   1_455 S
C221   C222    1.447   .     S
C221   H248    1.172   .     S
C222   C223    1.446   .     D
C222   H249    1.178   .     S
C223   C226    1.540   .     S
C223   C224    1.454   1_455 S
C224   C225    1.448   .     D
C224   H250    1.171   .     S
C224   C223    1.454   1_655 S
C225   H251    1.178   .     S
C225   C220    1.445   1_655 S
C226   C227    1.449   .     D
C226   C231    1.450   1_455 S
C227   C228    1.449   .     S
C227   H252    1.175   .     S
C228   C229    1.443   .     D
C228   H253    1.173   .     S
C229   C230    1.441   1_455 S
C229   N917    1.489   1_455 S
C230   C231    1.448   .     D
C230   H254    1.175   .     S
C230   C229    1.441   1_655 S
C231   H255    1.174   .     S
C231   C226    1.450   1_655 S
C232   H256    1.183   .     S
C232   C911    1.472   .     D
C232   C731    1.436   .     S
C233   C234    1.435   .     D
C233   H257    1.183   .     S
C233   C912    1.468   .     S
C234   H258    1.183   .     S
C234   C913    1.457   .     S
C235   C551    1.450   .     D
C235   N989    1.400   .     S
C236   C237    1.425   .     S
C236   N977    1.404   .     S
C237   H259    1.178   .     S
C237   C757    1.420   1_554 D
C238   H260    1.179   .     S
C238   C342    1.400   1_455 D
C239   C316    1.534   .     S
C239   C443    1.450   .     S
C261   C262    1.436   .     D
C261   H292    1.183   .     S
C261   C926    1.455   .     S
C262   H293    1.183   .     S
C262   C927    1.453   .     S
C263   H294    1.183   .     S
C263   C804    1.436   .     S
C263   C937    1.446   1_556 D
C264   C265    1.442   .     D
C264   C269    1.442   .     S
C264   C395    1.534   .     S
C265   C266    1.447   .     S
C265   H295    1.174   .     S
C266   C267    1.443   .     D
C266   H296    1.173   .     S
C267   C268    1.451   .     S
C267   N270    1.489   .     S
C268   C269    1.447   .     D
C268   H297    1.173   .     S
C269   H298    1.173   .     S
N270   C271    1.343   .     D
C271   C272    1.529   .     S
C271   H299    1.171   .     S
C272   C273    1.450   .     D
C272   C277    1.445   .     S
C273   C274    1.447   .     S
C273   H300    1.172   .     S
C274   C275    1.446   .     D
C274   H301    1.178   .     S
C275   C276    1.454   .     S
C275   C278    1.540   .     S
C276   C277    1.448   .     D
C276   H302    1.171   .     S
C277   H303    1.178   .     S
C278   C279    1.449   .     D
C278   C283    1.450   .     S
C279   C280    1.449   .     S
C279   H304    1.175   .     S
C280   C281    1.443   .     D
C280   H305    1.173   .     S
C281   C282    1.441   .     S
C281   N935    1.489   1_556 S
C282   C283    1.448   .     D
C282   H306    1.175   .     S
C283   H307    1.174   .     S
C284   H308    1.183   .     S
C284   C929    1.472   .     S
C284   C783    1.436   .     D
C285   C286    1.435   .     D
C285   H309    1.183   .     S
C285   C930    1.468   .     S
C286   H310    1.183   .     S
C286   C931    1.457   .     S
C287   C603    1.450   .     S
C287   N990    1.400   1_655 D
C288   C289    1.425   .     S
C288   N978    1.404   .     D
C289   H311    1.178   .     S
C289   C809    1.420   .     D
C290   H312    1.179   .     S
C290   C394    1.400   1_545 D
C291   C368    1.534   .     S
C291   C495    1.450   .     S
C313   C314    1.436   .     D
C313   H344    1.183   .     S
C313   C944    1.455   .     S
C314   H345    1.183   .     S
C314   C945    1.453   .     S
C315   H346    1.183   .     S
C315   C955    1.446   .     D
C315   C648    1.436   .     S
C316   C321    1.442   .     D
C316   C317    1.442   1_655 S
C317   C318    1.447   .     D
C317   H347    1.174   .     S
C317   C316    1.442   1_455 S
C318   H348    1.173   .     S
C318   C319    1.443   1_455 S
C319   C320    1.451   .     D
C319   N322    1.489   .     S
C319   C318    1.443   1_655 S
C320   C321    1.447   .     S
C320   H349    1.173   .     S
C321   H350    1.173   .     S
N322   C323    1.343   .     D
C323   C324    1.529   .     S
C323   H351    1.171   .     S
C324   C325    1.450   .     D
C324   C329    1.445   1_655 S
C325   C326    1.447   .     S
C325   H352    1.172   .     S
C326   C327    1.446   .     D
C326   H353    1.178   .     S
C327   C330    1.540   .     S
C327   C328    1.454   1_655 S
C328   C329    1.448   .     D
C328   H354    1.171   .     S
C328   C327    1.454   1_455 S
C329   H355    1.178   .     S
C329   C324    1.445   1_455 S
C330   C331    1.449   .     D
C330   C335    1.450   1_655 S
C331   C332    1.449   .     S
C331   H356    1.175   .     S
C332   C333    1.443   .     D
C332   H357    1.173   .     S
C333   C334    1.441   1_655 S
C333   N953    1.489   1_655 S
C334   C335    1.448   .     D
C334   H358    1.175   .     S
C334   C333    1.441   1_455 S
C335   H359    1.174   .     S
C335   C330    1.450   1_455 S
C336   H360    1.183   .     S
C336   C947    1.472   .     S
C336   C627    1.436   .     D
C337   C338    1.435   .     D
C337   H361    1.183   .     S
C337   C948    1.468   .     S
C338   H362    1.183   .     S
C338   C949    1.457   .     S
C339   C447    1.450   .     S
C339   N989    1.400   1_565 D
C340   C341    1.425   .     S
C340   N979    1.404   .     D
C341   H363    1.178   .     S
C341   C653    1.420   1_554 D
C342   H364    1.179   .     S
C342   C238    1.400   1_655 D
C343   C547    1.450   .     D
C365   C366    1.436   .     S
C365   H396    1.183   .     S
C365   C962    1.455   .     D
C366   H397    1.183   .     S
C366   C963    1.453   .     D
C367   H398    1.183   .     S
C367   C700    1.436   .     D
C367   C973    1.446   1_556 S
C368   C369    1.442   .     D
C368   C373    1.442   .     S
C369   C370    1.447   .     S
C369   H399    1.174   .     S
C370   C371    1.443   .     D
C370   H400    1.173   .     S
C371   C372    1.451   .     S
C371   N374    1.489   .     S
C372   C373    1.447   .     D
C372   H401    1.173   .     S
C373   H402    1.173   .     S
N374   C375    1.343   .     D
C375   C376    1.529   .     S
C375   H403    1.171   .     S
C376   C377    1.450   .     D
C376   C381    1.445   .     S
C377   C378    1.447   .     S
C377   H404    1.172   .     S
C378   C379    1.446   .     D
C378   H405    1.178   .     S
C379   C380    1.454   .     S
C379   C382    1.540   .     S
C380   C381    1.448   .     D
C380   H406    1.171   .     S
C381   H407    1.178   .     S
C382   C383    1.449   .     D
C382   C387    1.450   .     S
C383   C384    1.449   .     S
C383   H408    1.175   .     S
C384   C385    1.443   .     D
C384   H409    1.173   .     S
C385   C386    1.441   .     S
C385   N971    1.489   1_556 S
C386   C387    1.448   .     D
C386   H410    1.175   .     S
C387   H411    1.174   .     S
C388   H412    1.183   .     S
C388   C965    1.472   .     D
C388   C679    1.436   .     S
C389   C390    1.435   .     S
C389   H413    1.183   .     S
C389   C966    1.468   .     D
C390   H414    1.183   .     S
C390   C967    1.457   .     D
C391   C499    1.450   .     D
C391   N990    1.400   .     S
C392   C393    1.425   .     S
C392   N980    1.404   .     S
C393   H415    1.178   .     S
C393   C705    1.420   .     D
C394   H416    1.179   .     S
C394   C290    1.400   1_565 D
C395   C599    1.450   .     D
C417   C418    1.436   .     S
C417   H448    1.183   .     S
C417   C872    1.455   .     D
C418   H449    1.183   .     S
C418   C873    1.453   .     D
C419   H450    1.183   .     S
C419   C883    1.446   .     D
C420   C425    1.442   .     D
C420   C551    1.534   .     S
C420   C421    1.442   1_545 S
C421   C422    1.447   .     D
C421   H451    1.174   .     S
C421   C420    1.442   1_565 S
C422   H452    1.173   .     S
C422   C423    1.443   1_565 S
C423   C424    1.451   .     D
C423   N426    1.489   .     S
C423   C422    1.443   1_545 S
C424   C425    1.447   .     S
C424   H453    1.173   .     S
C425   H454    1.173   .     S
N426   C427    1.343   .     D
C427   C428    1.529   .     S
C427   H455    1.171   .     S
C428   C429    1.450   .     D
C428   C433    1.445   1_545 S
C429   C430    1.447   .     S
C429   H456    1.172   .     S
C430   C431    1.446   .     D
C430   H457    1.178   .     S
C431   C434    1.540   .     S
C431   C432    1.454   1_545 S
C432   C433    1.448   .     D
C432   H458    1.171   .     S
C432   C431    1.454   1_565 S
C433   H459    1.178   .     S
C433   C428    1.445   1_565 S
C434   C435    1.449   .     D
C434   C439    1.450   1_545 S
C435   C436    1.449   .     S
C435   H460    1.175   .     S
C436   C437    1.443   .     D
C436   H461    1.173   .     S
C437   C438    1.441   1_545 S
C437   N881    1.489   1_545 S
C438   C439    1.448   .     D
C438   H462    1.175   .     S
C438   C437    1.441   1_565 S
C439   H463    1.174   .     S
C439   C434    1.450   1_565 S
C440   H464    1.183   .     S
C440   C875    1.472   .     S
C441   C442    1.435   .     S
C441   H465    1.183   .     S
C441   C876    1.468   .     D
C442   H466    1.183   .     S
C442   C877    1.457   .     D
C443   C654    1.441   .     S
C443   N987    1.400   1_655 D
C444   C445    1.425   .     S
C444   C759    1.464   .     S
C444   N981    1.404   1_556 D
C445   H467    1.178   .     S
C445   C133    1.420   1_556 D
C446   H468    1.179   .     S
C446   C755    1.441   .     S
C446   C550    1.400   1_545 D
C447   C524    1.534   .     S
C447   C652    1.464   .     D
C469   C470    1.436   .     S
C469   H500    1.183   .     S
C469   C890    1.455   1_556 D
C470   H501    1.183   .     S
C470   C891    1.453   1_556 D
C471   H502    1.183   .     S
C471   C901    1.446   .     S
C472   C473    1.442   .     D
C472   C477    1.442   .     S
C472   C603    1.534   .     S
C473   C474    1.447   .     S
C473   H503    1.174   .     S
C474   C475    1.443   .     D
C474   H504    1.173   .     S
C475   C476    1.451   .     S
C475   N478    1.489   .     S
C476   C477    1.447   .     D
C476   H505    1.173   .     S
C477   H506    1.173   .     S
N478   C479    1.343   .     D
C479   C480    1.529   .     S
C479   H507    1.171   .     S
C480   C481    1.450   .     D
C480   C485    1.445   .     S
C481   C482    1.447   .     S
C481   H508    1.172   .     S
C482   C483    1.446   .     D
C482   H509    1.178   .     S
C483   C484    1.454   .     S
C483   C486    1.540   .     S
C484   C485    1.448   .     D
C484   H510    1.171   .     S
C485   H511    1.178   .     S
C486   C487    1.449   .     D
C486   C491    1.450   .     S
C487   C488    1.449   .     S
C487   H512    1.175   .     S
C488   C489    1.443   .     D
C488   H513    1.173   .     S
C489   C490    1.441   .     S
C489   N899    1.489   .     S
C490   C491    1.448   .     D
C490   H514    1.175   .     S
C491   H515    1.174   .     S
C492   H516    1.183   .     S
C492   C893    1.472   1_556 D
C493   C494    1.435   .     S
C493   H517    1.183   .     S
C493   C894    1.468   1_556 D
C494   H518    1.183   .     S
C494   C895    1.457   1_556 D
C495   C706    1.441   .     S
C495   N988    1.400   1_565 D
C496   C497    1.425   .     S
C496   N982    1.404   .     D
C496   C811    1.464   .     S
C497   H519    1.178   .     S
C498   H520    1.179   .     S
C498   C807    1.441   .     S
C498   C602    1.400   1_655 D
C499   C576    1.534   .     S
C499   C704    1.464   .     S
C521   C522    1.436   .     S
C521   H552    1.183   .     S
C521   C836    1.455   .     D
C522   H553    1.183   .     S
C522   C837    1.453   .     D
C523   H554    1.183   .     S
C523   C847    1.446   .     D
C524   C529    1.442   .     D
C524   C525    1.442   1_565 S
C525   C526    1.447   .     D
C525   H555    1.174   .     S
C525   C524    1.442   1_545 S
C526   H556    1.173   .     S
C526   C527    1.443   1_545 S
C527   C528    1.451   .     D
C527   N530    1.489   .     S
C527   C526    1.443   1_565 S
C528   C529    1.447   .     S
C528   H557    1.173   .     S
C529   H558    1.173   .     S
N530   C531    1.343   .     D
C531   C532    1.529   .     S
C531   H559    1.171   .     S
C532   C533    1.450   .     D
C532   C537    1.445   1_565 S
C533   C534    1.447   .     S
C533   H560    1.172   .     S
C534   C535    1.446   .     D
C534   H561    1.178   .     S
C535   C538    1.540   .     S
C535   C536    1.454   1_565 S
C536   C537    1.448   .     D
C536   H562    1.171   .     S
C536   C535    1.454   1_545 S
C537   H563    1.178   .     S
C537   C532    1.445   1_545 S
C538   C539    1.449   .     D
C538   C543    1.450   1_565 S
C539   C540    1.449   .     S
C539   H564    1.175   .     S
C540   C541    1.443   .     D
C540   H565    1.173   .     S
C541   C542    1.441   1_565 S
C541   N845    1.489   1_565 S
C542   C543    1.448   .     D
C542   H566    1.175   .     S
C542   C541    1.441   1_545 S
C543   H567    1.174   .     S
C543   C538    1.450   1_545 S
C544   H568    1.183   .     S
C544   C839    1.472   .     S
C545   C546    1.435   .     S
C545   H569    1.183   .     S
C545   C840    1.468   .     D
C546   H570    1.183   .     S
C546   C841    1.457   .     D
C547   C758    1.441   .     S
C547   N987    1.400   .     S
C548   C549    1.425   .     S
C548   C655    1.464   .     D
C548   N983    1.404   1_556 S
C549   H571    1.178   .     S
C549   C29     1.420   1_556 D
C550   H572    1.179   .     S
C550   C651    1.441   .     S
C550   C446    1.400   1_565 D
C551   C756    1.464   .     S
C573   C574    1.436   .     S
C573   H604    1.183   .     S
C573   C854    1.455   1_556 D
C574   H605    1.183   .     S
C574   C855    1.453   1_556 D
C575   H606    1.183   .     S
C575   C865    1.446   .     S
C576   C577    1.442   .     D
C576   C581    1.442   .     S
C577   C578    1.447   .     S
C577   H607    1.174   .     S
C578   C579    1.443   .     D
C578   H608    1.173   .     S
C579   C580    1.451   .     S
C579   N582    1.489   .     S
C580   C581    1.447   .     D
C580   H609    1.173   .     S
C581   H610    1.173   .     S
N582   C583    1.343   .     D
C583   C584    1.529   .     S
C583   H611    1.171   .     S
C584   C585    1.450   .     D
C584   C589    1.445   .     S
C585   C586    1.447   .     S
C585   H612    1.172   .     S
C586   C587    1.446   .     D
C586   H613    1.178   .     S
C587   C588    1.454   .     S
C587   C590    1.540   .     S
C588   C589    1.448   .     D
C588   H614    1.171   .     S
C589   H615    1.178   .     S
C590   C591    1.449   .     D
C590   C595    1.450   .     S
C591   C592    1.449   .     S
C591   H616    1.175   .     S
C592   C593    1.443   .     D
C592   H617    1.173   .     S
C593   C594    1.441   .     S
C593   N863    1.489   .     S
C594   C595    1.448   .     D
C594   H618    1.175   .     S
C595   H619    1.174   .     S
C596   H620    1.183   .     S
C596   C857    1.472   1_556 D
C597   C598    1.435   .     S
C597   H621    1.183   .     S
C597   C858    1.468   1_556 D
C598   H622    1.183   .     S
C598   C859    1.457   1_556 D
C599   C810    1.441   .     S
C599   N988    1.400   .     S
C600   C601    1.425   .     S
C600   N984    1.404   .     S
C600   C707    1.464   .     D
C601   H623    1.178   .     S
C602   H624    1.179   .     S
C602   C703    1.441   .     S
C602   C498    1.400   1_455 D
C603   C808    1.464   .     D
C625   C626    1.436   .     S
C625   H656    1.183   .     S
C625   C944    1.455   .     D
C626   H657    1.183   .     S
C626   C945    1.453   .     D
C627   H658    1.183   .     S
C627   C955    1.446   .     S
C628   C633    1.442   .     D
C628   C759    1.534   .     S
C628   C629    1.442   1_655 S
C629   C630    1.447   .     D
C629   H659    1.174   .     S
C629   C628    1.442   1_455 S
C630   H660    1.173   .     S
C630   C631    1.443   1_455 S
C631   C632    1.451   .     D
C631   N634    1.489   .     S
C631   C630    1.443   1_655 S
C632   C633    1.447   .     S
C632   H661    1.173   .     S
C633   H662    1.173   .     S
N634   C635    1.343   .     D
C635   C636    1.529   .     S
C635   H663    1.171   .     S
C636   C637    1.450   .     D
C636   C641    1.445   1_655 S
C637   C638    1.447   .     S
C637   H664    1.172   .     S
C638   C639    1.446   .     D
C638   H665    1.178   .     S
C639   C642    1.540   .     S
C639   C640    1.454   1_655 S
C640   C641    1.448   .     D
C640   H666    1.171   .     S
C640   C639    1.454   1_455 S
C641   H667    1.178   .     S
C641   C636    1.445   1_455 S
C642   C643    1.449   .     D
C642   C647    1.450   1_655 S
C643   C644    1.449   .     S
C643   H668    1.175   .     S
C644   C645    1.443   .     D
C644   H669    1.173   .     S
C645   C646    1.441   1_655 S
C645   N953    1.489   1_655 S
C646   C647    1.448   .     D
C646   H670    1.175   .     S
C646   C645    1.441   1_455 S
C647   H671    1.174   .     S
C647   C642    1.450   1_455 S
C648   H672    1.183   .     S
C648   C947    1.472   .     D
C649   C650    1.435   .     S
C649   H673    1.183   .     S
C649   C948    1.468   .     D
C650   H674    1.183   .     S
C650   C949    1.457   .     D
C651   N985    1.400   1_565 S
C652   C653    1.425   .     S
C652   N979    1.404   1_556 S
C653   H675    1.178   .     S
C653   C341    1.420   1_556 D
C654   H676    1.179   .     S
C654   C758    1.400   1_655 D
C655   C732    1.534   .     S
C677   C678    1.436   .     D
C677   H708    1.183   .     S
C677   C962    1.455   1_556 S
C678   H709    1.183   .     S
C678   C963    1.453   1_556 S
C679   H710    1.183   .     S
C679   C973    1.446   .     D
C680   C681    1.442   .     D
C680   C685    1.442   .     S
C680   C811    1.534   .     S
C681   C682    1.447   .     S
C681   H711    1.174   .     S
C682   C683    1.443   .     D
C682   H712    1.173   .     S
C683   C684    1.451   .     S
C683   N686    1.489   .     S
C684   C685    1.447   .     D
C684   H713    1.173   .     S
C685   H714    1.173   .     S
N686   C687    1.343   .     D
C687   C688    1.529   .     S
C687   H715    1.171   .     S
C688   C689    1.450   .     D
C688   C693    1.445   .     S
C689   C690    1.447   .     S
C689   H716    1.172   .     S
C690   C691    1.446   .     D
C690   H717    1.178   .     S
C691   C692    1.454   .     S
C691   C694    1.540   .     S
C692   C693    1.448   .     D
C692   H718    1.171   .     S
C693   H719    1.178   .     S
C694   C695    1.449   .     D
C694   C699    1.450   .     S
C695   C696    1.449   .     S
C695   H720    1.175   .     S
C696   C697    1.443   .     D
C696   H721    1.173   .     S
C697   C698    1.441   .     S
C697   N971    1.489   .     S
C698   C699    1.448   .     D
C698   H722    1.175   .     S
C699   H723    1.174   .     S
C700   H724    1.183   .     S
C700   C965    1.472   1_556 S
C701   C702    1.435   .     D
C701   H725    1.183   .     S
C701   C966    1.468   1_556 S
C702   H726    1.183   .     S
C702   C967    1.457   1_556 S
C703   N986    1.400   .     D
C704   C705    1.425   .     S
C704   N980    1.404   .     D
C705   H727    1.178   .     S
C706   H728    1.179   .     S
C706   C810    1.400   1_565 D
C707   C784    1.534   .     S
C729   C730    1.436   .     S
C729   H760    1.183   .     S
C729   C908    1.455   .     D
C730   H761    1.183   .     S
C730   C909    1.453   .     D
C731   H762    1.183   .     S
C731   C919    1.446   .     D
C732   C737    1.442   .     D
C732   C733    1.442   1_455 S
C733   C734    1.447   .     D
C733   H763    1.174   .     S
C733   C732    1.442   1_655 S
C734   H764    1.173   .     S
C734   C735    1.443   1_655 S
C735   C736    1.451   .     D
C735   N738    1.489   .     S
C735   C734    1.443   1_455 S
C736   C737    1.447   .     S
C736   H765    1.173   .     S
C737   H766    1.173   .     S
N738   C739    1.343   .     D
C739   C740    1.529   .     S
C739   H767    1.171   .     S
C740   C741    1.450   .     D
C740   C745    1.445   1_455 S
C741   C742    1.447   .     S
C741   H768    1.172   .     S
C742   C743    1.446   .     D
C742   H769    1.178   .     S
C743   C746    1.540   .     S
C743   C744    1.454   1_455 S
C744   C745    1.448   .     D
C744   H770    1.171   .     S
C744   C743    1.454   1_655 S
C745   H771    1.178   .     S
C745   C740    1.445   1_655 S
C746   C747    1.449   .     D
C746   C751    1.450   1_455 S
C747   C748    1.449   .     S
C747   H772    1.175   .     S
C748   C749    1.443   .     D
C748   H773    1.173   .     S
C749   C750    1.441   1_455 S
C749   N917    1.489   1_455 S
C750   C751    1.448   .     D
C750   H774    1.175   .     S
C750   C749    1.441   1_655 S
C751   H775    1.174   .     S
C751   C746    1.450   1_655 S
C752   H776    1.183   .     S
C752   C911    1.472   .     S
C753   C754    1.435   .     S
C753   H777    1.183   .     S
C753   C912    1.468   .     D
C754   H778    1.183   .     S
C754   C913    1.457   .     D
C755   N985    1.400   .     D
C756   C757    1.425   .     S
C756   N977    1.404   1_556 D
C757   H779    1.178   .     S
C757   C237    1.420   1_556 D
C758   H780    1.179   .     S
C758   C654    1.400   1_455 D
C781   C782    1.436   .     S
C781   H812    1.183   .     S
C781   C926    1.455   1_556 D
C782   H813    1.183   .     S
C782   C927    1.453   1_556 D
C783   H814    1.183   .     S
C783   C937    1.446   .     S
C784   C785    1.442   .     D
C784   C789    1.442   .     S
C785   C786    1.447   .     S
C785   H815    1.174   .     S
C786   C787    1.443   .     D
C786   H816    1.173   .     S
C787   C788    1.451   .     S
C787   N790    1.489   .     S
C788   C789    1.447   .     D
C788   H817    1.173   .     S
C789   H818    1.173   .     S
N790   C791    1.343   .     D
C791   C792    1.529   .     S
C791   H819    1.171   .     S
C792   C793    1.450   .     D
C792   C797    1.445   .     S
C793   C794    1.447   .     S
C793   H820    1.172   .     S
C794   C795    1.446   .     D
C794   H821    1.178   .     S
C795   C796    1.454   .     S
C795   C798    1.540   .     S
C796   C797    1.448   .     D
C796   H822    1.171   .     S
C797   H823    1.178   .     S
C798   C799    1.449   .     D
C798   C803    1.450   .     S
C799   C800    1.449   .     S
C799   H824    1.175   .     S
C800   C801    1.443   .     D
C800   H825    1.173   .     S
C801   C802    1.441   .     S
C801   N935    1.489   .     S
C802   C803    1.448   .     D
C802   H826    1.175   .     S
C803   H827    1.174   .     S
C804   H828    1.183   .     S
C804   C929    1.472   1_556 D
C805   C806    1.435   .     S
C805   H829    1.183   .     S
C805   C930    1.468   1_556 D
C806   H830    1.183   .     S
C806   C931    1.457   1_556 D
C807   N986    1.400   1_655 S
C808   C809    1.425   .     S
C808   N978    1.404   .     S
C809   H831    1.178   .     S
C810   H832    1.179   .     S
C810   C706    1.400   1_545 D
C833   C834    1.448   .     S
C833   C944    1.524   .     S
C833   C950    1.448   1_655 D
C834   C835    1.424   .     S
C834   N844    1.393   .     D
C835   C843    1.401   .     D
C835   H848    1.171   .     S
C836   C905    1.524   .     S
C837   N838    1.468   .     S
N838   C846    1.331   1_565 D
C839   C840    1.560   .     S
C841   N845    1.492   .     S
C842   C843    1.423   .     S
C842   N844    1.393   .     S
C842   C905    1.448   1_545 D
C843   H849    1.171   .     S
N845   C21     1.489   1_545 S
N845   C541    1.489   1_545 S
C846   C847    1.504   .     S
C846   H850    1.171   .     S
C846   N838    1.331   1_545 D
C851   C852    1.448   .     S
C851   C968    1.448   .     D
C851   C962    1.524   .     S
C852   C853    1.424   .     S
C852   N862    1.393   .     D
C853   C861    1.401   .     D
C853   H866    1.171   .     S
C854   C923    1.524   .     S
C854   C573    1.455   1_554 D
C855   N856    1.468   .     S
C855   C574    1.453   1_554 D
N856   C864    1.331   .     D
C857   C858    1.560   .     S
C857   C596    1.472   1_554 D
C858   C597    1.468   1_554 D
C859   N863    1.492   .     S
C859   C598    1.457   1_554 D
C860   C861    1.423   .     S
C860   N862    1.393   .     S
C860   C923    1.448   .     D
C861   H867    1.171   .     S
N863   C73     1.489   1_554 S
C864   C865    1.504   .     S
C864   H868    1.171   .     S
C865   C55     1.446   1_554 D
C869   C870    1.448   .     S
C869   C908    1.524   .     S
C869   C914    1.448   1_455 D
C870   C871    1.424   .     S
C870   N880    1.393   .     D
C871   C879    1.401   .     D
C871   H884    1.171   .     S
C872   C941    1.524   .     S
C873   N874    1.468   .     S
N874   C882    1.331   1_545 D
C875   C876    1.560   .     S
C877   N881    1.492   .     S
C878   C879    1.423   .     S
C878   N880    1.393   .     S
C878   C941    1.448   1_565 D
C879   H885    1.171   .     S
N881   C125    1.489   1_565 S
N881   C437    1.489   1_565 S
C882   C883    1.504   .     S
C882   H886    1.171   .     S
C882   N874    1.331   1_565 D
C887   C888    1.448   .     S
C887   C932    1.448   .     D
C887   C926    1.524   .     S
C888   C889    1.424   .     S
C888   N898    1.393   .     D
C889   C897    1.401   .     D
C889   H902    1.171   .     S
C890   C959    1.524   .     S
C890   C469    1.455   1_554 D
C891   N892    1.468   .     S
C891   C470    1.453   1_554 D
N892   C900    1.331   .     D
C893   C894    1.560   .     S
C893   C492    1.472   1_554 D
C894   C493    1.468   1_554 D
C895   N899    1.492   .     S
C895   C494    1.457   1_554 D
C896   C897    1.423   .     S
C896   N898    1.393   .     S
C896   C959    1.448   .     D
C897   H903    1.171   .     S
N899   C177    1.489   1_554 S
C900   C901    1.504   .     S
C900   H904    1.171   .     S
C901   C159    1.446   1_554 D
C905   C906    1.448   .     S
C905   C842    1.448   1_565 D
C906   C907    1.424   .     S
C906   N916    1.393   .     D
C907   C915    1.401   .     D
C907   H920    1.171   .     S
C909   N910    1.468   .     S
N910   C918    1.331   1_455 D
C911   C912    1.560   .     S
C913   N917    1.492   .     S
C914   C915    1.423   .     S
C914   N916    1.393   .     S
C914   C869    1.448   1_655 D
C915   H921    1.171   .     S
N917   C229    1.489   1_655 S
N917   C749    1.489   1_655 S
C918   C919    1.504   .     S
C918   H922    1.171   .     S
C918   N910    1.331   1_655 D
C923   C924    1.448   .     S
C924   C925    1.424   .     S
C924   N934    1.393   .     D
C925   C933    1.401   .     D
C925   H938    1.171   .     S
C926   C781    1.455   1_554 D
C927   N928    1.468   .     S
C927   C782    1.453   1_554 D
N928   C936    1.331   .     D
C929   C930    1.560   .     S
C929   C804    1.472   1_554 D
C930   C805    1.468   1_554 D
C931   N935    1.492   .     S
C931   C806    1.457   1_554 D
C932   C933    1.423   .     S
C932   N934    1.393   .     S
C933   H939    1.171   .     S
N935   C281    1.489   1_554 S
C936   C937    1.504   .     S
C936   H940    1.171   .     S
C937   C263    1.446   1_554 D
C941   C942    1.448   .     S
C941   C878    1.448   1_545 D
C942   C943    1.424   .     S
C942   N952    1.393   .     D
C943   C951    1.401   .     D
C943   H956    1.171   .     S
C945   N946    1.468   .     S
N946   C954    1.331   1_655 D
C947   C948    1.560   .     S
C949   N953    1.492   .     S
C950   C951    1.423   .     S
C950   N952    1.393   .     S
C950   C833    1.448   1_455 D
C951   H957    1.171   .     S
N953   C333    1.489   1_455 S
N953   C645    1.489   1_455 S
C954   C955    1.504   .     S
C954   H958    1.171   .     S
C954   N946    1.331   1_455 D
C959   C960    1.448   .     S
C960   C961    1.424   .     S
C960   N970    1.393   .     D
C961   C969    1.401   .     D
C961   H974    1.171   .     S
C962   C677    1.455   1_554 S
C963   N964    1.468   .     S
C963   C678    1.453   1_554 S
N964   C972    1.331   .     D
C965   C966    1.560   .     S
C965   C700    1.472   1_554 S
C966   C701    1.468   1_554 S
C967   N971    1.492   .     S
C967   C702    1.457   1_554 S
C968   C969    1.423   .     S
C968   N970    1.393   .     S
C969   H975    1.171   .     S
N971   C385    1.489   1_554 S
C972   C973    1.504   .     S
C972   H976    1.171   .     S
C973   C367    1.446   1_554 S
N977   C756    1.404   1_554 D
N979   C652    1.404   1_554 S
N981   C444    1.404   1_554 D
N983   C548    1.404   1_554 S
N985   C651    1.400   1_545 S
N986   C807    1.400   1_455 S
N987   C443    1.400   1_455 D
N988   C495    1.400   1_545 D
N989   C339    1.400   1_545 D
N990   C287    1.400   1_455 D
N991   C131    1.400   1_455 S
N992   C183    1.400   1_545 S
