data_913
_audit_creation_date              2023-09-08
_audit_creation_method            'Materials Studio'
_symmetry_space_group_name_H-M    'P1'
_symmetry_Int_Tables_number       1
_symmetry_cell_setting            triclinic
loop_
_symmetry_equiv_pos_as_xyz
  x,y,z
_cell_length_a                    96.1389
_cell_length_b                    96.1389
_cell_length_c                    96.1389
_cell_angle_alpha                 90.0000
_cell_angle_beta                  90.0000
_cell_angle_gamma                 90.0000
loop_
_atom_site_label
_atom_site_type_symbol
_atom_site_fract_x
_atom_site_fract_y
_atom_site_fract_z
_atom_site_U_iso_or_equiv
_atom_site_adp_type
_atom_site_occupancy
C1     C     0.29302   0.02022   0.53805   0.00000  Uiso   1.00
C2     C     0.30344   0.02739   0.54521   0.00000  Uiso   1.00
C3     C     0.33405   0.07565   0.55783   0.00000  Uiso   1.00
C4     C     0.34526   0.08220   0.56437   0.00000  Uiso   1.00
C5     C     0.21029   0.97981   0.46198   0.00000  Uiso   1.00
C6     C     0.19973   0.97274   0.45492   0.00000  Uiso   1.00
C7     C     0.15390   0.93631   0.45413   0.00000  Uiso   1.00
C8     C     0.14295   0.92955   0.44738   0.00000  Uiso   1.00
H9     H     0.28907   0.01054   0.54222   0.00000  Uiso   1.00
H10    H     0.30749   0.02321   0.55484   0.00000  Uiso   1.00
H11    H     0.32981   0.08005   0.54837   0.00000  Uiso   1.00
H12    H     0.34958   0.09159   0.55991   0.00000  Uiso   1.00
H13    H     0.21428   0.98946   0.45778   0.00000  Uiso   1.00
H14    H     0.19564   0.97696   0.44533   0.00000  Uiso   1.00
H15    H     0.15802   0.93201   0.46369   0.00000  Uiso   1.00
H16    H     0.13870   0.92010   0.45178   0.00000  Uiso   1.00
C17    C     0.29302   0.52022   0.03805   0.00000  Uiso   1.00
C18    C     0.30344   0.52739   0.04521   0.00000  Uiso   1.00
C19    C     0.33405   0.57565   0.05783   0.00000  Uiso   1.00
C20    C     0.34526   0.58220   0.06437   0.00000  Uiso   1.00
C21    C     0.21029   0.47981   0.96198   0.00000  Uiso   1.00
C22    C     0.19973   0.47274   0.95492   0.00000  Uiso   1.00
C23    C     0.15390   0.43631   0.95413   0.00000  Uiso   1.00
C24    C     0.14295   0.42955   0.94738   0.00000  Uiso   1.00
H25    H     0.28907   0.51054   0.04222   0.00000  Uiso   1.00
H26    H     0.30749   0.52321   0.05484   0.00000  Uiso   1.00
H27    H     0.32981   0.58005   0.04837   0.00000  Uiso   1.00
H28    H     0.34958   0.59159   0.05991   0.00000  Uiso   1.00
H29    H     0.21428   0.48946   0.95778   0.00000  Uiso   1.00
H30    H     0.19564   0.47696   0.94533   0.00000  Uiso   1.00
H31    H     0.15802   0.43201   0.96369   0.00000  Uiso   1.00
H32    H     0.13870   0.42010   0.95178   0.00000  Uiso   1.00
C33    C     0.79302   0.02022   0.03805   0.00000  Uiso   1.00
C34    C     0.80344   0.02739   0.04521   0.00000  Uiso   1.00
C35    C     0.83405   0.07565   0.05783   0.00000  Uiso   1.00
C36    C     0.84526   0.08220   0.06437   0.00000  Uiso   1.00
C37    C     0.71029   0.97981   0.96198   0.00000  Uiso   1.00
C38    C     0.69973   0.97274   0.95492   0.00000  Uiso   1.00
C39    C     0.65390   0.93631   0.95413   0.00000  Uiso   1.00
C40    C     0.64295   0.92955   0.94738   0.00000  Uiso   1.00
H41    H     0.78907   0.01054   0.04222   0.00000  Uiso   1.00
H42    H     0.80749   0.02321   0.05484   0.00000  Uiso   1.00
H43    H     0.82981   0.08005   0.04837   0.00000  Uiso   1.00
H44    H     0.84958   0.09159   0.05991   0.00000  Uiso   1.00
H45    H     0.71428   0.98946   0.95778   0.00000  Uiso   1.00
H46    H     0.69564   0.97696   0.94533   0.00000  Uiso   1.00
H47    H     0.65802   0.93201   0.96369   0.00000  Uiso   1.00
H48    H     0.63870   0.92010   0.95178   0.00000  Uiso   1.00
C49    C     0.79302   0.52022   0.53805   0.00000  Uiso   1.00
C50    C     0.80344   0.52739   0.54521   0.00000  Uiso   1.00
C51    C     0.83405   0.57565   0.55783   0.00000  Uiso   1.00
C52    C     0.84526   0.58220   0.56437   0.00000  Uiso   1.00
C53    C     0.71029   0.47981   0.46198   0.00000  Uiso   1.00
C54    C     0.69973   0.47274   0.45492   0.00000  Uiso   1.00
C55    C     0.65390   0.43631   0.45413   0.00000  Uiso   1.00
C56    C     0.64295   0.42955   0.44738   0.00000  Uiso   1.00
H57    H     0.78907   0.51054   0.54222   0.00000  Uiso   1.00
H58    H     0.80749   0.52321   0.55484   0.00000  Uiso   1.00
H59    H     0.82981   0.58005   0.54837   0.00000  Uiso   1.00
H60    H     0.84958   0.59159   0.55991   0.00000  Uiso   1.00
H61    H     0.71428   0.48946   0.45778   0.00000  Uiso   1.00
H62    H     0.69564   0.47696   0.44533   0.00000  Uiso   1.00
H63    H     0.65802   0.43201   0.46369   0.00000  Uiso   1.00
H64    H     0.63870   0.42010   0.45178   0.00000  Uiso   1.00
C65    C     0.70698   0.47978   0.03805   0.00000  Uiso   1.00
C66    C     0.69656   0.47261   0.04521   0.00000  Uiso   1.00
C67    C     0.66595   0.42435   0.05783   0.00000  Uiso   1.00
C68    C     0.65474   0.41780   0.06437   0.00000  Uiso   1.00
C69    C     0.78971   0.52019   0.96198   0.00000  Uiso   1.00
C70    C     0.80027   0.52726   0.95492   0.00000  Uiso   1.00
C71    C     0.84610   0.56369   0.95413   0.00000  Uiso   1.00
C72    C     0.85705   0.57045   0.94738   0.00000  Uiso   1.00
H73    H     0.71093   0.48946   0.04222   0.00000  Uiso   1.00
H74    H     0.69251   0.47679   0.05484   0.00000  Uiso   1.00
H75    H     0.67019   0.41995   0.04837   0.00000  Uiso   1.00
H76    H     0.65042   0.40841   0.05991   0.00000  Uiso   1.00
H77    H     0.78572   0.51054   0.95778   0.00000  Uiso   1.00
H78    H     0.80436   0.52304   0.94533   0.00000  Uiso   1.00
H79    H     0.84198   0.56799   0.96369   0.00000  Uiso   1.00
H80    H     0.86130   0.57990   0.95178   0.00000  Uiso   1.00
C81    C     0.70698   0.97978   0.53805   0.00000  Uiso   1.00
C82    C     0.69656   0.97261   0.54521   0.00000  Uiso   1.00
C83    C     0.66595   0.92435   0.55783   0.00000  Uiso   1.00
C84    C     0.65474   0.91780   0.56437   0.00000  Uiso   1.00
C85    C     0.78971   0.02019   0.46198   0.00000  Uiso   1.00
C86    C     0.80027   0.02726   0.45492   0.00000  Uiso   1.00
C87    C     0.84610   0.06369   0.45413   0.00000  Uiso   1.00
C88    C     0.85705   0.07045   0.44738   0.00000  Uiso   1.00
H89    H     0.71093   0.98946   0.54222   0.00000  Uiso   1.00
H90    H     0.69251   0.97679   0.55484   0.00000  Uiso   1.00
H91    H     0.67019   0.91995   0.54837   0.00000  Uiso   1.00
H92    H     0.65042   0.90841   0.55991   0.00000  Uiso   1.00
H93    H     0.78572   0.01054   0.45778   0.00000  Uiso   1.00
H94    H     0.80436   0.02304   0.44533   0.00000  Uiso   1.00
H95    H     0.84198   0.06799   0.46369   0.00000  Uiso   1.00
H96    H     0.86130   0.07990   0.45178   0.00000  Uiso   1.00
C97    C     0.20698   0.47978   0.53805   0.00000  Uiso   1.00
C98    C     0.19656   0.47261   0.54521   0.00000  Uiso   1.00
C99    C     0.16595   0.42435   0.55783   0.00000  Uiso   1.00
C100   C     0.15474   0.41780   0.56437   0.00000  Uiso   1.00
C101   C     0.28971   0.52019   0.46198   0.00000  Uiso   1.00
C102   C     0.30027   0.52726   0.45492   0.00000  Uiso   1.00
C103   C     0.34610   0.56369   0.45413   0.00000  Uiso   1.00
C104   C     0.35705   0.57045   0.44738   0.00000  Uiso   1.00
H105   H     0.21093   0.48946   0.54222   0.00000  Uiso   1.00
H106   H     0.19251   0.47679   0.55484   0.00000  Uiso   1.00
H107   H     0.17019   0.41995   0.54837   0.00000  Uiso   1.00
H108   H     0.15042   0.40841   0.55991   0.00000  Uiso   1.00
H109   H     0.28572   0.51054   0.45778   0.00000  Uiso   1.00
H110   H     0.30436   0.52304   0.44533   0.00000  Uiso   1.00
H111   H     0.34198   0.56799   0.46369   0.00000  Uiso   1.00
H112   H     0.36130   0.57990   0.45178   0.00000  Uiso   1.00
C113   C     0.20698   0.97978   0.03805   0.00000  Uiso   1.00
C114   C     0.19656   0.97261   0.04521   0.00000  Uiso   1.00
C115   C     0.16595   0.92435   0.05783   0.00000  Uiso   1.00
C116   C     0.15474   0.91780   0.06437   0.00000  Uiso   1.00
C117   C     0.28971   0.02019   0.96198   0.00000  Uiso   1.00
C118   C     0.30027   0.02726   0.95492   0.00000  Uiso   1.00
C119   C     0.34610   0.06369   0.95413   0.00000  Uiso   1.00
C120   C     0.35705   0.07045   0.94738   0.00000  Uiso   1.00
H121   H     0.21093   0.98946   0.04222   0.00000  Uiso   1.00
H122   H     0.19251   0.97679   0.05484   0.00000  Uiso   1.00
H123   H     0.17019   0.91995   0.04837   0.00000  Uiso   1.00
H124   H     0.15042   0.90841   0.05991   0.00000  Uiso   1.00
H125   H     0.28572   0.01054   0.95778   0.00000  Uiso   1.00
H126   H     0.30436   0.02304   0.94533   0.00000  Uiso   1.00
H127   H     0.34198   0.06799   0.96369   0.00000  Uiso   1.00
H128   H     0.36130   0.07990   0.95178   0.00000  Uiso   1.00
C129   C     0.20698   0.52022   0.46195   0.00000  Uiso   1.00
C130   C     0.19656   0.52739   0.45479   0.00000  Uiso   1.00
C131   C     0.16595   0.57565   0.44217   0.00000  Uiso   1.00
C132   C     0.15474   0.58220   0.43563   0.00000  Uiso   1.00
C133   C     0.28971   0.47981   0.53802   0.00000  Uiso   1.00
C134   C     0.30027   0.47274   0.54508   0.00000  Uiso   1.00
C135   C     0.34610   0.43631   0.54587   0.00000  Uiso   1.00
C136   C     0.35705   0.42955   0.55262   0.00000  Uiso   1.00
H137   H     0.21093   0.51054   0.45778   0.00000  Uiso   1.00
H138   H     0.19251   0.52321   0.44516   0.00000  Uiso   1.00
H139   H     0.17019   0.58005   0.45163   0.00000  Uiso   1.00
H140   H     0.15042   0.59159   0.44009   0.00000  Uiso   1.00
H141   H     0.28572   0.48946   0.54222   0.00000  Uiso   1.00
H142   H     0.30436   0.47696   0.55467   0.00000  Uiso   1.00
H143   H     0.34198   0.43201   0.53631   0.00000  Uiso   1.00
H144   H     0.36130   0.42010   0.54822   0.00000  Uiso   1.00
C145   C     0.20698   0.02022   0.96195   0.00000  Uiso   1.00
C146   C     0.19656   0.02739   0.95479   0.00000  Uiso   1.00
C147   C     0.16595   0.07565   0.94217   0.00000  Uiso   1.00
C148   C     0.15474   0.08220   0.93563   0.00000  Uiso   1.00
C149   C     0.28971   0.97981   0.03802   0.00000  Uiso   1.00
C150   C     0.30027   0.97274   0.04508   0.00000  Uiso   1.00
C151   C     0.34610   0.93631   0.04587   0.00000  Uiso   1.00
C152   C     0.35705   0.92955   0.05262   0.00000  Uiso   1.00
H153   H     0.21093   0.01054   0.95778   0.00000  Uiso   1.00
H154   H     0.19251   0.02321   0.94516   0.00000  Uiso   1.00
H155   H     0.17019   0.08005   0.95163   0.00000  Uiso   1.00
H156   H     0.15042   0.09159   0.94009   0.00000  Uiso   1.00
H157   H     0.28572   0.98946   0.04222   0.00000  Uiso   1.00
H158   H     0.30436   0.97696   0.05467   0.00000  Uiso   1.00
H159   H     0.34198   0.93201   0.03631   0.00000  Uiso   1.00
H160   H     0.36130   0.92010   0.04822   0.00000  Uiso   1.00
C161   C     0.70698   0.52022   0.96195   0.00000  Uiso   1.00
C162   C     0.69656   0.52739   0.95479   0.00000  Uiso   1.00
C163   C     0.66595   0.57565   0.94217   0.00000  Uiso   1.00
C164   C     0.65474   0.58220   0.93563   0.00000  Uiso   1.00
C165   C     0.78971   0.47981   0.03802   0.00000  Uiso   1.00
C166   C     0.80027   0.47274   0.04508   0.00000  Uiso   1.00
C167   C     0.84610   0.43631   0.04587   0.00000  Uiso   1.00
C168   C     0.85705   0.42955   0.05262   0.00000  Uiso   1.00
H169   H     0.71093   0.51054   0.95778   0.00000  Uiso   1.00
H170   H     0.69251   0.52321   0.94516   0.00000  Uiso   1.00
H171   H     0.67019   0.58005   0.95163   0.00000  Uiso   1.00
H172   H     0.65042   0.59159   0.94009   0.00000  Uiso   1.00
H173   H     0.78572   0.48946   0.04222   0.00000  Uiso   1.00
H174   H     0.80436   0.47696   0.05467   0.00000  Uiso   1.00
H175   H     0.84198   0.43201   0.03631   0.00000  Uiso   1.00
H176   H     0.86130   0.42010   0.04822   0.00000  Uiso   1.00
C177   C     0.70698   0.02022   0.46195   0.00000  Uiso   1.00
C178   C     0.69656   0.02739   0.45479   0.00000  Uiso   1.00
C179   C     0.66595   0.07565   0.44217   0.00000  Uiso   1.00
C180   C     0.65474   0.08220   0.43563   0.00000  Uiso   1.00
C181   C     0.78971   0.97981   0.53802   0.00000  Uiso   1.00
C182   C     0.80027   0.97274   0.54508   0.00000  Uiso   1.00
C183   C     0.84610   0.93631   0.54587   0.00000  Uiso   1.00
C184   C     0.85705   0.92955   0.55262   0.00000  Uiso   1.00
H185   H     0.71093   0.01054   0.45778   0.00000  Uiso   1.00
H186   H     0.69251   0.02321   0.44516   0.00000  Uiso   1.00
H187   H     0.67019   0.08005   0.45163   0.00000  Uiso   1.00
H188   H     0.65042   0.09159   0.44009   0.00000  Uiso   1.00
H189   H     0.78572   0.98946   0.54222   0.00000  Uiso   1.00
H190   H     0.80436   0.97696   0.55467   0.00000  Uiso   1.00
H191   H     0.84198   0.93201   0.53631   0.00000  Uiso   1.00
H192   H     0.86130   0.92010   0.54822   0.00000  Uiso   1.00
C193   C     0.79302   0.97978   0.96195   0.00000  Uiso   1.00
C194   C     0.80344   0.97261   0.95479   0.00000  Uiso   1.00
C195   C     0.83405   0.92435   0.94217   0.00000  Uiso   1.00
C196   C     0.84526   0.91780   0.93563   0.00000  Uiso   1.00
C197   C     0.71029   0.02019   0.03802   0.00000  Uiso   1.00
C198   C     0.69973   0.02726   0.04508   0.00000  Uiso   1.00
C199   C     0.65390   0.06369   0.04587   0.00000  Uiso   1.00
C200   C     0.64295   0.07045   0.05262   0.00000  Uiso   1.00
H201   H     0.78907   0.98946   0.95778   0.00000  Uiso   1.00
H202   H     0.80749   0.97679   0.94516   0.00000  Uiso   1.00
H203   H     0.82981   0.91995   0.95163   0.00000  Uiso   1.00
H204   H     0.84958   0.90841   0.94009   0.00000  Uiso   1.00
H205   H     0.71428   0.01054   0.04222   0.00000  Uiso   1.00
H206   H     0.69564   0.02304   0.05467   0.00000  Uiso   1.00
H207   H     0.65802   0.06799   0.03631   0.00000  Uiso   1.00
H208   H     0.63870   0.07990   0.04822   0.00000  Uiso   1.00
C209   C     0.79302   0.47978   0.46195   0.00000  Uiso   1.00
C210   C     0.80344   0.47261   0.45479   0.00000  Uiso   1.00
C211   C     0.83405   0.42435   0.44217   0.00000  Uiso   1.00
C212   C     0.84526   0.41780   0.43563   0.00000  Uiso   1.00
C213   C     0.71029   0.52019   0.53802   0.00000  Uiso   1.00
C214   C     0.69973   0.52726   0.54508   0.00000  Uiso   1.00
C215   C     0.65390   0.56369   0.54587   0.00000  Uiso   1.00
C216   C     0.64295   0.57045   0.55262   0.00000  Uiso   1.00
H217   H     0.78907   0.48946   0.45778   0.00000  Uiso   1.00
H218   H     0.80749   0.47679   0.44516   0.00000  Uiso   1.00
H219   H     0.82981   0.41995   0.45163   0.00000  Uiso   1.00
H220   H     0.84958   0.40841   0.44009   0.00000  Uiso   1.00
H221   H     0.71428   0.51054   0.54222   0.00000  Uiso   1.00
H222   H     0.69564   0.52304   0.55467   0.00000  Uiso   1.00
H223   H     0.65802   0.56799   0.53631   0.00000  Uiso   1.00
H224   H     0.63870   0.57990   0.54822   0.00000  Uiso   1.00
C225   C     0.29302   0.97978   0.46195   0.00000  Uiso   1.00
C226   C     0.30344   0.97261   0.45479   0.00000  Uiso   1.00
C227   C     0.33405   0.92435   0.44217   0.00000  Uiso   1.00
C228   C     0.34526   0.91780   0.43563   0.00000  Uiso   1.00
C229   C     0.21029   0.02019   0.53802   0.00000  Uiso   1.00
C230   C     0.19973   0.02726   0.54508   0.00000  Uiso   1.00
C231   C     0.15390   0.06369   0.54587   0.00000  Uiso   1.00
C232   C     0.14295   0.07045   0.55262   0.00000  Uiso   1.00
H233   H     0.28907   0.98946   0.45778   0.00000  Uiso   1.00
H234   H     0.30749   0.97679   0.44516   0.00000  Uiso   1.00
H235   H     0.32981   0.91995   0.45163   0.00000  Uiso   1.00
H236   H     0.34958   0.90841   0.44009   0.00000  Uiso   1.00
H237   H     0.21428   0.01054   0.54222   0.00000  Uiso   1.00
H238   H     0.19564   0.02304   0.55467   0.00000  Uiso   1.00
H239   H     0.15802   0.06799   0.53631   0.00000  Uiso   1.00
H240   H     0.13870   0.07990   0.54822   0.00000  Uiso   1.00
C241   C     0.29302   0.47978   0.96195   0.00000  Uiso   1.00
C242   C     0.30344   0.47261   0.95479   0.00000  Uiso   1.00
C243   C     0.33405   0.42435   0.94217   0.00000  Uiso   1.00
C244   C     0.34526   0.41780   0.93563   0.00000  Uiso   1.00
C245   C     0.21029   0.52019   0.03802   0.00000  Uiso   1.00
C246   C     0.19973   0.52726   0.04508   0.00000  Uiso   1.00
C247   C     0.15390   0.56369   0.04587   0.00000  Uiso   1.00
C248   C     0.14295   0.57045   0.05262   0.00000  Uiso   1.00
H249   H     0.28907   0.48946   0.95778   0.00000  Uiso   1.00
H250   H     0.30749   0.47679   0.94516   0.00000  Uiso   1.00
H251   H     0.32981   0.41995   0.95163   0.00000  Uiso   1.00
H252   H     0.34958   0.40841   0.94009   0.00000  Uiso   1.00
H253   H     0.21428   0.51054   0.04222   0.00000  Uiso   1.00
H254   H     0.19564   0.52304   0.05467   0.00000  Uiso   1.00
H255   H     0.15802   0.56799   0.03631   0.00000  Uiso   1.00
H256   H     0.13870   0.57990   0.04822   0.00000  Uiso   1.00
C257   C     0.53805   0.29302   0.02022   0.00000  Uiso   1.00
C258   C     0.54521   0.30344   0.02739   0.00000  Uiso   1.00
C259   C     0.55783   0.33405   0.07565   0.00000  Uiso   1.00
C260   C     0.56437   0.34526   0.08220   0.00000  Uiso   1.00
C261   C     0.46198   0.21029   0.97981   0.00000  Uiso   1.00
C262   C     0.45492   0.19973   0.97274   0.00000  Uiso   1.00
C263   C     0.45413   0.15390   0.93631   0.00000  Uiso   1.00
C264   C     0.44738   0.14295   0.92955   0.00000  Uiso   1.00
H265   H     0.54222   0.28907   0.01054   0.00000  Uiso   1.00
H266   H     0.55484   0.30749   0.02321   0.00000  Uiso   1.00
H267   H     0.54837   0.32981   0.08005   0.00000  Uiso   1.00
H268   H     0.55991   0.34958   0.09159   0.00000  Uiso   1.00
H269   H     0.45778   0.21428   0.98946   0.00000  Uiso   1.00
H270   H     0.44533   0.19564   0.97696   0.00000  Uiso   1.00
H271   H     0.46369   0.15802   0.93201   0.00000  Uiso   1.00
H272   H     0.45178   0.13870   0.92010   0.00000  Uiso   1.00
C273   C     0.53805   0.79302   0.52022   0.00000  Uiso   1.00
C274   C     0.54521   0.80344   0.52739   0.00000  Uiso   1.00
C275   C     0.55783   0.83405   0.57565   0.00000  Uiso   1.00
C276   C     0.56437   0.84526   0.58220   0.00000  Uiso   1.00
C277   C     0.46198   0.71029   0.47981   0.00000  Uiso   1.00
C278   C     0.45492   0.69973   0.47274   0.00000  Uiso   1.00
C279   C     0.45413   0.65390   0.43631   0.00000  Uiso   1.00
C280   C     0.44738   0.64295   0.42955   0.00000  Uiso   1.00
H281   H     0.54222   0.78907   0.51054   0.00000  Uiso   1.00
H282   H     0.55484   0.80749   0.52321   0.00000  Uiso   1.00
H283   H     0.54837   0.82981   0.58005   0.00000  Uiso   1.00
H284   H     0.55991   0.84958   0.59159   0.00000  Uiso   1.00
H285   H     0.45778   0.71428   0.48946   0.00000  Uiso   1.00
H286   H     0.44533   0.69564   0.47696   0.00000  Uiso   1.00
H287   H     0.46369   0.65802   0.43201   0.00000  Uiso   1.00
H288   H     0.45178   0.63870   0.42010   0.00000  Uiso   1.00
C289   C     0.03805   0.29302   0.52022   0.00000  Uiso   1.00
C290   C     0.04521   0.30344   0.52739   0.00000  Uiso   1.00
C291   C     0.05783   0.33405   0.57565   0.00000  Uiso   1.00
C292   C     0.06437   0.34526   0.58220   0.00000  Uiso   1.00
C293   C     0.96198   0.21029   0.47981   0.00000  Uiso   1.00
C294   C     0.95492   0.19973   0.47274   0.00000  Uiso   1.00
C295   C     0.95413   0.15390   0.43631   0.00000  Uiso   1.00
C296   C     0.94738   0.14295   0.42955   0.00000  Uiso   1.00
H297   H     0.04222   0.28907   0.51054   0.00000  Uiso   1.00
H298   H     0.05484   0.30749   0.52321   0.00000  Uiso   1.00
H299   H     0.04837   0.32981   0.58005   0.00000  Uiso   1.00
H300   H     0.05991   0.34958   0.59159   0.00000  Uiso   1.00
H301   H     0.95778   0.21428   0.48946   0.00000  Uiso   1.00
H302   H     0.94533   0.19564   0.47696   0.00000  Uiso   1.00
H303   H     0.96369   0.15802   0.43201   0.00000  Uiso   1.00
H304   H     0.95178   0.13870   0.42010   0.00000  Uiso   1.00
C305   C     0.03805   0.79302   0.02022   0.00000  Uiso   1.00
C306   C     0.04521   0.80344   0.02739   0.00000  Uiso   1.00
C307   C     0.05783   0.83405   0.07565   0.00000  Uiso   1.00
C308   C     0.06437   0.84526   0.08220   0.00000  Uiso   1.00
C309   C     0.96198   0.71029   0.97981   0.00000  Uiso   1.00
C310   C     0.95492   0.69973   0.97274   0.00000  Uiso   1.00
C311   C     0.95413   0.65390   0.93631   0.00000  Uiso   1.00
C312   C     0.94738   0.64295   0.92955   0.00000  Uiso   1.00
H313   H     0.04222   0.78907   0.01054   0.00000  Uiso   1.00
H314   H     0.05484   0.80749   0.02321   0.00000  Uiso   1.00
H315   H     0.04837   0.82981   0.08005   0.00000  Uiso   1.00
H316   H     0.05991   0.84958   0.09159   0.00000  Uiso   1.00
H317   H     0.95778   0.71428   0.98946   0.00000  Uiso   1.00
H318   H     0.94533   0.69564   0.97696   0.00000  Uiso   1.00
H319   H     0.96369   0.65802   0.93201   0.00000  Uiso   1.00
H320   H     0.95178   0.63870   0.92010   0.00000  Uiso   1.00
C321   C     0.03805   0.70698   0.47978   0.00000  Uiso   1.00
C322   C     0.04521   0.69656   0.47261   0.00000  Uiso   1.00
C323   C     0.05783   0.66595   0.42435   0.00000  Uiso   1.00
C324   C     0.06437   0.65474   0.41780   0.00000  Uiso   1.00
C325   C     0.96198   0.78971   0.52019   0.00000  Uiso   1.00
C326   C     0.95492   0.80027   0.52726   0.00000  Uiso   1.00
C327   C     0.95413   0.84610   0.56369   0.00000  Uiso   1.00
C328   C     0.94738   0.85705   0.57045   0.00000  Uiso   1.00
H329   H     0.04222   0.71093   0.48946   0.00000  Uiso   1.00
H330   H     0.05484   0.69251   0.47679   0.00000  Uiso   1.00
H331   H     0.04837   0.67019   0.41995   0.00000  Uiso   1.00
H332   H     0.05991   0.65042   0.40841   0.00000  Uiso   1.00
H333   H     0.95778   0.78572   0.51054   0.00000  Uiso   1.00
H334   H     0.94533   0.80436   0.52304   0.00000  Uiso   1.00
H335   H     0.96369   0.84198   0.56799   0.00000  Uiso   1.00
H336   H     0.95178   0.86130   0.57990   0.00000  Uiso   1.00
C337   C     0.03805   0.20698   0.97978   0.00000  Uiso   1.00
C338   C     0.04521   0.19656   0.97261   0.00000  Uiso   1.00
C339   C     0.05783   0.16595   0.92435   0.00000  Uiso   1.00
C340   C     0.06437   0.15474   0.91780   0.00000  Uiso   1.00
C341   C     0.96198   0.28971   0.02019   0.00000  Uiso   1.00
C342   C     0.95492   0.30027   0.02726   0.00000  Uiso   1.00
C343   C     0.95413   0.34610   0.06369   0.00000  Uiso   1.00
C344   C     0.94738   0.35705   0.07045   0.00000  Uiso   1.00
H345   H     0.04222   0.21093   0.98946   0.00000  Uiso   1.00
H346   H     0.05484   0.19251   0.97679   0.00000  Uiso   1.00
H347   H     0.04837   0.17019   0.91995   0.00000  Uiso   1.00
H348   H     0.05991   0.15042   0.90841   0.00000  Uiso   1.00
H349   H     0.95778   0.28572   0.01054   0.00000  Uiso   1.00
H350   H     0.94533   0.30436   0.02304   0.00000  Uiso   1.00
H351   H     0.96369   0.34198   0.06799   0.00000  Uiso   1.00
H352   H     0.95178   0.36130   0.07990   0.00000  Uiso   1.00
C353   C     0.53805   0.70698   0.97978   0.00000  Uiso   1.00
C354   C     0.54521   0.69656   0.97261   0.00000  Uiso   1.00
C355   C     0.55783   0.66595   0.92435   0.00000  Uiso   1.00
C356   C     0.56437   0.65474   0.91780   0.00000  Uiso   1.00
C357   C     0.46198   0.78971   0.02019   0.00000  Uiso   1.00
C358   C     0.45492   0.80027   0.02726   0.00000  Uiso   1.00
C359   C     0.45413   0.84610   0.06369   0.00000  Uiso   1.00
C360   C     0.44738   0.85705   0.07045   0.00000  Uiso   1.00
H361   H     0.54222   0.71093   0.98946   0.00000  Uiso   1.00
H362   H     0.55484   0.69251   0.97679   0.00000  Uiso   1.00
H363   H     0.54837   0.67019   0.91995   0.00000  Uiso   1.00
H364   H     0.55991   0.65042   0.90841   0.00000  Uiso   1.00
H365   H     0.45778   0.78572   0.01054   0.00000  Uiso   1.00
H366   H     0.44533   0.80436   0.02304   0.00000  Uiso   1.00
H367   H     0.46369   0.84198   0.06799   0.00000  Uiso   1.00
H368   H     0.45178   0.86130   0.07990   0.00000  Uiso   1.00
C369   C     0.53805   0.20698   0.47978   0.00000  Uiso   1.00
C370   C     0.54521   0.19656   0.47261   0.00000  Uiso   1.00
C371   C     0.55783   0.16595   0.42435   0.00000  Uiso   1.00
C372   C     0.56437   0.15474   0.41780   0.00000  Uiso   1.00
C373   C     0.46198   0.28971   0.52019   0.00000  Uiso   1.00
C374   C     0.45492   0.30027   0.52726   0.00000  Uiso   1.00
C375   C     0.45413   0.34610   0.56369   0.00000  Uiso   1.00
C376   C     0.44738   0.35705   0.57045   0.00000  Uiso   1.00
H377   H     0.54222   0.21093   0.48946   0.00000  Uiso   1.00
H378   H     0.55484   0.19251   0.47679   0.00000  Uiso   1.00
H379   H     0.54837   0.17019   0.41995   0.00000  Uiso   1.00
H380   H     0.55991   0.15042   0.40841   0.00000  Uiso   1.00
H381   H     0.45778   0.28572   0.51054   0.00000  Uiso   1.00
H382   H     0.44533   0.30436   0.52304   0.00000  Uiso   1.00
H383   H     0.46369   0.34198   0.56799   0.00000  Uiso   1.00
H384   H     0.45178   0.36130   0.57990   0.00000  Uiso   1.00
C385   C     0.46195   0.20698   0.52022   0.00000  Uiso   1.00
C386   C     0.45479   0.19656   0.52739   0.00000  Uiso   1.00
C387   C     0.44217   0.16595   0.57565   0.00000  Uiso   1.00
C388   C     0.43563   0.15474   0.58220   0.00000  Uiso   1.00
C389   C     0.53802   0.28971   0.47981   0.00000  Uiso   1.00
C390   C     0.54508   0.30027   0.47274   0.00000  Uiso   1.00
C391   C     0.54587   0.34610   0.43631   0.00000  Uiso   1.00
C392   C     0.55262   0.35705   0.42955   0.00000  Uiso   1.00
H393   H     0.45778   0.21093   0.51054   0.00000  Uiso   1.00
H394   H     0.44516   0.19251   0.52321   0.00000  Uiso   1.00
H395   H     0.45163   0.17019   0.58005   0.00000  Uiso   1.00
H396   H     0.44009   0.15042   0.59159   0.00000  Uiso   1.00
H397   H     0.54222   0.28572   0.48946   0.00000  Uiso   1.00
H398   H     0.55467   0.30436   0.47696   0.00000  Uiso   1.00
H399   H     0.53631   0.34198   0.43201   0.00000  Uiso   1.00
H400   H     0.54822   0.36130   0.42010   0.00000  Uiso   1.00
C401   C     0.46195   0.70698   0.02022   0.00000  Uiso   1.00
C402   C     0.45479   0.69656   0.02739   0.00000  Uiso   1.00
C403   C     0.44217   0.66595   0.07565   0.00000  Uiso   1.00
C404   C     0.43563   0.65474   0.08220   0.00000  Uiso   1.00
C405   C     0.53802   0.78971   0.97981   0.00000  Uiso   1.00
C406   C     0.54508   0.80027   0.97274   0.00000  Uiso   1.00
C407   C     0.54587   0.84610   0.93631   0.00000  Uiso   1.00
C408   C     0.55262   0.85705   0.92955   0.00000  Uiso   1.00
H409   H     0.45778   0.71093   0.01054   0.00000  Uiso   1.00
H410   H     0.44516   0.69251   0.02321   0.00000  Uiso   1.00
H411   H     0.45163   0.67019   0.08005   0.00000  Uiso   1.00
H412   H     0.44009   0.65042   0.09159   0.00000  Uiso   1.00
H413   H     0.54222   0.78572   0.98946   0.00000  Uiso   1.00
H414   H     0.55467   0.80436   0.97696   0.00000  Uiso   1.00
H415   H     0.53631   0.84198   0.93201   0.00000  Uiso   1.00
H416   H     0.54822   0.86130   0.92010   0.00000  Uiso   1.00
C417   C     0.96195   0.20698   0.02022   0.00000  Uiso   1.00
C418   C     0.95479   0.19656   0.02739   0.00000  Uiso   1.00
C419   C     0.94217   0.16595   0.07565   0.00000  Uiso   1.00
C420   C     0.93563   0.15474   0.08220   0.00000  Uiso   1.00
C421   C     0.03802   0.28971   0.97981   0.00000  Uiso   1.00
C422   C     0.04508   0.30027   0.97274   0.00000  Uiso   1.00
C423   C     0.04587   0.34610   0.93631   0.00000  Uiso   1.00
C424   C     0.05262   0.35705   0.92955   0.00000  Uiso   1.00
H425   H     0.95778   0.21093   0.01054   0.00000  Uiso   1.00
H426   H     0.94516   0.19251   0.02321   0.00000  Uiso   1.00
H427   H     0.95163   0.17019   0.08005   0.00000  Uiso   1.00
H428   H     0.94009   0.15042   0.09159   0.00000  Uiso   1.00
H429   H     0.04222   0.28572   0.98946   0.00000  Uiso   1.00
H430   H     0.05467   0.30436   0.97696   0.00000  Uiso   1.00
H431   H     0.03631   0.34198   0.93201   0.00000  Uiso   1.00
H432   H     0.04822   0.36130   0.92010   0.00000  Uiso   1.00
C433   C     0.96195   0.70698   0.52022   0.00000  Uiso   1.00
C434   C     0.95479   0.69656   0.52739   0.00000  Uiso   1.00
C435   C     0.94217   0.66595   0.57565   0.00000  Uiso   1.00
C436   C     0.93563   0.65474   0.58220   0.00000  Uiso   1.00
C437   C     0.03802   0.78971   0.47981   0.00000  Uiso   1.00
C438   C     0.04508   0.80027   0.47274   0.00000  Uiso   1.00
C439   C     0.04587   0.84610   0.43631   0.00000  Uiso   1.00
C440   C     0.05262   0.85705   0.42955   0.00000  Uiso   1.00
H441   H     0.95778   0.71093   0.51054   0.00000  Uiso   1.00
H442   H     0.94516   0.69251   0.52321   0.00000  Uiso   1.00
H443   H     0.95163   0.67019   0.58005   0.00000  Uiso   1.00
H444   H     0.94009   0.65042   0.59159   0.00000  Uiso   1.00
H445   H     0.04222   0.78572   0.48946   0.00000  Uiso   1.00
H446   H     0.05467   0.80436   0.47696   0.00000  Uiso   1.00
H447   H     0.03631   0.84198   0.43201   0.00000  Uiso   1.00
H448   H     0.04822   0.86130   0.42010   0.00000  Uiso   1.00
C449   C     0.96195   0.79302   0.97978   0.00000  Uiso   1.00
C450   C     0.95479   0.80344   0.97261   0.00000  Uiso   1.00
C451   C     0.94217   0.83405   0.92435   0.00000  Uiso   1.00
C452   C     0.93563   0.84526   0.91780   0.00000  Uiso   1.00
C453   C     0.03802   0.71029   0.02019   0.00000  Uiso   1.00
C454   C     0.04508   0.69973   0.02726   0.00000  Uiso   1.00
C455   C     0.04587   0.65390   0.06369   0.00000  Uiso   1.00
C456   C     0.05262   0.64295   0.07045   0.00000  Uiso   1.00
H457   H     0.95778   0.78907   0.98946   0.00000  Uiso   1.00
H458   H     0.94516   0.80749   0.97679   0.00000  Uiso   1.00
H459   H     0.95163   0.82981   0.91995   0.00000  Uiso   1.00
H460   H     0.94009   0.84958   0.90841   0.00000  Uiso   1.00
H461   H     0.04222   0.71428   0.01054   0.00000  Uiso   1.00
H462   H     0.05467   0.69564   0.02304   0.00000  Uiso   1.00
H463   H     0.03631   0.65802   0.06799   0.00000  Uiso   1.00
H464   H     0.04822   0.63870   0.07990   0.00000  Uiso   1.00
C465   C     0.96195   0.29302   0.47978   0.00000  Uiso   1.00
C466   C     0.95479   0.30344   0.47261   0.00000  Uiso   1.00
C467   C     0.94217   0.33405   0.42435   0.00000  Uiso   1.00
C468   C     0.93563   0.34526   0.41780   0.00000  Uiso   1.00
C469   C     0.03802   0.21029   0.52019   0.00000  Uiso   1.00
C470   C     0.04508   0.19973   0.52726   0.00000  Uiso   1.00
C471   C     0.04587   0.15390   0.56369   0.00000  Uiso   1.00
C472   C     0.05262   0.14295   0.57045   0.00000  Uiso   1.00
H473   H     0.95778   0.28907   0.48946   0.00000  Uiso   1.00
H474   H     0.94516   0.30749   0.47679   0.00000  Uiso   1.00
H475   H     0.95163   0.32981   0.41995   0.00000  Uiso   1.00
H476   H     0.94009   0.34958   0.40841   0.00000  Uiso   1.00
H477   H     0.04222   0.21428   0.51054   0.00000  Uiso   1.00
H478   H     0.05467   0.19564   0.52304   0.00000  Uiso   1.00
H479   H     0.03631   0.15802   0.56799   0.00000  Uiso   1.00
H480   H     0.04822   0.13870   0.57990   0.00000  Uiso   1.00
C481   C     0.46195   0.79302   0.47978   0.00000  Uiso   1.00
C482   C     0.45479   0.80344   0.47261   0.00000  Uiso   1.00
C483   C     0.44217   0.83405   0.42435   0.00000  Uiso   1.00
C484   C     0.43563   0.84526   0.41780   0.00000  Uiso   1.00
C485   C     0.53802   0.71029   0.52019   0.00000  Uiso   1.00
C486   C     0.54508   0.69973   0.52726   0.00000  Uiso   1.00
C487   C     0.54587   0.65390   0.56369   0.00000  Uiso   1.00
C488   C     0.55262   0.64295   0.57045   0.00000  Uiso   1.00
H489   H     0.45778   0.78907   0.48946   0.00000  Uiso   1.00
H490   H     0.44516   0.80749   0.47679   0.00000  Uiso   1.00
H491   H     0.45163   0.82981   0.41995   0.00000  Uiso   1.00
H492   H     0.44009   0.84958   0.40841   0.00000  Uiso   1.00
H493   H     0.54222   0.71428   0.51054   0.00000  Uiso   1.00
H494   H     0.55467   0.69564   0.52304   0.00000  Uiso   1.00
H495   H     0.53631   0.65802   0.56799   0.00000  Uiso   1.00
H496   H     0.54822   0.63870   0.57990   0.00000  Uiso   1.00
C497   C     0.46195   0.29302   0.97978   0.00000  Uiso   1.00
C498   C     0.45479   0.30344   0.97261   0.00000  Uiso   1.00
C499   C     0.44217   0.33405   0.92435   0.00000  Uiso   1.00
C500   C     0.43563   0.34526   0.91780   0.00000  Uiso   1.00
C501   C     0.53802   0.21029   0.02019   0.00000  Uiso   1.00
C502   C     0.54508   0.19973   0.02726   0.00000  Uiso   1.00
C503   C     0.54587   0.15390   0.06369   0.00000  Uiso   1.00
C504   C     0.55262   0.14295   0.07045   0.00000  Uiso   1.00
H505   H     0.45778   0.28907   0.98946   0.00000  Uiso   1.00
H506   H     0.44516   0.30749   0.97679   0.00000  Uiso   1.00
H507   H     0.45163   0.32981   0.91995   0.00000  Uiso   1.00
H508   H     0.44009   0.34958   0.90841   0.00000  Uiso   1.00
H509   H     0.54222   0.21428   0.01054   0.00000  Uiso   1.00
H510   H     0.55467   0.19564   0.02304   0.00000  Uiso   1.00
H511   H     0.53631   0.15802   0.06799   0.00000  Uiso   1.00
H512   H     0.54822   0.13870   0.07990   0.00000  Uiso   1.00
C513   C     0.02022   0.53805   0.29302   0.00000  Uiso   1.00
C514   C     0.02739   0.54521   0.30344   0.00000  Uiso   1.00
C515   C     0.07565   0.55783   0.33405   0.00000  Uiso   1.00
C516   C     0.08220   0.56437   0.34526   0.00000  Uiso   1.00
C517   C     0.97981   0.46198   0.21029   0.00000  Uiso   1.00
C518   C     0.97274   0.45492   0.19973   0.00000  Uiso   1.00
C519   C     0.93631   0.45413   0.15390   0.00000  Uiso   1.00
C520   C     0.92955   0.44738   0.14295   0.00000  Uiso   1.00
H521   H     0.01054   0.54222   0.28907   0.00000  Uiso   1.00
H522   H     0.02321   0.55484   0.30749   0.00000  Uiso   1.00
H523   H     0.08005   0.54837   0.32981   0.00000  Uiso   1.00
H524   H     0.09159   0.55991   0.34958   0.00000  Uiso   1.00
H525   H     0.98946   0.45778   0.21428   0.00000  Uiso   1.00
H526   H     0.97696   0.44533   0.19564   0.00000  Uiso   1.00
H527   H     0.93201   0.46369   0.15802   0.00000  Uiso   1.00
H528   H     0.92010   0.45178   0.13870   0.00000  Uiso   1.00
C529   C     0.02022   0.03805   0.79302   0.00000  Uiso   1.00
C530   C     0.02739   0.04521   0.80344   0.00000  Uiso   1.00
C531   C     0.07565   0.05783   0.83405   0.00000  Uiso   1.00
C532   C     0.08220   0.06437   0.84526   0.00000  Uiso   1.00
C533   C     0.97981   0.96198   0.71029   0.00000  Uiso   1.00
C534   C     0.97274   0.95492   0.69973   0.00000  Uiso   1.00
C535   C     0.93631   0.95413   0.65390   0.00000  Uiso   1.00
C536   C     0.92955   0.94738   0.64295   0.00000  Uiso   1.00
H537   H     0.01054   0.04222   0.78907   0.00000  Uiso   1.00
H538   H     0.02321   0.05484   0.80749   0.00000  Uiso   1.00
H539   H     0.08005   0.04837   0.82981   0.00000  Uiso   1.00
H540   H     0.09159   0.05991   0.84958   0.00000  Uiso   1.00
H541   H     0.98946   0.95778   0.71428   0.00000  Uiso   1.00
H542   H     0.97696   0.94533   0.69564   0.00000  Uiso   1.00
H543   H     0.93201   0.96369   0.65802   0.00000  Uiso   1.00
H544   H     0.92010   0.95178   0.63870   0.00000  Uiso   1.00
C545   C     0.52022   0.53805   0.79302   0.00000  Uiso   1.00
C546   C     0.52739   0.54521   0.80344   0.00000  Uiso   1.00
C547   C     0.57565   0.55783   0.83405   0.00000  Uiso   1.00
C548   C     0.58220   0.56437   0.84526   0.00000  Uiso   1.00
C549   C     0.47981   0.46198   0.71029   0.00000  Uiso   1.00
C550   C     0.47274   0.45492   0.69973   0.00000  Uiso   1.00
C551   C     0.43631   0.45413   0.65390   0.00000  Uiso   1.00
C552   C     0.42955   0.44738   0.64295   0.00000  Uiso   1.00
H553   H     0.51054   0.54222   0.78907   0.00000  Uiso   1.00
H554   H     0.52321   0.55484   0.80749   0.00000  Uiso   1.00
H555   H     0.58005   0.54837   0.82981   0.00000  Uiso   1.00
H556   H     0.59159   0.55991   0.84958   0.00000  Uiso   1.00
H557   H     0.48946   0.45778   0.71428   0.00000  Uiso   1.00
H558   H     0.47696   0.44533   0.69564   0.00000  Uiso   1.00
H559   H     0.43201   0.46369   0.65802   0.00000  Uiso   1.00
H560   H     0.42010   0.45178   0.63870   0.00000  Uiso   1.00
C561   C     0.52022   0.03805   0.29302   0.00000  Uiso   1.00
C562   C     0.52739   0.04521   0.30344   0.00000  Uiso   1.00
C563   C     0.57565   0.05783   0.33405   0.00000  Uiso   1.00
C564   C     0.58220   0.06437   0.34526   0.00000  Uiso   1.00
C565   C     0.47981   0.96198   0.21029   0.00000  Uiso   1.00
C566   C     0.47274   0.95492   0.19973   0.00000  Uiso   1.00
C567   C     0.43631   0.95413   0.15390   0.00000  Uiso   1.00
C568   C     0.42955   0.94738   0.14295   0.00000  Uiso   1.00
H569   H     0.51054   0.04222   0.28907   0.00000  Uiso   1.00
H570   H     0.52321   0.05484   0.30749   0.00000  Uiso   1.00
H571   H     0.58005   0.04837   0.32981   0.00000  Uiso   1.00
H572   H     0.59159   0.05991   0.34958   0.00000  Uiso   1.00
H573   H     0.48946   0.95778   0.21428   0.00000  Uiso   1.00
H574   H     0.47696   0.94533   0.19564   0.00000  Uiso   1.00
H575   H     0.43201   0.96369   0.15802   0.00000  Uiso   1.00
H576   H     0.42010   0.95178   0.13870   0.00000  Uiso   1.00
C577   C     0.47978   0.03805   0.70698   0.00000  Uiso   1.00
C578   C     0.47261   0.04521   0.69656   0.00000  Uiso   1.00
C579   C     0.42435   0.05783   0.66595   0.00000  Uiso   1.00
C580   C     0.41780   0.06437   0.65474   0.00000  Uiso   1.00
C581   C     0.52019   0.96198   0.78971   0.00000  Uiso   1.00
C582   C     0.52726   0.95492   0.80027   0.00000  Uiso   1.00
C583   C     0.56369   0.95413   0.84610   0.00000  Uiso   1.00
C584   C     0.57045   0.94738   0.85705   0.00000  Uiso   1.00
H585   H     0.48946   0.04222   0.71093   0.00000  Uiso   1.00
H586   H     0.47679   0.05484   0.69251   0.00000  Uiso   1.00
H587   H     0.41995   0.04837   0.67019   0.00000  Uiso   1.00
H588   H     0.40841   0.05991   0.65042   0.00000  Uiso   1.00
H589   H     0.51054   0.95778   0.78572   0.00000  Uiso   1.00
H590   H     0.52304   0.94533   0.80436   0.00000  Uiso   1.00
H591   H     0.56799   0.96369   0.84198   0.00000  Uiso   1.00
H592   H     0.57990   0.95178   0.86130   0.00000  Uiso   1.00
C593   C     0.47978   0.53805   0.20698   0.00000  Uiso   1.00
C594   C     0.47261   0.54521   0.19656   0.00000  Uiso   1.00
C595   C     0.42435   0.55783   0.16595   0.00000  Uiso   1.00
C596   C     0.41780   0.56437   0.15474   0.00000  Uiso   1.00
C597   C     0.52019   0.46198   0.28971   0.00000  Uiso   1.00
C598   C     0.52726   0.45492   0.30027   0.00000  Uiso   1.00
C599   C     0.56369   0.45413   0.34610   0.00000  Uiso   1.00
C600   C     0.57045   0.44738   0.35705   0.00000  Uiso   1.00
H601   H     0.48946   0.54222   0.21093   0.00000  Uiso   1.00
H602   H     0.47679   0.55484   0.19251   0.00000  Uiso   1.00
H603   H     0.41995   0.54837   0.17019   0.00000  Uiso   1.00
H604   H     0.40841   0.55991   0.15042   0.00000  Uiso   1.00
H605   H     0.51054   0.45778   0.28572   0.00000  Uiso   1.00
H606   H     0.52304   0.44533   0.30436   0.00000  Uiso   1.00
H607   H     0.56799   0.46369   0.34198   0.00000  Uiso   1.00
H608   H     0.57990   0.45178   0.36130   0.00000  Uiso   1.00
C609   C     0.97978   0.03805   0.20698   0.00000  Uiso   1.00
C610   C     0.97261   0.04521   0.19656   0.00000  Uiso   1.00
C611   C     0.92435   0.05783   0.16595   0.00000  Uiso   1.00
C612   C     0.91780   0.06437   0.15474   0.00000  Uiso   1.00
C613   C     0.02019   0.96198   0.28971   0.00000  Uiso   1.00
C614   C     0.02726   0.95492   0.30027   0.00000  Uiso   1.00
C615   C     0.06369   0.95413   0.34610   0.00000  Uiso   1.00
C616   C     0.07045   0.94738   0.35705   0.00000  Uiso   1.00
H617   H     0.98946   0.04222   0.21093   0.00000  Uiso   1.00
H618   H     0.97679   0.05484   0.19251   0.00000  Uiso   1.00
H619   H     0.91995   0.04837   0.17019   0.00000  Uiso   1.00
H620   H     0.90841   0.05991   0.15042   0.00000  Uiso   1.00
H621   H     0.01054   0.95778   0.28572   0.00000  Uiso   1.00
H622   H     0.02304   0.94533   0.30436   0.00000  Uiso   1.00
H623   H     0.06799   0.96369   0.34198   0.00000  Uiso   1.00
H624   H     0.07990   0.95178   0.36130   0.00000  Uiso   1.00
C625   C     0.97978   0.53805   0.70698   0.00000  Uiso   1.00
C626   C     0.97261   0.54521   0.69656   0.00000  Uiso   1.00
C627   C     0.92435   0.55783   0.66595   0.00000  Uiso   1.00
C628   C     0.91780   0.56437   0.65474   0.00000  Uiso   1.00
C629   C     0.02019   0.46198   0.78971   0.00000  Uiso   1.00
C630   C     0.02726   0.45492   0.80027   0.00000  Uiso   1.00
C631   C     0.06369   0.45413   0.84610   0.00000  Uiso   1.00
C632   C     0.07045   0.44738   0.85705   0.00000  Uiso   1.00
H633   H     0.98946   0.54222   0.71093   0.00000  Uiso   1.00
H634   H     0.97679   0.55484   0.69251   0.00000  Uiso   1.00
H635   H     0.91995   0.54837   0.67019   0.00000  Uiso   1.00
H636   H     0.90841   0.55991   0.65042   0.00000  Uiso   1.00
H637   H     0.01054   0.45778   0.78572   0.00000  Uiso   1.00
H638   H     0.02304   0.44533   0.80436   0.00000  Uiso   1.00
H639   H     0.06799   0.46369   0.84198   0.00000  Uiso   1.00
H640   H     0.07990   0.45178   0.86130   0.00000  Uiso   1.00
C641   C     0.52022   0.46195   0.20698   0.00000  Uiso   1.00
C642   C     0.52739   0.45479   0.19656   0.00000  Uiso   1.00
C643   C     0.57565   0.44217   0.16595   0.00000  Uiso   1.00
C644   C     0.58220   0.43563   0.15474   0.00000  Uiso   1.00
C645   C     0.47981   0.53802   0.28971   0.00000  Uiso   1.00
C646   C     0.47274   0.54508   0.30027   0.00000  Uiso   1.00
C647   C     0.43631   0.54587   0.34610   0.00000  Uiso   1.00
C648   C     0.42955   0.55262   0.35705   0.00000  Uiso   1.00
H649   H     0.51054   0.45778   0.21093   0.00000  Uiso   1.00
H650   H     0.52321   0.44516   0.19251   0.00000  Uiso   1.00
H651   H     0.58005   0.45163   0.17019   0.00000  Uiso   1.00
H652   H     0.59159   0.44009   0.15042   0.00000  Uiso   1.00
H653   H     0.48946   0.54222   0.28572   0.00000  Uiso   1.00
H654   H     0.47696   0.55467   0.30436   0.00000  Uiso   1.00
H655   H     0.43201   0.53631   0.34198   0.00000  Uiso   1.00
H656   H     0.42010   0.54822   0.36130   0.00000  Uiso   1.00
C657   C     0.52022   0.96195   0.70698   0.00000  Uiso   1.00
C658   C     0.52739   0.95479   0.69656   0.00000  Uiso   1.00
C659   C     0.57565   0.94217   0.66595   0.00000  Uiso   1.00
C660   C     0.58220   0.93563   0.65474   0.00000  Uiso   1.00
C661   C     0.47981   0.03802   0.78971   0.00000  Uiso   1.00
C662   C     0.47274   0.04508   0.80027   0.00000  Uiso   1.00
C663   C     0.43631   0.04587   0.84610   0.00000  Uiso   1.00
C664   C     0.42955   0.05262   0.85705   0.00000  Uiso   1.00
H665   H     0.51054   0.95778   0.71093   0.00000  Uiso   1.00
H666   H     0.52321   0.94516   0.69251   0.00000  Uiso   1.00
H667   H     0.58005   0.95163   0.67019   0.00000  Uiso   1.00
H668   H     0.59159   0.94009   0.65042   0.00000  Uiso   1.00
H669   H     0.48946   0.04222   0.78572   0.00000  Uiso   1.00
H670   H     0.47696   0.05467   0.80436   0.00000  Uiso   1.00
H671   H     0.43201   0.03631   0.84198   0.00000  Uiso   1.00
H672   H     0.42010   0.04822   0.86130   0.00000  Uiso   1.00
C673   C     0.02022   0.46195   0.70698   0.00000  Uiso   1.00
C674   C     0.02739   0.45479   0.69656   0.00000  Uiso   1.00
C675   C     0.07565   0.44217   0.66595   0.00000  Uiso   1.00
C676   C     0.08220   0.43563   0.65474   0.00000  Uiso   1.00
C677   C     0.97981   0.53802   0.78971   0.00000  Uiso   1.00
C678   C     0.97274   0.54508   0.80027   0.00000  Uiso   1.00
C679   C     0.93631   0.54587   0.84610   0.00000  Uiso   1.00
C680   C     0.92955   0.55262   0.85705   0.00000  Uiso   1.00
H681   H     0.01054   0.45778   0.71093   0.00000  Uiso   1.00
H682   H     0.02321   0.44516   0.69251   0.00000  Uiso   1.00
H683   H     0.08005   0.45163   0.67019   0.00000  Uiso   1.00
H684   H     0.09159   0.44009   0.65042   0.00000  Uiso   1.00
H685   H     0.98946   0.54222   0.78572   0.00000  Uiso   1.00
H686   H     0.97696   0.55467   0.80436   0.00000  Uiso   1.00
H687   H     0.93201   0.53631   0.84198   0.00000  Uiso   1.00
H688   H     0.92010   0.54822   0.86130   0.00000  Uiso   1.00
C689   C     0.02022   0.96195   0.20698   0.00000  Uiso   1.00
C690   C     0.02739   0.95479   0.19656   0.00000  Uiso   1.00
C691   C     0.07565   0.94217   0.16595   0.00000  Uiso   1.00
C692   C     0.08220   0.93563   0.15474   0.00000  Uiso   1.00
C693   C     0.97981   0.03802   0.28971   0.00000  Uiso   1.00
C694   C     0.97274   0.04508   0.30027   0.00000  Uiso   1.00
C695   C     0.93631   0.04587   0.34610   0.00000  Uiso   1.00
C696   C     0.92955   0.05262   0.35705   0.00000  Uiso   1.00
H697   H     0.01054   0.95778   0.21093   0.00000  Uiso   1.00
H698   H     0.02321   0.94516   0.19251   0.00000  Uiso   1.00
H699   H     0.08005   0.95163   0.17019   0.00000  Uiso   1.00
H700   H     0.09159   0.94009   0.15042   0.00000  Uiso   1.00
H701   H     0.98946   0.04222   0.28572   0.00000  Uiso   1.00
H702   H     0.97696   0.05467   0.30436   0.00000  Uiso   1.00
H703   H     0.93201   0.03631   0.34198   0.00000  Uiso   1.00
H704   H     0.92010   0.04822   0.36130   0.00000  Uiso   1.00
C705   C     0.97978   0.96195   0.79302   0.00000  Uiso   1.00
C706   C     0.97261   0.95479   0.80344   0.00000  Uiso   1.00
C707   C     0.92435   0.94217   0.83405   0.00000  Uiso   1.00
C708   C     0.91780   0.93563   0.84526   0.00000  Uiso   1.00
C709   C     0.02019   0.03802   0.71029   0.00000  Uiso   1.00
C710   C     0.02726   0.04508   0.69973   0.00000  Uiso   1.00
C711   C     0.06369   0.04587   0.65390   0.00000  Uiso   1.00
C712   C     0.07045   0.05262   0.64295   0.00000  Uiso   1.00
H713   H     0.98946   0.95778   0.78907   0.00000  Uiso   1.00
H714   H     0.97679   0.94516   0.80749   0.00000  Uiso   1.00
H715   H     0.91995   0.95163   0.82981   0.00000  Uiso   1.00
H716   H     0.90841   0.94009   0.84958   0.00000  Uiso   1.00
H717   H     0.01054   0.04222   0.71428   0.00000  Uiso   1.00
H718   H     0.02304   0.05467   0.69564   0.00000  Uiso   1.00
H719   H     0.06799   0.03631   0.65802   0.00000  Uiso   1.00
H720   H     0.07990   0.04822   0.63870   0.00000  Uiso   1.00
C721   C     0.97978   0.46195   0.29302   0.00000  Uiso   1.00
C722   C     0.97261   0.45479   0.30344   0.00000  Uiso   1.00
C723   C     0.92435   0.44217   0.33405   0.00000  Uiso   1.00
C724   C     0.91780   0.43563   0.34526   0.00000  Uiso   1.00
C725   C     0.02019   0.53802   0.21029   0.00000  Uiso   1.00
C726   C     0.02726   0.54508   0.19973   0.00000  Uiso   1.00
C727   C     0.06369   0.54587   0.15390   0.00000  Uiso   1.00
C728   C     0.07045   0.55262   0.14295   0.00000  Uiso   1.00
H729   H     0.98946   0.45778   0.28907   0.00000  Uiso   1.00
H730   H     0.97679   0.44516   0.30749   0.00000  Uiso   1.00
H731   H     0.91995   0.45163   0.32981   0.00000  Uiso   1.00
H732   H     0.90841   0.44009   0.34958   0.00000  Uiso   1.00
H733   H     0.01054   0.54222   0.21428   0.00000  Uiso   1.00
H734   H     0.02304   0.55467   0.19564   0.00000  Uiso   1.00
H735   H     0.06799   0.53631   0.15802   0.00000  Uiso   1.00
H736   H     0.07990   0.54822   0.13870   0.00000  Uiso   1.00
C737   C     0.47978   0.96195   0.29302   0.00000  Uiso   1.00
C738   C     0.47261   0.95479   0.30344   0.00000  Uiso   1.00
C739   C     0.42435   0.94217   0.33405   0.00000  Uiso   1.00
C740   C     0.41780   0.93563   0.34526   0.00000  Uiso   1.00
C741   C     0.52019   0.03802   0.21029   0.00000  Uiso   1.00
C742   C     0.52726   0.04508   0.19973   0.00000  Uiso   1.00
C743   C     0.56369   0.04587   0.15390   0.00000  Uiso   1.00
C744   C     0.57045   0.05262   0.14295   0.00000  Uiso   1.00
H745   H     0.48946   0.95778   0.28907   0.00000  Uiso   1.00
H746   H     0.47679   0.94516   0.30749   0.00000  Uiso   1.00
H747   H     0.41995   0.95163   0.32981   0.00000  Uiso   1.00
H748   H     0.40841   0.94009   0.34958   0.00000  Uiso   1.00
H749   H     0.51054   0.04222   0.21428   0.00000  Uiso   1.00
H750   H     0.52304   0.05467   0.19564   0.00000  Uiso   1.00
H751   H     0.56799   0.03631   0.15802   0.00000  Uiso   1.00
H752   H     0.57990   0.04822   0.13870   0.00000  Uiso   1.00
C753   C     0.47978   0.46195   0.79302   0.00000  Uiso   1.00
C754   C     0.47261   0.45479   0.80344   0.00000  Uiso   1.00
C755   C     0.42435   0.44217   0.83405   0.00000  Uiso   1.00
C756   C     0.41780   0.43563   0.84526   0.00000  Uiso   1.00
C757   C     0.52019   0.53802   0.71029   0.00000  Uiso   1.00
C758   C     0.52726   0.54508   0.69973   0.00000  Uiso   1.00
C759   C     0.56369   0.54587   0.65390   0.00000  Uiso   1.00
C760   C     0.57045   0.55262   0.64295   0.00000  Uiso   1.00
H761   H     0.48946   0.45778   0.78907   0.00000  Uiso   1.00
H762   H     0.47679   0.44516   0.80749   0.00000  Uiso   1.00
H763   H     0.41995   0.45163   0.82981   0.00000  Uiso   1.00
H764   H     0.40841   0.44009   0.84958   0.00000  Uiso   1.00
H765   H     0.51054   0.54222   0.71428   0.00000  Uiso   1.00
H766   H     0.52304   0.55467   0.69564   0.00000  Uiso   1.00
H767   H     0.56799   0.53631   0.65802   0.00000  Uiso   1.00
H768   H     0.57990   0.54822   0.63870   0.00000  Uiso   1.00
C769   C     0.77022   0.54302   0.21195   0.00000  Uiso   1.00
C770   C     0.77739   0.55344   0.20479   0.00000  Uiso   1.00
C771   C     0.82565   0.58405   0.19217   0.00000  Uiso   1.00
C772   C     0.83220   0.59526   0.18563   0.00000  Uiso   1.00
C773   C     0.72981   0.46029   0.28802   0.00000  Uiso   1.00
C774   C     0.72274   0.44973   0.29508   0.00000  Uiso   1.00
C775   C     0.68631   0.40390   0.29587   0.00000  Uiso   1.00
C776   C     0.67955   0.39295   0.30262   0.00000  Uiso   1.00
H777   H     0.76054   0.53907   0.20778   0.00000  Uiso   1.00
H778   H     0.77321   0.55749   0.19516   0.00000  Uiso   1.00
H779   H     0.83005   0.57981   0.20163   0.00000  Uiso   1.00
H780   H     0.84159   0.59958   0.19009   0.00000  Uiso   1.00
H781   H     0.73946   0.46428   0.29222   0.00000  Uiso   1.00
H782   H     0.72696   0.44564   0.30467   0.00000  Uiso   1.00
H783   H     0.68201   0.40802   0.28631   0.00000  Uiso   1.00
H784   H     0.67010   0.38870   0.29822   0.00000  Uiso   1.00
C785   C     0.77022   0.04302   0.71195   0.00000  Uiso   1.00
C786   C     0.77739   0.05344   0.70479   0.00000  Uiso   1.00
C787   C     0.82565   0.08405   0.69217   0.00000  Uiso   1.00
C788   C     0.83220   0.09526   0.68563   0.00000  Uiso   1.00
C789   C     0.72981   0.96029   0.78802   0.00000  Uiso   1.00
C790   C     0.72274   0.94973   0.79508   0.00000  Uiso   1.00
C791   C     0.68631   0.90390   0.79587   0.00000  Uiso   1.00
C792   C     0.67955   0.89295   0.80262   0.00000  Uiso   1.00
H793   H     0.76054   0.03907   0.70778   0.00000  Uiso   1.00
H794   H     0.77321   0.05749   0.69516   0.00000  Uiso   1.00
H795   H     0.83005   0.07981   0.70163   0.00000  Uiso   1.00
H796   H     0.84159   0.09958   0.69009   0.00000  Uiso   1.00
H797   H     0.73946   0.96428   0.79222   0.00000  Uiso   1.00
H798   H     0.72696   0.94564   0.80467   0.00000  Uiso   1.00
H799   H     0.68201   0.90802   0.78631   0.00000  Uiso   1.00
H800   H     0.67010   0.88870   0.79822   0.00000  Uiso   1.00
C801   C     0.27022   0.54302   0.71195   0.00000  Uiso   1.00
C802   C     0.27739   0.55344   0.70479   0.00000  Uiso   1.00
C803   C     0.32565   0.58405   0.69217   0.00000  Uiso   1.00
C804   C     0.33220   0.59526   0.68563   0.00000  Uiso   1.00
C805   C     0.22981   0.46029   0.78802   0.00000  Uiso   1.00
C806   C     0.22274   0.44973   0.79508   0.00000  Uiso   1.00
C807   C     0.18631   0.40390   0.79587   0.00000  Uiso   1.00
C808   C     0.17955   0.39295   0.80262   0.00000  Uiso   1.00
H809   H     0.26054   0.53907   0.70778   0.00000  Uiso   1.00
H810   H     0.27321   0.55749   0.69516   0.00000  Uiso   1.00
H811   H     0.33005   0.57981   0.70163   0.00000  Uiso   1.00
H812   H     0.34159   0.59958   0.69009   0.00000  Uiso   1.00
H813   H     0.23946   0.46428   0.79222   0.00000  Uiso   1.00
H814   H     0.22696   0.44564   0.80467   0.00000  Uiso   1.00
H815   H     0.18201   0.40802   0.78631   0.00000  Uiso   1.00
H816   H     0.17010   0.38870   0.79822   0.00000  Uiso   1.00
C817   C     0.27022   0.04302   0.21195   0.00000  Uiso   1.00
C818   C     0.27739   0.05344   0.20479   0.00000  Uiso   1.00
C819   C     0.32565   0.08405   0.19217   0.00000  Uiso   1.00
C820   C     0.33220   0.09526   0.18563   0.00000  Uiso   1.00
C821   C     0.22981   0.96029   0.28802   0.00000  Uiso   1.00
C822   C     0.22274   0.94973   0.29508   0.00000  Uiso   1.00
C823   C     0.18631   0.90390   0.29587   0.00000  Uiso   1.00
C824   C     0.17955   0.89295   0.30262   0.00000  Uiso   1.00
H825   H     0.26054   0.03907   0.20778   0.00000  Uiso   1.00
H826   H     0.27321   0.05749   0.19516   0.00000  Uiso   1.00
H827   H     0.33005   0.07981   0.20163   0.00000  Uiso   1.00
H828   H     0.34159   0.09958   0.19009   0.00000  Uiso   1.00
H829   H     0.23946   0.96428   0.29222   0.00000  Uiso   1.00
H830   H     0.22696   0.94564   0.30467   0.00000  Uiso   1.00
H831   H     0.18201   0.90802   0.28631   0.00000  Uiso   1.00
H832   H     0.17010   0.88870   0.29822   0.00000  Uiso   1.00
C833   C     0.22978   0.95698   0.71195   0.00000  Uiso   1.00
C834   C     0.22261   0.94656   0.70479   0.00000  Uiso   1.00
C835   C     0.17435   0.91595   0.69217   0.00000  Uiso   1.00
C836   C     0.16780   0.90474   0.68563   0.00000  Uiso   1.00
C837   C     0.27019   0.03971   0.78802   0.00000  Uiso   1.00
C838   C     0.27726   0.05027   0.79508   0.00000  Uiso   1.00
C839   C     0.31369   0.09610   0.79587   0.00000  Uiso   1.00
C840   C     0.32045   0.10705   0.80262   0.00000  Uiso   1.00
H841   H     0.23946   0.96093   0.70778   0.00000  Uiso   1.00
H842   H     0.22679   0.94251   0.69516   0.00000  Uiso   1.00
H843   H     0.16995   0.92019   0.70163   0.00000  Uiso   1.00
H844   H     0.15841   0.90042   0.69009   0.00000  Uiso   1.00
H845   H     0.26054   0.03572   0.79222   0.00000  Uiso   1.00
H846   H     0.27304   0.05436   0.80467   0.00000  Uiso   1.00
H847   H     0.31799   0.09198   0.78631   0.00000  Uiso   1.00
H848   H     0.32990   0.11130   0.79822   0.00000  Uiso   1.00
C849   C     0.22978   0.45698   0.21195   0.00000  Uiso   1.00
C850   C     0.22261   0.44656   0.20479   0.00000  Uiso   1.00
C851   C     0.17435   0.41595   0.19217   0.00000  Uiso   1.00
C852   C     0.16780   0.40474   0.18563   0.00000  Uiso   1.00
C853   C     0.27019   0.53971   0.28802   0.00000  Uiso   1.00
C854   C     0.27726   0.55027   0.29508   0.00000  Uiso   1.00
C855   C     0.31369   0.59610   0.29587   0.00000  Uiso   1.00
C856   C     0.32045   0.60705   0.30262   0.00000  Uiso   1.00
H857   H     0.23946   0.46093   0.20778   0.00000  Uiso   1.00
H858   H     0.22679   0.44251   0.19516   0.00000  Uiso   1.00
H859   H     0.16995   0.42019   0.20163   0.00000  Uiso   1.00
H860   H     0.15841   0.40042   0.19009   0.00000  Uiso   1.00
H861   H     0.26054   0.53572   0.29222   0.00000  Uiso   1.00
H862   H     0.27304   0.55436   0.30467   0.00000  Uiso   1.00
H863   H     0.31799   0.59198   0.28631   0.00000  Uiso   1.00
H864   H     0.32990   0.61130   0.29822   0.00000  Uiso   1.00
C865   C     0.72978   0.95698   0.21195   0.00000  Uiso   1.00
C866   C     0.72261   0.94656   0.20479   0.00000  Uiso   1.00
C867   C     0.67435   0.91595   0.19217   0.00000  Uiso   1.00
C868   C     0.66780   0.90474   0.18563   0.00000  Uiso   1.00
C869   C     0.77019   0.03971   0.28802   0.00000  Uiso   1.00
C870   C     0.77726   0.05027   0.29508   0.00000  Uiso   1.00
C871   C     0.81369   0.09610   0.29587   0.00000  Uiso   1.00
C872   C     0.82045   0.10705   0.30262   0.00000  Uiso   1.00
H873   H     0.73946   0.96093   0.20778   0.00000  Uiso   1.00
H874   H     0.72679   0.94251   0.19516   0.00000  Uiso   1.00
H875   H     0.66995   0.92019   0.20163   0.00000  Uiso   1.00
H876   H     0.65841   0.90042   0.19009   0.00000  Uiso   1.00
H877   H     0.76054   0.03572   0.29222   0.00000  Uiso   1.00
H878   H     0.77304   0.05436   0.30467   0.00000  Uiso   1.00
H879   H     0.81799   0.09198   0.28631   0.00000  Uiso   1.00
H880   H     0.82990   0.11130   0.29822   0.00000  Uiso   1.00
C881   C     0.72978   0.45698   0.71195   0.00000  Uiso   1.00
C882   C     0.72261   0.44656   0.70479   0.00000  Uiso   1.00
C883   C     0.67435   0.41595   0.69217   0.00000  Uiso   1.00
C884   C     0.66780   0.40474   0.68563   0.00000  Uiso   1.00
C885   C     0.77019   0.53971   0.78802   0.00000  Uiso   1.00
C886   C     0.77726   0.55027   0.79508   0.00000  Uiso   1.00
C887   C     0.81369   0.59610   0.79587   0.00000  Uiso   1.00
C888   C     0.82045   0.60705   0.80262   0.00000  Uiso   1.00
H889   H     0.73946   0.46093   0.70778   0.00000  Uiso   1.00
H890   H     0.72679   0.44251   0.69516   0.00000  Uiso   1.00
H891   H     0.66995   0.42019   0.70163   0.00000  Uiso   1.00
H892   H     0.65841   0.40042   0.69009   0.00000  Uiso   1.00
H893   H     0.76054   0.53572   0.79222   0.00000  Uiso   1.00
H894   H     0.77304   0.55436   0.80467   0.00000  Uiso   1.00
H895   H     0.81799   0.59198   0.78631   0.00000  Uiso   1.00
H896   H     0.82990   0.61130   0.79822   0.00000  Uiso   1.00
C897   C     0.27022   0.45698   0.28805   0.00000  Uiso   1.00
C898   C     0.27739   0.44656   0.29521   0.00000  Uiso   1.00
C899   C     0.32565   0.41595   0.30783   0.00000  Uiso   1.00
C900   C     0.33220   0.40474   0.31437   0.00000  Uiso   1.00
C901   C     0.22981   0.53971   0.21198   0.00000  Uiso   1.00
C902   C     0.22274   0.55027   0.20492   0.00000  Uiso   1.00
C903   C     0.18631   0.59610   0.20413   0.00000  Uiso   1.00
C904   C     0.17955   0.60705   0.19738   0.00000  Uiso   1.00
H905   H     0.26054   0.46093   0.29222   0.00000  Uiso   1.00
H906   H     0.27321   0.44251   0.30484   0.00000  Uiso   1.00
H907   H     0.33005   0.42019   0.29837   0.00000  Uiso   1.00
H908   H     0.34159   0.40042   0.30991   0.00000  Uiso   1.00
H909   H     0.23946   0.53572   0.20778   0.00000  Uiso   1.00
H910   H     0.22696   0.55436   0.19533   0.00000  Uiso   1.00
H911   H     0.18201   0.59198   0.21369   0.00000  Uiso   1.00
H912   H     0.17010   0.61130   0.20178   0.00000  Uiso   1.00
C913   C     0.27022   0.95698   0.78805   0.00000  Uiso   1.00
C914   C     0.27739   0.94656   0.79521   0.00000  Uiso   1.00
C915   C     0.32565   0.91595   0.80783   0.00000  Uiso   1.00
C916   C     0.33220   0.90474   0.81437   0.00000  Uiso   1.00
C917   C     0.22981   0.03971   0.71198   0.00000  Uiso   1.00
C918   C     0.22274   0.05027   0.70492   0.00000  Uiso   1.00
C919   C     0.18631   0.09610   0.70413   0.00000  Uiso   1.00
C920   C     0.17955   0.10705   0.69738   0.00000  Uiso   1.00
H921   H     0.26054   0.96093   0.79222   0.00000  Uiso   1.00
H922   H     0.27321   0.94251   0.80484   0.00000  Uiso   1.00
H923   H     0.33005   0.92019   0.79837   0.00000  Uiso   1.00
H924   H     0.34159   0.90042   0.80991   0.00000  Uiso   1.00
H925   H     0.23946   0.03572   0.70778   0.00000  Uiso   1.00
H926   H     0.22696   0.05436   0.69533   0.00000  Uiso   1.00
H927   H     0.18201   0.09198   0.71369   0.00000  Uiso   1.00
H928   H     0.17010   0.11130   0.70178   0.00000  Uiso   1.00
C929   C     0.77022   0.45698   0.78805   0.00000  Uiso   1.00
C930   C     0.77739   0.44656   0.79521   0.00000  Uiso   1.00
C931   C     0.82565   0.41595   0.80783   0.00000  Uiso   1.00
C932   C     0.83220   0.40474   0.81437   0.00000  Uiso   1.00
C933   C     0.72981   0.53971   0.71198   0.00000  Uiso   1.00
C934   C     0.72274   0.55027   0.70492   0.00000  Uiso   1.00
C935   C     0.68631   0.59610   0.70413   0.00000  Uiso   1.00
C936   C     0.67955   0.60705   0.69738   0.00000  Uiso   1.00
H937   H     0.76054   0.46093   0.79222   0.00000  Uiso   1.00
H938   H     0.77321   0.44251   0.80484   0.00000  Uiso   1.00
H939   H     0.83005   0.42019   0.79837   0.00000  Uiso   1.00
H940   H     0.84159   0.40042   0.80991   0.00000  Uiso   1.00
H941   H     0.73946   0.53572   0.70778   0.00000  Uiso   1.00
H942   H     0.72696   0.55436   0.69533   0.00000  Uiso   1.00
H943   H     0.68201   0.59198   0.71369   0.00000  Uiso   1.00
H944   H     0.67010   0.61130   0.70178   0.00000  Uiso   1.00
C945   C     0.77022   0.95698   0.28805   0.00000  Uiso   1.00
C946   C     0.77739   0.94656   0.29521   0.00000  Uiso   1.00
C947   C     0.82565   0.91595   0.30783   0.00000  Uiso   1.00
C948   C     0.83220   0.90474   0.31437   0.00000  Uiso   1.00
C949   C     0.72981   0.03971   0.21198   0.00000  Uiso   1.00
C950   C     0.72274   0.05027   0.20492   0.00000  Uiso   1.00
C951   C     0.68631   0.09610   0.20413   0.00000  Uiso   1.00
C952   C     0.67955   0.10705   0.19738   0.00000  Uiso   1.00
H953   H     0.76054   0.96093   0.29222   0.00000  Uiso   1.00
H954   H     0.77321   0.94251   0.30484   0.00000  Uiso   1.00
H955   H     0.83005   0.92019   0.29837   0.00000  Uiso   1.00
H956   H     0.84159   0.90042   0.30991   0.00000  Uiso   1.00
H957   H     0.73946   0.03572   0.20778   0.00000  Uiso   1.00
H958   H     0.72696   0.05436   0.19533   0.00000  Uiso   1.00
H959   H     0.68201   0.09198   0.21369   0.00000  Uiso   1.00
H960   H     0.67010   0.11130   0.20178   0.00000  Uiso   1.00
C961   C     0.72978   0.04302   0.78805   0.00000  Uiso   1.00
C962   C     0.72261   0.05344   0.79521   0.00000  Uiso   1.00
C963   C     0.67435   0.08405   0.80783   0.00000  Uiso   1.00
C964   C     0.66780   0.09526   0.81437   0.00000  Uiso   1.00
C965   C     0.77019   0.96029   0.71198   0.00000  Uiso   1.00
C966   C     0.77726   0.94973   0.70492   0.00000  Uiso   1.00
C967   C     0.81369   0.90390   0.70413   0.00000  Uiso   1.00
C968   C     0.82045   0.89295   0.69738   0.00000  Uiso   1.00
H969   H     0.73946   0.03907   0.79222   0.00000  Uiso   1.00
H970   H     0.72679   0.05749   0.80484   0.00000  Uiso   1.00
H971   H     0.66995   0.07981   0.79837   0.00000  Uiso   1.00
H972   H     0.65841   0.09958   0.80991   0.00000  Uiso   1.00
H973   H     0.76054   0.96428   0.70778   0.00000  Uiso   1.00
H974   H     0.77304   0.94564   0.69533   0.00000  Uiso   1.00
H975   H     0.81799   0.90802   0.71369   0.00000  Uiso   1.00
H976   H     0.82990   0.88870   0.70178   0.00000  Uiso   1.00
C977   C     0.72978   0.54302   0.28805   0.00000  Uiso   1.00
C978   C     0.72261   0.55344   0.29521   0.00000  Uiso   1.00
C979   C     0.67435   0.58405   0.30783   0.00000  Uiso   1.00
C980   C     0.66780   0.59526   0.31437   0.00000  Uiso   1.00
C981   C     0.77019   0.46029   0.21198   0.00000  Uiso   1.00
C982   C     0.77726   0.44973   0.20492   0.00000  Uiso   1.00
C983   C     0.81369   0.40390   0.20413   0.00000  Uiso   1.00
C984   C     0.82045   0.39295   0.19738   0.00000  Uiso   1.00
H985   H     0.73946   0.53907   0.29222   0.00000  Uiso   1.00
H986   H     0.72679   0.55749   0.30484   0.00000  Uiso   1.00
H987   H     0.66995   0.57981   0.29837   0.00000  Uiso   1.00
H988   H     0.65841   0.59958   0.30991   0.00000  Uiso   1.00
H989   H     0.76054   0.46428   0.20778   0.00000  Uiso   1.00
H990   H     0.77304   0.44564   0.19533   0.00000  Uiso   1.00
H991   H     0.81799   0.40802   0.21369   0.00000  Uiso   1.00
H992   H     0.82990   0.38870   0.20178   0.00000  Uiso   1.00
C993   C     0.22978   0.04302   0.28805   0.00000  Uiso   1.00
C994   C     0.22261   0.05344   0.29521   0.00000  Uiso   1.00
C995   C     0.17435   0.08405   0.30783   0.00000  Uiso   1.00
C996   C     0.16780   0.09526   0.31437   0.00000  Uiso   1.00
C997   C     0.27019   0.96029   0.21198   0.00000  Uiso   1.00
C998   C     0.27726   0.94973   0.20492   0.00000  Uiso   1.00
C999   C     0.31369   0.90390   0.20413   0.00000  Uiso   1.00
C1000  C     0.32045   0.89295   0.19738   0.00000  Uiso   1.00
H1001  H     0.23946   0.03907   0.29222   0.00000  Uiso   1.00
H1002  H     0.22679   0.05749   0.30484   0.00000  Uiso   1.00
H1003  H     0.16995   0.07981   0.29837   0.00000  Uiso   1.00
H1004  H     0.15841   0.09958   0.30991   0.00000  Uiso   1.00
H1005  H     0.26054   0.96428   0.20778   0.00000  Uiso   1.00
H1006  H     0.27304   0.94564   0.19533   0.00000  Uiso   1.00
H1007  H     0.31799   0.90802   0.21369   0.00000  Uiso   1.00
H1008  H     0.32990   0.88870   0.20178   0.00000  Uiso   1.00
C1009  C     0.22978   0.54302   0.78805   0.00000  Uiso   1.00
C1010  C     0.22261   0.55344   0.79521   0.00000  Uiso   1.00
C1011  C     0.17435   0.58405   0.80783   0.00000  Uiso   1.00
C1012  C     0.16780   0.59526   0.81437   0.00000  Uiso   1.00
C1013  C     0.27019   0.46029   0.71198   0.00000  Uiso   1.00
C1014  C     0.27726   0.44973   0.70492   0.00000  Uiso   1.00
C1015  C     0.31369   0.40390   0.70413   0.00000  Uiso   1.00
C1016  C     0.32045   0.39295   0.69738   0.00000  Uiso   1.00
H1017  H     0.23946   0.53907   0.79222   0.00000  Uiso   1.00
H1018  H     0.22679   0.55749   0.80484   0.00000  Uiso   1.00
H1019  H     0.16995   0.57981   0.79837   0.00000  Uiso   1.00
H1020  H     0.15841   0.59958   0.80991   0.00000  Uiso   1.00
H1021  H     0.26054   0.46428   0.70778   0.00000  Uiso   1.00
H1022  H     0.27304   0.44564   0.69533   0.00000  Uiso   1.00
H1023  H     0.31799   0.40802   0.71369   0.00000  Uiso   1.00
H1024  H     0.32990   0.38870   0.70178   0.00000  Uiso   1.00
C1025  C     0.04302   0.78805   0.72978   0.00000  Uiso   1.00
C1026  C     0.05344   0.79521   0.72261   0.00000  Uiso   1.00
C1027  C     0.08405   0.80783   0.67435   0.00000  Uiso   1.00
C1028  C     0.09526   0.81437   0.66780   0.00000  Uiso   1.00
C1029  C     0.96029   0.71198   0.77019   0.00000  Uiso   1.00
C1030  C     0.94973   0.70492   0.77726   0.00000  Uiso   1.00
C1031  C     0.90390   0.70413   0.81369   0.00000  Uiso   1.00
C1032  C     0.89295   0.69738   0.82045   0.00000  Uiso   1.00
H1033  H     0.03907   0.79222   0.73946   0.00000  Uiso   1.00
H1034  H     0.05749   0.80484   0.72679   0.00000  Uiso   1.00
H1035  H     0.07981   0.79837   0.66995   0.00000  Uiso   1.00
H1036  H     0.09958   0.80991   0.65841   0.00000  Uiso   1.00
H1037  H     0.96428   0.70778   0.76054   0.00000  Uiso   1.00
H1038  H     0.94564   0.69533   0.77304   0.00000  Uiso   1.00
H1039  H     0.90802   0.71369   0.81799   0.00000  Uiso   1.00
H1040  H     0.88870   0.70178   0.82990   0.00000  Uiso   1.00
C1041  C     0.04302   0.28805   0.22978   0.00000  Uiso   1.00
C1042  C     0.05344   0.29521   0.22261   0.00000  Uiso   1.00
C1043  C     0.08405   0.30783   0.17435   0.00000  Uiso   1.00
C1044  C     0.09526   0.31437   0.16780   0.00000  Uiso   1.00
C1045  C     0.96029   0.21198   0.27019   0.00000  Uiso   1.00
C1046  C     0.94973   0.20492   0.27726   0.00000  Uiso   1.00
C1047  C     0.90390   0.20413   0.31369   0.00000  Uiso   1.00
C1048  C     0.89295   0.19738   0.32045   0.00000  Uiso   1.00
H1049  H     0.03907   0.29222   0.23946   0.00000  Uiso   1.00
H1050  H     0.05749   0.30484   0.22679   0.00000  Uiso   1.00
H1051  H     0.07981   0.29837   0.16995   0.00000  Uiso   1.00
H1052  H     0.09958   0.30991   0.15841   0.00000  Uiso   1.00
H1053  H     0.96428   0.20778   0.26054   0.00000  Uiso   1.00
H1054  H     0.94564   0.19533   0.27304   0.00000  Uiso   1.00
H1055  H     0.90802   0.21369   0.31799   0.00000  Uiso   1.00
H1056  H     0.88870   0.20178   0.32990   0.00000  Uiso   1.00
C1057  C     0.54302   0.78805   0.22978   0.00000  Uiso   1.00
C1058  C     0.55344   0.79521   0.22261   0.00000  Uiso   1.00
C1059  C     0.58405   0.80783   0.17435   0.00000  Uiso   1.00
C1060  C     0.59526   0.81437   0.16780   0.00000  Uiso   1.00
C1061  C     0.46029   0.71198   0.27019   0.00000  Uiso   1.00
C1062  C     0.44973   0.70492   0.27726   0.00000  Uiso   1.00
C1063  C     0.40390   0.70413   0.31369   0.00000  Uiso   1.00
C1064  C     0.39295   0.69738   0.32045   0.00000  Uiso   1.00
H1065  H     0.53907   0.79222   0.23946   0.00000  Uiso   1.00
H1066  H     0.55749   0.80484   0.22679   0.00000  Uiso   1.00
H1067  H     0.57981   0.79837   0.16995   0.00000  Uiso   1.00
H1068  H     0.59958   0.80991   0.15841   0.00000  Uiso   1.00
H1069  H     0.46428   0.70778   0.26054   0.00000  Uiso   1.00
H1070  H     0.44564   0.69533   0.27304   0.00000  Uiso   1.00
H1071  H     0.40802   0.71369   0.31799   0.00000  Uiso   1.00
H1072  H     0.38870   0.70178   0.32990   0.00000  Uiso   1.00
C1073  C     0.54302   0.28805   0.72978   0.00000  Uiso   1.00
C1074  C     0.55344   0.29521   0.72261   0.00000  Uiso   1.00
C1075  C     0.58405   0.30783   0.67435   0.00000  Uiso   1.00
C1076  C     0.59526   0.31437   0.66780   0.00000  Uiso   1.00
C1077  C     0.46029   0.21198   0.77019   0.00000  Uiso   1.00
C1078  C     0.44973   0.20492   0.77726   0.00000  Uiso   1.00
C1079  C     0.40390   0.20413   0.81369   0.00000  Uiso   1.00
C1080  C     0.39295   0.19738   0.82045   0.00000  Uiso   1.00
H1081  H     0.53907   0.29222   0.73946   0.00000  Uiso   1.00
H1082  H     0.55749   0.30484   0.72679   0.00000  Uiso   1.00
H1083  H     0.57981   0.29837   0.66995   0.00000  Uiso   1.00
H1084  H     0.59958   0.30991   0.65841   0.00000  Uiso   1.00
H1085  H     0.46428   0.20778   0.76054   0.00000  Uiso   1.00
H1086  H     0.44564   0.19533   0.77304   0.00000  Uiso   1.00
H1087  H     0.40802   0.21369   0.81799   0.00000  Uiso   1.00
H1088  H     0.38870   0.20178   0.82990   0.00000  Uiso   1.00
C1089  C     0.45698   0.28805   0.27022   0.00000  Uiso   1.00
C1090  C     0.44656   0.29521   0.27739   0.00000  Uiso   1.00
C1091  C     0.41595   0.30783   0.32565   0.00000  Uiso   1.00
C1092  C     0.40474   0.31437   0.33220   0.00000  Uiso   1.00
C1093  C     0.53971   0.21198   0.22981   0.00000  Uiso   1.00
C1094  C     0.55027   0.20492   0.22274   0.00000  Uiso   1.00
C1095  C     0.59610   0.20413   0.18631   0.00000  Uiso   1.00
C1096  C     0.60705   0.19738   0.17955   0.00000  Uiso   1.00
H1097  H     0.46093   0.29222   0.26054   0.00000  Uiso   1.00
H1098  H     0.44251   0.30484   0.27321   0.00000  Uiso   1.00
H1099  H     0.42019   0.29837   0.33005   0.00000  Uiso   1.00
H1100  H     0.40042   0.30991   0.34159   0.00000  Uiso   1.00
H1101  H     0.53572   0.20778   0.23946   0.00000  Uiso   1.00
H1102  H     0.55436   0.19533   0.22696   0.00000  Uiso   1.00
H1103  H     0.59198   0.21369   0.18201   0.00000  Uiso   1.00
H1104  H     0.61130   0.20178   0.17010   0.00000  Uiso   1.00
C1105  C     0.45698   0.78805   0.77022   0.00000  Uiso   1.00
C1106  C     0.44656   0.79521   0.77739   0.00000  Uiso   1.00
C1107  C     0.41595   0.80783   0.82565   0.00000  Uiso   1.00
C1108  C     0.40474   0.81437   0.83220   0.00000  Uiso   1.00
C1109  C     0.53971   0.71198   0.72981   0.00000  Uiso   1.00
C1110  C     0.55027   0.70492   0.72274   0.00000  Uiso   1.00
C1111  C     0.59610   0.70413   0.68631   0.00000  Uiso   1.00
C1112  C     0.60705   0.69738   0.67955   0.00000  Uiso   1.00
H1113  H     0.46093   0.79222   0.76054   0.00000  Uiso   1.00
H1114  H     0.44251   0.80484   0.77321   0.00000  Uiso   1.00
H1115  H     0.42019   0.79837   0.83005   0.00000  Uiso   1.00
H1116  H     0.40042   0.80991   0.84159   0.00000  Uiso   1.00
H1117  H     0.53572   0.70778   0.73946   0.00000  Uiso   1.00
H1118  H     0.55436   0.69533   0.72696   0.00000  Uiso   1.00
H1119  H     0.59198   0.71369   0.68201   0.00000  Uiso   1.00
H1120  H     0.61130   0.70178   0.67010   0.00000  Uiso   1.00
C1121  C     0.95698   0.28805   0.77022   0.00000  Uiso   1.00
C1122  C     0.94656   0.29521   0.77739   0.00000  Uiso   1.00
C1123  C     0.91595   0.30783   0.82565   0.00000  Uiso   1.00
C1124  C     0.90474   0.31437   0.83220   0.00000  Uiso   1.00
C1125  C     0.03971   0.21198   0.72981   0.00000  Uiso   1.00
C1126  C     0.05027   0.20492   0.72274   0.00000  Uiso   1.00
C1127  C     0.09610   0.20413   0.68631   0.00000  Uiso   1.00
C1128  C     0.10705   0.19738   0.67955   0.00000  Uiso   1.00
H1129  H     0.96093   0.29222   0.76054   0.00000  Uiso   1.00
H1130  H     0.94251   0.30484   0.77321   0.00000  Uiso   1.00
H1131  H     0.92019   0.29837   0.83005   0.00000  Uiso   1.00
H1132  H     0.90042   0.30991   0.84159   0.00000  Uiso   1.00
H1133  H     0.03572   0.20778   0.73946   0.00000  Uiso   1.00
H1134  H     0.05436   0.19533   0.72696   0.00000  Uiso   1.00
H1135  H     0.09198   0.21369   0.68201   0.00000  Uiso   1.00
H1136  H     0.11130   0.20178   0.67010   0.00000  Uiso   1.00
C1137  C     0.95698   0.78805   0.27022   0.00000  Uiso   1.00
C1138  C     0.94656   0.79521   0.27739   0.00000  Uiso   1.00
C1139  C     0.91595   0.80783   0.32565   0.00000  Uiso   1.00
C1140  C     0.90474   0.81437   0.33220   0.00000  Uiso   1.00
C1141  C     0.03971   0.71198   0.22981   0.00000  Uiso   1.00
C1142  C     0.05027   0.70492   0.22274   0.00000  Uiso   1.00
C1143  C     0.09610   0.70413   0.18631   0.00000  Uiso   1.00
C1144  C     0.10705   0.69738   0.17955   0.00000  Uiso   1.00
H1145  H     0.96093   0.79222   0.26054   0.00000  Uiso   1.00
H1146  H     0.94251   0.80484   0.27321   0.00000  Uiso   1.00
H1147  H     0.92019   0.79837   0.33005   0.00000  Uiso   1.00
H1148  H     0.90042   0.80991   0.34159   0.00000  Uiso   1.00
H1149  H     0.03572   0.70778   0.23946   0.00000  Uiso   1.00
H1150  H     0.05436   0.69533   0.22696   0.00000  Uiso   1.00
H1151  H     0.09198   0.71369   0.18201   0.00000  Uiso   1.00
H1152  H     0.11130   0.70178   0.17010   0.00000  Uiso   1.00
C1153  C     0.95698   0.71195   0.22978   0.00000  Uiso   1.00
C1154  C     0.94656   0.70479   0.22261   0.00000  Uiso   1.00
C1155  C     0.91595   0.69217   0.17435   0.00000  Uiso   1.00
C1156  C     0.90474   0.68563   0.16780   0.00000  Uiso   1.00
C1157  C     0.03971   0.78802   0.27019   0.00000  Uiso   1.00
C1158  C     0.05027   0.79508   0.27726   0.00000  Uiso   1.00
C1159  C     0.09610   0.79587   0.31369   0.00000  Uiso   1.00
C1160  C     0.10705   0.80262   0.32045   0.00000  Uiso   1.00
H1161  H     0.96093   0.70778   0.23946   0.00000  Uiso   1.00
H1162  H     0.94251   0.69516   0.22679   0.00000  Uiso   1.00
H1163  H     0.92019   0.70163   0.16995   0.00000  Uiso   1.00
H1164  H     0.90042   0.69009   0.15841   0.00000  Uiso   1.00
H1165  H     0.03572   0.79222   0.26054   0.00000  Uiso   1.00
H1166  H     0.05436   0.80467   0.27304   0.00000  Uiso   1.00
H1167  H     0.09198   0.78631   0.31799   0.00000  Uiso   1.00
H1168  H     0.11130   0.79822   0.32990   0.00000  Uiso   1.00
C1169  C     0.95698   0.21195   0.72978   0.00000  Uiso   1.00
C1170  C     0.94656   0.20479   0.72261   0.00000  Uiso   1.00
C1171  C     0.91595   0.19217   0.67435   0.00000  Uiso   1.00
C1172  C     0.90474   0.18563   0.66780   0.00000  Uiso   1.00
C1173  C     0.03971   0.28802   0.77019   0.00000  Uiso   1.00
C1174  C     0.05027   0.29508   0.77726   0.00000  Uiso   1.00
C1175  C     0.09610   0.29587   0.81369   0.00000  Uiso   1.00
C1176  C     0.10705   0.30262   0.82045   0.00000  Uiso   1.00
H1177  H     0.96093   0.20778   0.73946   0.00000  Uiso   1.00
H1178  H     0.94251   0.19516   0.72679   0.00000  Uiso   1.00
H1179  H     0.92019   0.20163   0.66995   0.00000  Uiso   1.00
H1180  H     0.90042   0.19009   0.65841   0.00000  Uiso   1.00
H1181  H     0.03572   0.29222   0.76054   0.00000  Uiso   1.00
H1182  H     0.05436   0.30467   0.77304   0.00000  Uiso   1.00
H1183  H     0.09198   0.28631   0.81799   0.00000  Uiso   1.00
H1184  H     0.11130   0.29822   0.82990   0.00000  Uiso   1.00
C1185  C     0.45698   0.71195   0.72978   0.00000  Uiso   1.00
C1186  C     0.44656   0.70479   0.72261   0.00000  Uiso   1.00
C1187  C     0.41595   0.69217   0.67435   0.00000  Uiso   1.00
C1188  C     0.40474   0.68563   0.66780   0.00000  Uiso   1.00
C1189  C     0.53971   0.78802   0.77019   0.00000  Uiso   1.00
C1190  C     0.55027   0.79508   0.77726   0.00000  Uiso   1.00
C1191  C     0.59610   0.79587   0.81369   0.00000  Uiso   1.00
C1192  C     0.60705   0.80262   0.82045   0.00000  Uiso   1.00
H1193  H     0.46093   0.70778   0.73946   0.00000  Uiso   1.00
H1194  H     0.44251   0.69516   0.72679   0.00000  Uiso   1.00
H1195  H     0.42019   0.70163   0.66995   0.00000  Uiso   1.00
H1196  H     0.40042   0.69009   0.65841   0.00000  Uiso   1.00
H1197  H     0.53572   0.79222   0.76054   0.00000  Uiso   1.00
H1198  H     0.55436   0.80467   0.77304   0.00000  Uiso   1.00
H1199  H     0.59198   0.78631   0.81799   0.00000  Uiso   1.00
H1200  H     0.61130   0.79822   0.82990   0.00000  Uiso   1.00
C1201  C     0.45698   0.21195   0.22978   0.00000  Uiso   1.00
C1202  C     0.44656   0.20479   0.22261   0.00000  Uiso   1.00
C1203  C     0.41595   0.19217   0.17435   0.00000  Uiso   1.00
C1204  C     0.40474   0.18563   0.16780   0.00000  Uiso   1.00
C1205  C     0.53971   0.28802   0.27019   0.00000  Uiso   1.00
C1206  C     0.55027   0.29508   0.27726   0.00000  Uiso   1.00
C1207  C     0.59610   0.29587   0.31369   0.00000  Uiso   1.00
C1208  C     0.60705   0.30262   0.32045   0.00000  Uiso   1.00
H1209  H     0.46093   0.20778   0.23946   0.00000  Uiso   1.00
H1210  H     0.44251   0.19516   0.22679   0.00000  Uiso   1.00
H1211  H     0.42019   0.20163   0.16995   0.00000  Uiso   1.00
H1212  H     0.40042   0.19009   0.15841   0.00000  Uiso   1.00
H1213  H     0.53572   0.29222   0.26054   0.00000  Uiso   1.00
H1214  H     0.55436   0.30467   0.27304   0.00000  Uiso   1.00
H1215  H     0.59198   0.28631   0.31799   0.00000  Uiso   1.00
H1216  H     0.61130   0.29822   0.32990   0.00000  Uiso   1.00
C1217  C     0.54302   0.21195   0.77022   0.00000  Uiso   1.00
C1218  C     0.55344   0.20479   0.77739   0.00000  Uiso   1.00
C1219  C     0.58405   0.19217   0.82565   0.00000  Uiso   1.00
C1220  C     0.59526   0.18563   0.83220   0.00000  Uiso   1.00
C1221  C     0.46029   0.28802   0.72981   0.00000  Uiso   1.00
C1222  C     0.44973   0.29508   0.72274   0.00000  Uiso   1.00
C1223  C     0.40390   0.29587   0.68631   0.00000  Uiso   1.00
C1224  C     0.39295   0.30262   0.67955   0.00000  Uiso   1.00
H1225  H     0.53907   0.20778   0.76054   0.00000  Uiso   1.00
H1226  H     0.55749   0.19516   0.77321   0.00000  Uiso   1.00
H1227  H     0.57981   0.20163   0.83005   0.00000  Uiso   1.00
H1228  H     0.59958   0.19009   0.84159   0.00000  Uiso   1.00
H1229  H     0.46428   0.29222   0.73946   0.00000  Uiso   1.00
H1230  H     0.44564   0.30467   0.72696   0.00000  Uiso   1.00
H1231  H     0.40802   0.28631   0.68201   0.00000  Uiso   1.00
H1232  H     0.38870   0.29822   0.67010   0.00000  Uiso   1.00
C1233  C     0.54302   0.71195   0.27022   0.00000  Uiso   1.00
C1234  C     0.55344   0.70479   0.27739   0.00000  Uiso   1.00
C1235  C     0.58405   0.69217   0.32565   0.00000  Uiso   1.00
C1236  C     0.59526   0.68563   0.33220   0.00000  Uiso   1.00
C1237  C     0.46029   0.78802   0.22981   0.00000  Uiso   1.00
C1238  C     0.44973   0.79508   0.22274   0.00000  Uiso   1.00
C1239  C     0.40390   0.79587   0.18631   0.00000  Uiso   1.00
C1240  C     0.39295   0.80262   0.17955   0.00000  Uiso   1.00
H1241  H     0.53907   0.70778   0.26054   0.00000  Uiso   1.00
H1242  H     0.55749   0.69516   0.27321   0.00000  Uiso   1.00
H1243  H     0.57981   0.70163   0.33005   0.00000  Uiso   1.00
H1244  H     0.59958   0.69009   0.34159   0.00000  Uiso   1.00
H1245  H     0.46428   0.79222   0.23946   0.00000  Uiso   1.00
H1246  H     0.44564   0.80467   0.22696   0.00000  Uiso   1.00
H1247  H     0.40802   0.78631   0.18201   0.00000  Uiso   1.00
H1248  H     0.38870   0.79822   0.17010   0.00000  Uiso   1.00
C1249  C     0.04302   0.21195   0.27022   0.00000  Uiso   1.00
C1250  C     0.05344   0.20479   0.27739   0.00000  Uiso   1.00
C1251  C     0.08405   0.19217   0.32565   0.00000  Uiso   1.00
C1252  C     0.09526   0.18563   0.33220   0.00000  Uiso   1.00
C1253  C     0.96029   0.28802   0.22981   0.00000  Uiso   1.00
C1254  C     0.94973   0.29508   0.22274   0.00000  Uiso   1.00
C1255  C     0.90390   0.29587   0.18631   0.00000  Uiso   1.00
C1256  C     0.89295   0.30262   0.17955   0.00000  Uiso   1.00
H1257  H     0.03907   0.20778   0.26054   0.00000  Uiso   1.00
H1258  H     0.05749   0.19516   0.27321   0.00000  Uiso   1.00
H1259  H     0.07981   0.20163   0.33005   0.00000  Uiso   1.00
H1260  H     0.09958   0.19009   0.34159   0.00000  Uiso   1.00
H1261  H     0.96428   0.29222   0.23946   0.00000  Uiso   1.00
H1262  H     0.94564   0.30467   0.22696   0.00000  Uiso   1.00
H1263  H     0.90802   0.28631   0.18201   0.00000  Uiso   1.00
H1264  H     0.88870   0.29822   0.17010   0.00000  Uiso   1.00
C1265  C     0.04302   0.71195   0.77022   0.00000  Uiso   1.00
C1266  C     0.05344   0.70479   0.77739   0.00000  Uiso   1.00
C1267  C     0.08405   0.69217   0.82565   0.00000  Uiso   1.00
C1268  C     0.09526   0.68563   0.83220   0.00000  Uiso   1.00
C1269  C     0.96029   0.78802   0.72981   0.00000  Uiso   1.00
C1270  C     0.94973   0.79508   0.72274   0.00000  Uiso   1.00
C1271  C     0.90390   0.79587   0.68631   0.00000  Uiso   1.00
C1272  C     0.89295   0.80262   0.67955   0.00000  Uiso   1.00
H1273  H     0.03907   0.70778   0.76054   0.00000  Uiso   1.00
H1274  H     0.05749   0.69516   0.77321   0.00000  Uiso   1.00
H1275  H     0.07981   0.70163   0.83005   0.00000  Uiso   1.00
H1276  H     0.09958   0.69009   0.84159   0.00000  Uiso   1.00
H1277  H     0.96428   0.79222   0.73946   0.00000  Uiso   1.00
H1278  H     0.94564   0.80467   0.72696   0.00000  Uiso   1.00
H1279  H     0.90802   0.78631   0.68201   0.00000  Uiso   1.00
H1280  H     0.88870   0.79822   0.67010   0.00000  Uiso   1.00
C1281  C     0.28805   0.27022   0.45698   0.00000  Uiso   1.00
C1282  C     0.29521   0.27739   0.44656   0.00000  Uiso   1.00
C1283  C     0.30783   0.32565   0.41595   0.00000  Uiso   1.00
C1284  C     0.31437   0.33220   0.40474   0.00000  Uiso   1.00
C1285  C     0.21198   0.22981   0.53971   0.00000  Uiso   1.00
C1286  C     0.20492   0.22274   0.55027   0.00000  Uiso   1.00
C1287  C     0.20413   0.18631   0.59610   0.00000  Uiso   1.00
C1288  C     0.19738   0.17955   0.60705   0.00000  Uiso   1.00
H1289  H     0.29222   0.26054   0.46093   0.00000  Uiso   1.00
H1290  H     0.30484   0.27321   0.44251   0.00000  Uiso   1.00
H1291  H     0.29837   0.33005   0.42019   0.00000  Uiso   1.00
H1292  H     0.30991   0.34159   0.40042   0.00000  Uiso   1.00
H1293  H     0.20778   0.23946   0.53572   0.00000  Uiso   1.00
H1294  H     0.19533   0.22696   0.55436   0.00000  Uiso   1.00
H1295  H     0.21369   0.18201   0.59198   0.00000  Uiso   1.00
H1296  H     0.20178   0.17010   0.61130   0.00000  Uiso   1.00
C1297  C     0.28805   0.77022   0.95698   0.00000  Uiso   1.00
C1298  C     0.29521   0.77739   0.94656   0.00000  Uiso   1.00
C1299  C     0.30783   0.82565   0.91595   0.00000  Uiso   1.00
C1300  C     0.31437   0.83220   0.90474   0.00000  Uiso   1.00
C1301  C     0.21198   0.72981   0.03971   0.00000  Uiso   1.00
C1302  C     0.20492   0.72274   0.05027   0.00000  Uiso   1.00
C1303  C     0.20413   0.68631   0.09610   0.00000  Uiso   1.00
C1304  C     0.19738   0.67955   0.10705   0.00000  Uiso   1.00
H1305  H     0.29222   0.76054   0.96093   0.00000  Uiso   1.00
H1306  H     0.30484   0.77321   0.94251   0.00000  Uiso   1.00
H1307  H     0.29837   0.83005   0.92019   0.00000  Uiso   1.00
H1308  H     0.30991   0.84159   0.90042   0.00000  Uiso   1.00
H1309  H     0.20778   0.73946   0.03572   0.00000  Uiso   1.00
H1310  H     0.19533   0.72696   0.05436   0.00000  Uiso   1.00
H1311  H     0.21369   0.68201   0.09198   0.00000  Uiso   1.00
H1312  H     0.20178   0.67010   0.11130   0.00000  Uiso   1.00
C1313  C     0.78805   0.27022   0.95698   0.00000  Uiso   1.00
C1314  C     0.79521   0.27739   0.94656   0.00000  Uiso   1.00
C1315  C     0.80783   0.32565   0.91595   0.00000  Uiso   1.00
C1316  C     0.81437   0.33220   0.90474   0.00000  Uiso   1.00
C1317  C     0.71198   0.22981   0.03971   0.00000  Uiso   1.00
C1318  C     0.70492   0.22274   0.05027   0.00000  Uiso   1.00
C1319  C     0.70413   0.18631   0.09610   0.00000  Uiso   1.00
C1320  C     0.69738   0.17955   0.10705   0.00000  Uiso   1.00
H1321  H     0.79222   0.26054   0.96093   0.00000  Uiso   1.00
H1322  H     0.80484   0.27321   0.94251   0.00000  Uiso   1.00
H1323  H     0.79837   0.33005   0.92019   0.00000  Uiso   1.00
H1324  H     0.80991   0.34159   0.90042   0.00000  Uiso   1.00
H1325  H     0.70778   0.23946   0.03572   0.00000  Uiso   1.00
H1326  H     0.69533   0.22696   0.05436   0.00000  Uiso   1.00
H1327  H     0.71369   0.18201   0.09198   0.00000  Uiso   1.00
H1328  H     0.70178   0.17010   0.11130   0.00000  Uiso   1.00
C1329  C     0.78805   0.77022   0.45698   0.00000  Uiso   1.00
C1330  C     0.79521   0.77739   0.44656   0.00000  Uiso   1.00
C1331  C     0.80783   0.82565   0.41595   0.00000  Uiso   1.00
C1332  C     0.81437   0.83220   0.40474   0.00000  Uiso   1.00
C1333  C     0.71198   0.72981   0.53971   0.00000  Uiso   1.00
C1334  C     0.70492   0.72274   0.55027   0.00000  Uiso   1.00
C1335  C     0.70413   0.68631   0.59610   0.00000  Uiso   1.00
C1336  C     0.69738   0.67955   0.60705   0.00000  Uiso   1.00
H1337  H     0.79222   0.76054   0.46093   0.00000  Uiso   1.00
H1338  H     0.80484   0.77321   0.44251   0.00000  Uiso   1.00
H1339  H     0.79837   0.83005   0.42019   0.00000  Uiso   1.00
H1340  H     0.80991   0.84159   0.40042   0.00000  Uiso   1.00
H1341  H     0.70778   0.73946   0.53572   0.00000  Uiso   1.00
H1342  H     0.69533   0.72696   0.55436   0.00000  Uiso   1.00
H1343  H     0.71369   0.68201   0.59198   0.00000  Uiso   1.00
H1344  H     0.70178   0.67010   0.61130   0.00000  Uiso   1.00
C1345  C     0.78805   0.72978   0.04302   0.00000  Uiso   1.00
C1346  C     0.79521   0.72261   0.05344   0.00000  Uiso   1.00
C1347  C     0.80783   0.67435   0.08405   0.00000  Uiso   1.00
C1348  C     0.81437   0.66780   0.09526   0.00000  Uiso   1.00
C1349  C     0.71198   0.77019   0.96029   0.00000  Uiso   1.00
C1350  C     0.70492   0.77726   0.94973   0.00000  Uiso   1.00
C1351  C     0.70413   0.81369   0.90390   0.00000  Uiso   1.00
C1352  C     0.69738   0.82045   0.89295   0.00000  Uiso   1.00
H1353  H     0.79222   0.73946   0.03907   0.00000  Uiso   1.00
H1354  H     0.80484   0.72679   0.05749   0.00000  Uiso   1.00
H1355  H     0.79837   0.66995   0.07981   0.00000  Uiso   1.00
H1356  H     0.80991   0.65841   0.09958   0.00000  Uiso   1.00
H1357  H     0.70778   0.76054   0.96428   0.00000  Uiso   1.00
H1358  H     0.69533   0.77304   0.94564   0.00000  Uiso   1.00
H1359  H     0.71369   0.81799   0.90802   0.00000  Uiso   1.00
H1360  H     0.70178   0.82990   0.88870   0.00000  Uiso   1.00
C1361  C     0.78805   0.22978   0.54302   0.00000  Uiso   1.00
C1362  C     0.79521   0.22261   0.55344   0.00000  Uiso   1.00
C1363  C     0.80783   0.17435   0.58405   0.00000  Uiso   1.00
C1364  C     0.81437   0.16780   0.59526   0.00000  Uiso   1.00
C1365  C     0.71198   0.27019   0.46029   0.00000  Uiso   1.00
C1366  C     0.70492   0.27726   0.44973   0.00000  Uiso   1.00
C1367  C     0.70413   0.31369   0.40390   0.00000  Uiso   1.00
C1368  C     0.69738   0.32045   0.39295   0.00000  Uiso   1.00
H1369  H     0.79222   0.23946   0.53907   0.00000  Uiso   1.00
H1370  H     0.80484   0.22679   0.55749   0.00000  Uiso   1.00
H1371  H     0.79837   0.16995   0.57981   0.00000  Uiso   1.00
H1372  H     0.80991   0.15841   0.59958   0.00000  Uiso   1.00
H1373  H     0.70778   0.26054   0.46428   0.00000  Uiso   1.00
H1374  H     0.69533   0.27304   0.44564   0.00000  Uiso   1.00
H1375  H     0.71369   0.31799   0.40802   0.00000  Uiso   1.00
H1376  H     0.70178   0.32990   0.38870   0.00000  Uiso   1.00
C1377  C     0.28805   0.72978   0.54302   0.00000  Uiso   1.00
C1378  C     0.29521   0.72261   0.55344   0.00000  Uiso   1.00
C1379  C     0.30783   0.67435   0.58405   0.00000  Uiso   1.00
C1380  C     0.31437   0.66780   0.59526   0.00000  Uiso   1.00
C1381  C     0.21198   0.77019   0.46029   0.00000  Uiso   1.00
C1382  C     0.20492   0.77726   0.44973   0.00000  Uiso   1.00
C1383  C     0.20413   0.81369   0.40390   0.00000  Uiso   1.00
C1384  C     0.19738   0.82045   0.39295   0.00000  Uiso   1.00
H1385  H     0.29222   0.73946   0.53907   0.00000  Uiso   1.00
H1386  H     0.30484   0.72679   0.55749   0.00000  Uiso   1.00
H1387  H     0.29837   0.66995   0.57981   0.00000  Uiso   1.00
H1388  H     0.30991   0.65841   0.59958   0.00000  Uiso   1.00
H1389  H     0.20778   0.76054   0.46428   0.00000  Uiso   1.00
H1390  H     0.19533   0.77304   0.44564   0.00000  Uiso   1.00
H1391  H     0.21369   0.81799   0.40802   0.00000  Uiso   1.00
H1392  H     0.20178   0.82990   0.38870   0.00000  Uiso   1.00
C1393  C     0.28805   0.22978   0.04302   0.00000  Uiso   1.00
C1394  C     0.29521   0.22261   0.05344   0.00000  Uiso   1.00
C1395  C     0.30783   0.17435   0.08405   0.00000  Uiso   1.00
C1396  C     0.31437   0.16780   0.09526   0.00000  Uiso   1.00
C1397  C     0.21198   0.27019   0.96029   0.00000  Uiso   1.00
C1398  C     0.20492   0.27726   0.94973   0.00000  Uiso   1.00
C1399  C     0.20413   0.31369   0.90390   0.00000  Uiso   1.00
C1400  C     0.19738   0.32045   0.89295   0.00000  Uiso   1.00
H1401  H     0.29222   0.23946   0.03907   0.00000  Uiso   1.00
H1402  H     0.30484   0.22679   0.05749   0.00000  Uiso   1.00
H1403  H     0.29837   0.16995   0.07981   0.00000  Uiso   1.00
H1404  H     0.30991   0.15841   0.09958   0.00000  Uiso   1.00
H1405  H     0.20778   0.26054   0.96428   0.00000  Uiso   1.00
H1406  H     0.19533   0.27304   0.94564   0.00000  Uiso   1.00
H1407  H     0.21369   0.31799   0.90802   0.00000  Uiso   1.00
H1408  H     0.20178   0.32990   0.88870   0.00000  Uiso   1.00
C1409  C     0.21195   0.77022   0.54302   0.00000  Uiso   1.00
C1410  C     0.20479   0.77739   0.55344   0.00000  Uiso   1.00
C1411  C     0.19217   0.82565   0.58405   0.00000  Uiso   1.00
C1412  C     0.18563   0.83220   0.59526   0.00000  Uiso   1.00
C1413  C     0.28802   0.72981   0.46029   0.00000  Uiso   1.00
C1414  C     0.29508   0.72274   0.44973   0.00000  Uiso   1.00
C1415  C     0.29587   0.68631   0.40390   0.00000  Uiso   1.00
C1416  C     0.30262   0.67955   0.39295   0.00000  Uiso   1.00
H1417  H     0.20778   0.76054   0.53907   0.00000  Uiso   1.00
H1418  H     0.19516   0.77321   0.55749   0.00000  Uiso   1.00
H1419  H     0.20163   0.83005   0.57981   0.00000  Uiso   1.00
H1420  H     0.19009   0.84159   0.59958   0.00000  Uiso   1.00
H1421  H     0.29222   0.73946   0.46428   0.00000  Uiso   1.00
H1422  H     0.30467   0.72696   0.44564   0.00000  Uiso   1.00
H1423  H     0.28631   0.68201   0.40802   0.00000  Uiso   1.00
H1424  H     0.29822   0.67010   0.38870   0.00000  Uiso   1.00
C1425  C     0.21195   0.27022   0.04302   0.00000  Uiso   1.00
C1426  C     0.20479   0.27739   0.05344   0.00000  Uiso   1.00
C1427  C     0.19217   0.32565   0.08405   0.00000  Uiso   1.00
C1428  C     0.18563   0.33220   0.09526   0.00000  Uiso   1.00
C1429  C     0.28802   0.22981   0.96029   0.00000  Uiso   1.00
C1430  C     0.29508   0.22274   0.94973   0.00000  Uiso   1.00
C1431  C     0.29587   0.18631   0.90390   0.00000  Uiso   1.00
C1432  C     0.30262   0.17955   0.89295   0.00000  Uiso   1.00
H1433  H     0.20778   0.26054   0.03907   0.00000  Uiso   1.00
H1434  H     0.19516   0.27321   0.05749   0.00000  Uiso   1.00
H1435  H     0.20163   0.33005   0.07981   0.00000  Uiso   1.00
H1436  H     0.19009   0.34159   0.09958   0.00000  Uiso   1.00
H1437  H     0.29222   0.23946   0.96428   0.00000  Uiso   1.00
H1438  H     0.30467   0.22696   0.94564   0.00000  Uiso   1.00
H1439  H     0.28631   0.18201   0.90802   0.00000  Uiso   1.00
H1440  H     0.29822   0.17010   0.88870   0.00000  Uiso   1.00
C1441  C     0.71195   0.77022   0.04302   0.00000  Uiso   1.00
C1442  C     0.70479   0.77739   0.05344   0.00000  Uiso   1.00
C1443  C     0.69217   0.82565   0.08405   0.00000  Uiso   1.00
C1444  C     0.68563   0.83220   0.09526   0.00000  Uiso   1.00
C1445  C     0.78802   0.72981   0.96029   0.00000  Uiso   1.00
C1446  C     0.79508   0.72274   0.94973   0.00000  Uiso   1.00
C1447  C     0.79587   0.68631   0.90390   0.00000  Uiso   1.00
C1448  C     0.80262   0.67955   0.89295   0.00000  Uiso   1.00
H1449  H     0.70778   0.76054   0.03907   0.00000  Uiso   1.00
H1450  H     0.69516   0.77321   0.05749   0.00000  Uiso   1.00
H1451  H     0.70163   0.83005   0.07981   0.00000  Uiso   1.00
H1452  H     0.69009   0.84159   0.09958   0.00000  Uiso   1.00
H1453  H     0.79222   0.73946   0.96428   0.00000  Uiso   1.00
H1454  H     0.80467   0.72696   0.94564   0.00000  Uiso   1.00
H1455  H     0.78631   0.68201   0.90802   0.00000  Uiso   1.00
H1456  H     0.79822   0.67010   0.88870   0.00000  Uiso   1.00
C1457  C     0.71195   0.27022   0.54302   0.00000  Uiso   1.00
C1458  C     0.70479   0.27739   0.55344   0.00000  Uiso   1.00
C1459  C     0.69217   0.32565   0.58405   0.00000  Uiso   1.00
C1460  C     0.68563   0.33220   0.59526   0.00000  Uiso   1.00
C1461  C     0.78802   0.22981   0.46029   0.00000  Uiso   1.00
C1462  C     0.79508   0.22274   0.44973   0.00000  Uiso   1.00
C1463  C     0.79587   0.18631   0.40390   0.00000  Uiso   1.00
C1464  C     0.80262   0.17955   0.39295   0.00000  Uiso   1.00
H1465  H     0.70778   0.26054   0.53907   0.00000  Uiso   1.00
H1466  H     0.69516   0.27321   0.55749   0.00000  Uiso   1.00
H1467  H     0.70163   0.33005   0.57981   0.00000  Uiso   1.00
H1468  H     0.69009   0.34159   0.59958   0.00000  Uiso   1.00
H1469  H     0.79222   0.23946   0.46428   0.00000  Uiso   1.00
H1470  H     0.80467   0.22696   0.44564   0.00000  Uiso   1.00
H1471  H     0.78631   0.18201   0.40802   0.00000  Uiso   1.00
H1472  H     0.79822   0.17010   0.38870   0.00000  Uiso   1.00
C1473  C     0.71195   0.22978   0.95698   0.00000  Uiso   1.00
C1474  C     0.70479   0.22261   0.94656   0.00000  Uiso   1.00
C1475  C     0.69217   0.17435   0.91595   0.00000  Uiso   1.00
C1476  C     0.68563   0.16780   0.90474   0.00000  Uiso   1.00
C1477  C     0.78802   0.27019   0.03971   0.00000  Uiso   1.00
C1478  C     0.79508   0.27726   0.05027   0.00000  Uiso   1.00
C1479  C     0.79587   0.31369   0.09610   0.00000  Uiso   1.00
C1480  C     0.80262   0.32045   0.10705   0.00000  Uiso   1.00
H1481  H     0.70778   0.23946   0.96093   0.00000  Uiso   1.00
H1482  H     0.69516   0.22679   0.94251   0.00000  Uiso   1.00
H1483  H     0.70163   0.16995   0.92019   0.00000  Uiso   1.00
H1484  H     0.69009   0.15841   0.90042   0.00000  Uiso   1.00
H1485  H     0.79222   0.26054   0.03572   0.00000  Uiso   1.00
H1486  H     0.80467   0.27304   0.05436   0.00000  Uiso   1.00
H1487  H     0.78631   0.31799   0.09198   0.00000  Uiso   1.00
H1488  H     0.79822   0.32990   0.11130   0.00000  Uiso   1.00
C1489  C     0.71195   0.72978   0.45698   0.00000  Uiso   1.00
C1490  C     0.70479   0.72261   0.44656   0.00000  Uiso   1.00
C1491  C     0.69217   0.67435   0.41595   0.00000  Uiso   1.00
C1492  C     0.68563   0.66780   0.40474   0.00000  Uiso   1.00
C1493  C     0.78802   0.77019   0.53971   0.00000  Uiso   1.00
C1494  C     0.79508   0.77726   0.55027   0.00000  Uiso   1.00
C1495  C     0.79587   0.81369   0.59610   0.00000  Uiso   1.00
C1496  C     0.80262   0.82045   0.60705   0.00000  Uiso   1.00
H1497  H     0.70778   0.73946   0.46093   0.00000  Uiso   1.00
H1498  H     0.69516   0.72679   0.44251   0.00000  Uiso   1.00
H1499  H     0.70163   0.66995   0.42019   0.00000  Uiso   1.00
H1500  H     0.69009   0.65841   0.40042   0.00000  Uiso   1.00
H1501  H     0.79222   0.76054   0.53572   0.00000  Uiso   1.00
H1502  H     0.80467   0.77304   0.55436   0.00000  Uiso   1.00
H1503  H     0.78631   0.81799   0.59198   0.00000  Uiso   1.00
H1504  H     0.79822   0.82990   0.61130   0.00000  Uiso   1.00
C1505  C     0.21195   0.22978   0.45698   0.00000  Uiso   1.00
C1506  C     0.20479   0.22261   0.44656   0.00000  Uiso   1.00
C1507  C     0.19217   0.17435   0.41595   0.00000  Uiso   1.00
C1508  C     0.18563   0.16780   0.40474   0.00000  Uiso   1.00
C1509  C     0.28802   0.27019   0.53971   0.00000  Uiso   1.00
C1510  C     0.29508   0.27726   0.55027   0.00000  Uiso   1.00
C1511  C     0.29587   0.31369   0.59610   0.00000  Uiso   1.00
C1512  C     0.30262   0.32045   0.60705   0.00000  Uiso   1.00
H1513  H     0.20778   0.23946   0.46093   0.00000  Uiso   1.00
H1514  H     0.19516   0.22679   0.44251   0.00000  Uiso   1.00
H1515  H     0.20163   0.16995   0.42019   0.00000  Uiso   1.00
H1516  H     0.19009   0.15841   0.40042   0.00000  Uiso   1.00
H1517  H     0.29222   0.26054   0.53572   0.00000  Uiso   1.00
H1518  H     0.30467   0.27304   0.55436   0.00000  Uiso   1.00
H1519  H     0.28631   0.31799   0.59198   0.00000  Uiso   1.00
H1520  H     0.29822   0.32990   0.61130   0.00000  Uiso   1.00
C1521  C     0.21195   0.72978   0.95698   0.00000  Uiso   1.00
C1522  C     0.20479   0.72261   0.94656   0.00000  Uiso   1.00
C1523  C     0.19217   0.67435   0.91595   0.00000  Uiso   1.00
C1524  C     0.18563   0.66780   0.90474   0.00000  Uiso   1.00
C1525  C     0.28802   0.77019   0.03971   0.00000  Uiso   1.00
C1526  C     0.29508   0.77726   0.05027   0.00000  Uiso   1.00
C1527  C     0.29587   0.81369   0.09610   0.00000  Uiso   1.00
C1528  C     0.30262   0.82045   0.10705   0.00000  Uiso   1.00
H1529  H     0.20778   0.73946   0.96093   0.00000  Uiso   1.00
H1530  H     0.19516   0.72679   0.94251   0.00000  Uiso   1.00
H1531  H     0.20163   0.66995   0.92019   0.00000  Uiso   1.00
H1532  H     0.19009   0.65841   0.90042   0.00000  Uiso   1.00
H1533  H     0.29222   0.76054   0.03572   0.00000  Uiso   1.00
H1534  H     0.30467   0.77304   0.05436   0.00000  Uiso   1.00
H1535  H     0.28631   0.81799   0.09198   0.00000  Uiso   1.00
H1536  H     0.29822   0.82990   0.11130   0.00000  Uiso   1.00
C1537  C     0.95698   0.22978   0.71195   0.00000  Uiso   1.00
C1538  C     0.94656   0.22261   0.70479   0.00000  Uiso   1.00
C1539  C     0.91595   0.17435   0.69217   0.00000  Uiso   1.00
C1540  C     0.90474   0.16780   0.68563   0.00000  Uiso   1.00
C1541  C     0.03971   0.27019   0.78802   0.00000  Uiso   1.00
C1542  C     0.05027   0.27726   0.79508   0.00000  Uiso   1.00
C1543  C     0.09610   0.31369   0.79587   0.00000  Uiso   1.00
C1544  C     0.10705   0.32045   0.80262   0.00000  Uiso   1.00
H1545  H     0.96093   0.23946   0.70778   0.00000  Uiso   1.00
H1546  H     0.94251   0.22679   0.69516   0.00000  Uiso   1.00
H1547  H     0.92019   0.16995   0.70163   0.00000  Uiso   1.00
H1548  H     0.90042   0.15841   0.69009   0.00000  Uiso   1.00
H1549  H     0.03572   0.26054   0.79222   0.00000  Uiso   1.00
H1550  H     0.05436   0.27304   0.80467   0.00000  Uiso   1.00
H1551  H     0.09198   0.31799   0.78631   0.00000  Uiso   1.00
H1552  H     0.11130   0.32990   0.79822   0.00000  Uiso   1.00
C1553  C     0.95698   0.72978   0.21195   0.00000  Uiso   1.00
C1554  C     0.94656   0.72261   0.20479   0.00000  Uiso   1.00
C1555  C     0.91595   0.67435   0.19217   0.00000  Uiso   1.00
C1556  C     0.90474   0.66780   0.18563   0.00000  Uiso   1.00
C1557  C     0.03971   0.77019   0.28802   0.00000  Uiso   1.00
C1558  C     0.05027   0.77726   0.29508   0.00000  Uiso   1.00
C1559  C     0.09610   0.81369   0.29587   0.00000  Uiso   1.00
C1560  C     0.10705   0.82045   0.30262   0.00000  Uiso   1.00
H1561  H     0.96093   0.73946   0.20778   0.00000  Uiso   1.00
H1562  H     0.94251   0.72679   0.19516   0.00000  Uiso   1.00
H1563  H     0.92019   0.66995   0.20163   0.00000  Uiso   1.00
H1564  H     0.90042   0.65841   0.19009   0.00000  Uiso   1.00
H1565  H     0.03572   0.76054   0.29222   0.00000  Uiso   1.00
H1566  H     0.05436   0.77304   0.30467   0.00000  Uiso   1.00
H1567  H     0.09198   0.81799   0.28631   0.00000  Uiso   1.00
H1568  H     0.11130   0.82990   0.29822   0.00000  Uiso   1.00
C1569  C     0.45698   0.22978   0.21195   0.00000  Uiso   1.00
C1570  C     0.44656   0.22261   0.20479   0.00000  Uiso   1.00
C1571  C     0.41595   0.17435   0.19217   0.00000  Uiso   1.00
C1572  C     0.40474   0.16780   0.18563   0.00000  Uiso   1.00
C1573  C     0.53971   0.27019   0.28802   0.00000  Uiso   1.00
C1574  C     0.55027   0.27726   0.29508   0.00000  Uiso   1.00
C1575  C     0.59610   0.31369   0.29587   0.00000  Uiso   1.00
C1576  C     0.60705   0.32045   0.30262   0.00000  Uiso   1.00
H1577  H     0.46093   0.23946   0.20778   0.00000  Uiso   1.00
H1578  H     0.44251   0.22679   0.19516   0.00000  Uiso   1.00
H1579  H     0.42019   0.16995   0.20163   0.00000  Uiso   1.00
H1580  H     0.40042   0.15841   0.19009   0.00000  Uiso   1.00
H1581  H     0.53572   0.26054   0.29222   0.00000  Uiso   1.00
H1582  H     0.55436   0.27304   0.30467   0.00000  Uiso   1.00
H1583  H     0.59198   0.31799   0.28631   0.00000  Uiso   1.00
H1584  H     0.61130   0.32990   0.29822   0.00000  Uiso   1.00
C1585  C     0.45698   0.72978   0.71195   0.00000  Uiso   1.00
C1586  C     0.44656   0.72261   0.70479   0.00000  Uiso   1.00
C1587  C     0.41595   0.67435   0.69217   0.00000  Uiso   1.00
C1588  C     0.40474   0.66780   0.68563   0.00000  Uiso   1.00
C1589  C     0.53971   0.77019   0.78802   0.00000  Uiso   1.00
C1590  C     0.55027   0.77726   0.79508   0.00000  Uiso   1.00
C1591  C     0.59610   0.81369   0.79587   0.00000  Uiso   1.00
C1592  C     0.60705   0.82045   0.80262   0.00000  Uiso   1.00
H1593  H     0.46093   0.73946   0.70778   0.00000  Uiso   1.00
H1594  H     0.44251   0.72679   0.69516   0.00000  Uiso   1.00
H1595  H     0.42019   0.66995   0.70163   0.00000  Uiso   1.00
H1596  H     0.40042   0.65841   0.69009   0.00000  Uiso   1.00
H1597  H     0.53572   0.76054   0.79222   0.00000  Uiso   1.00
H1598  H     0.55436   0.77304   0.80467   0.00000  Uiso   1.00
H1599  H     0.59198   0.81799   0.78631   0.00000  Uiso   1.00
H1600  H     0.61130   0.82990   0.79822   0.00000  Uiso   1.00
C1601  C     0.54302   0.77022   0.21195   0.00000  Uiso   1.00
C1602  C     0.55344   0.77739   0.20479   0.00000  Uiso   1.00
C1603  C     0.58405   0.82565   0.19217   0.00000  Uiso   1.00
C1604  C     0.59526   0.83220   0.18563   0.00000  Uiso   1.00
C1605  C     0.46029   0.72981   0.28802   0.00000  Uiso   1.00
C1606  C     0.44973   0.72274   0.29508   0.00000  Uiso   1.00
C1607  C     0.40390   0.68631   0.29587   0.00000  Uiso   1.00
C1608  C     0.39295   0.67955   0.30262   0.00000  Uiso   1.00
H1609  H     0.53907   0.76054   0.20778   0.00000  Uiso   1.00
H1610  H     0.55749   0.77321   0.19516   0.00000  Uiso   1.00
H1611  H     0.57981   0.83005   0.20163   0.00000  Uiso   1.00
H1612  H     0.59958   0.84159   0.19009   0.00000  Uiso   1.00
H1613  H     0.46428   0.73946   0.29222   0.00000  Uiso   1.00
H1614  H     0.44564   0.72696   0.30467   0.00000  Uiso   1.00
H1615  H     0.40802   0.68201   0.28631   0.00000  Uiso   1.00
H1616  H     0.38870   0.67010   0.29822   0.00000  Uiso   1.00
C1617  C     0.54302   0.27022   0.71195   0.00000  Uiso   1.00
C1618  C     0.55344   0.27739   0.70479   0.00000  Uiso   1.00
C1619  C     0.58405   0.32565   0.69217   0.00000  Uiso   1.00
C1620  C     0.59526   0.33220   0.68563   0.00000  Uiso   1.00
C1621  C     0.46029   0.22981   0.78802   0.00000  Uiso   1.00
C1622  C     0.44973   0.22274   0.79508   0.00000  Uiso   1.00
C1623  C     0.40390   0.18631   0.79587   0.00000  Uiso   1.00
C1624  C     0.39295   0.17955   0.80262   0.00000  Uiso   1.00
H1625  H     0.53907   0.26054   0.70778   0.00000  Uiso   1.00
H1626  H     0.55749   0.27321   0.69516   0.00000  Uiso   1.00
H1627  H     0.57981   0.33005   0.70163   0.00000  Uiso   1.00
H1628  H     0.59958   0.34159   0.69009   0.00000  Uiso   1.00
H1629  H     0.46428   0.23946   0.79222   0.00000  Uiso   1.00
H1630  H     0.44564   0.22696   0.80467   0.00000  Uiso   1.00
H1631  H     0.40802   0.18201   0.78631   0.00000  Uiso   1.00
H1632  H     0.38870   0.17010   0.79822   0.00000  Uiso   1.00
C1633  C     0.04302   0.77022   0.71195   0.00000  Uiso   1.00
C1634  C     0.05344   0.77739   0.70479   0.00000  Uiso   1.00
C1635  C     0.08405   0.82565   0.69217   0.00000  Uiso   1.00
C1636  C     0.09526   0.83220   0.68563   0.00000  Uiso   1.00
C1637  C     0.96029   0.72981   0.78802   0.00000  Uiso   1.00
C1638  C     0.94973   0.72274   0.79508   0.00000  Uiso   1.00
C1639  C     0.90390   0.68631   0.79587   0.00000  Uiso   1.00
C1640  C     0.89295   0.67955   0.80262   0.00000  Uiso   1.00
H1641  H     0.03907   0.76054   0.70778   0.00000  Uiso   1.00
H1642  H     0.05749   0.77321   0.69516   0.00000  Uiso   1.00
H1643  H     0.07981   0.83005   0.70163   0.00000  Uiso   1.00
H1644  H     0.09958   0.84159   0.69009   0.00000  Uiso   1.00
H1645  H     0.96428   0.73946   0.79222   0.00000  Uiso   1.00
H1646  H     0.94564   0.72696   0.80467   0.00000  Uiso   1.00
H1647  H     0.90802   0.68201   0.78631   0.00000  Uiso   1.00
H1648  H     0.88870   0.67010   0.79822   0.00000  Uiso   1.00
C1649  C     0.04302   0.27022   0.21195   0.00000  Uiso   1.00
C1650  C     0.05344   0.27739   0.20479   0.00000  Uiso   1.00
C1651  C     0.08405   0.32565   0.19217   0.00000  Uiso   1.00
C1652  C     0.09526   0.33220   0.18563   0.00000  Uiso   1.00
C1653  C     0.96029   0.22981   0.28802   0.00000  Uiso   1.00
C1654  C     0.94973   0.22274   0.29508   0.00000  Uiso   1.00
C1655  C     0.90390   0.18631   0.29587   0.00000  Uiso   1.00
C1656  C     0.89295   0.17955   0.30262   0.00000  Uiso   1.00
H1657  H     0.03907   0.26054   0.20778   0.00000  Uiso   1.00
H1658  H     0.05749   0.27321   0.19516   0.00000  Uiso   1.00
H1659  H     0.07981   0.33005   0.20163   0.00000  Uiso   1.00
H1660  H     0.09958   0.34159   0.19009   0.00000  Uiso   1.00
H1661  H     0.96428   0.23946   0.29222   0.00000  Uiso   1.00
H1662  H     0.94564   0.22696   0.30467   0.00000  Uiso   1.00
H1663  H     0.90802   0.18201   0.28631   0.00000  Uiso   1.00
H1664  H     0.88870   0.17010   0.29822   0.00000  Uiso   1.00
C1665  C     0.04302   0.72978   0.78805   0.00000  Uiso   1.00
C1666  C     0.05344   0.72261   0.79521   0.00000  Uiso   1.00
C1667  C     0.08405   0.67435   0.80783   0.00000  Uiso   1.00
C1668  C     0.09526   0.66780   0.81437   0.00000  Uiso   1.00
C1669  C     0.96029   0.77019   0.71198   0.00000  Uiso   1.00
C1670  C     0.94973   0.77726   0.70492   0.00000  Uiso   1.00
C1671  C     0.90390   0.81369   0.70413   0.00000  Uiso   1.00
C1672  C     0.89295   0.82045   0.69738   0.00000  Uiso   1.00
H1673  H     0.03907   0.73946   0.79222   0.00000  Uiso   1.00
H1674  H     0.05749   0.72679   0.80484   0.00000  Uiso   1.00
H1675  H     0.07981   0.66995   0.79837   0.00000  Uiso   1.00
H1676  H     0.09958   0.65841   0.80991   0.00000  Uiso   1.00
H1677  H     0.96428   0.76054   0.70778   0.00000  Uiso   1.00
H1678  H     0.94564   0.77304   0.69533   0.00000  Uiso   1.00
H1679  H     0.90802   0.81799   0.71369   0.00000  Uiso   1.00
H1680  H     0.88870   0.82990   0.70178   0.00000  Uiso   1.00
C1681  C     0.04302   0.22978   0.28805   0.00000  Uiso   1.00
C1682  C     0.05344   0.22261   0.29521   0.00000  Uiso   1.00
C1683  C     0.08405   0.17435   0.30783   0.00000  Uiso   1.00
C1684  C     0.09526   0.16780   0.31437   0.00000  Uiso   1.00
C1685  C     0.96029   0.27019   0.21198   0.00000  Uiso   1.00
C1686  C     0.94973   0.27726   0.20492   0.00000  Uiso   1.00
C1687  C     0.90390   0.31369   0.20413   0.00000  Uiso   1.00
C1688  C     0.89295   0.32045   0.19738   0.00000  Uiso   1.00
H1689  H     0.03907   0.23946   0.29222   0.00000  Uiso   1.00
H1690  H     0.05749   0.22679   0.30484   0.00000  Uiso   1.00
H1691  H     0.07981   0.16995   0.29837   0.00000  Uiso   1.00
H1692  H     0.09958   0.15841   0.30991   0.00000  Uiso   1.00
H1693  H     0.96428   0.26054   0.20778   0.00000  Uiso   1.00
H1694  H     0.94564   0.27304   0.19533   0.00000  Uiso   1.00
H1695  H     0.90802   0.31799   0.21369   0.00000  Uiso   1.00
H1696  H     0.88870   0.32990   0.20178   0.00000  Uiso   1.00
C1697  C     0.54302   0.72978   0.28805   0.00000  Uiso   1.00
C1698  C     0.55344   0.72261   0.29521   0.00000  Uiso   1.00
C1699  C     0.58405   0.67435   0.30783   0.00000  Uiso   1.00
C1700  C     0.59526   0.66780   0.31437   0.00000  Uiso   1.00
C1701  C     0.46029   0.77019   0.21198   0.00000  Uiso   1.00
C1702  C     0.44973   0.77726   0.20492   0.00000  Uiso   1.00
C1703  C     0.40390   0.81369   0.20413   0.00000  Uiso   1.00
C1704  C     0.39295   0.82045   0.19738   0.00000  Uiso   1.00
H1705  H     0.53907   0.73946   0.29222   0.00000  Uiso   1.00
H1706  H     0.55749   0.72679   0.30484   0.00000  Uiso   1.00
H1707  H     0.57981   0.66995   0.29837   0.00000  Uiso   1.00
H1708  H     0.59958   0.65841   0.30991   0.00000  Uiso   1.00
H1709  H     0.46428   0.76054   0.20778   0.00000  Uiso   1.00
H1710  H     0.44564   0.77304   0.19533   0.00000  Uiso   1.00
H1711  H     0.40802   0.81799   0.21369   0.00000  Uiso   1.00
H1712  H     0.38870   0.82990   0.20178   0.00000  Uiso   1.00
C1713  C     0.54302   0.22978   0.78805   0.00000  Uiso   1.00
C1714  C     0.55344   0.22261   0.79521   0.00000  Uiso   1.00
C1715  C     0.58405   0.17435   0.80783   0.00000  Uiso   1.00
C1716  C     0.59526   0.16780   0.81437   0.00000  Uiso   1.00
C1717  C     0.46029   0.27019   0.71198   0.00000  Uiso   1.00
C1718  C     0.44973   0.27726   0.70492   0.00000  Uiso   1.00
C1719  C     0.40390   0.31369   0.70413   0.00000  Uiso   1.00
C1720  C     0.39295   0.32045   0.69738   0.00000  Uiso   1.00
H1721  H     0.53907   0.23946   0.79222   0.00000  Uiso   1.00
H1722  H     0.55749   0.22679   0.80484   0.00000  Uiso   1.00
H1723  H     0.57981   0.16995   0.79837   0.00000  Uiso   1.00
H1724  H     0.59958   0.15841   0.80991   0.00000  Uiso   1.00
H1725  H     0.46428   0.26054   0.70778   0.00000  Uiso   1.00
H1726  H     0.44564   0.27304   0.69533   0.00000  Uiso   1.00
H1727  H     0.40802   0.31799   0.71369   0.00000  Uiso   1.00
H1728  H     0.38870   0.32990   0.70178   0.00000  Uiso   1.00
C1729  C     0.45698   0.27022   0.28805   0.00000  Uiso   1.00
C1730  C     0.44656   0.27739   0.29521   0.00000  Uiso   1.00
C1731  C     0.41595   0.32565   0.30783   0.00000  Uiso   1.00
C1732  C     0.40474   0.33220   0.31437   0.00000  Uiso   1.00
C1733  C     0.53971   0.22981   0.21198   0.00000  Uiso   1.00
C1734  C     0.55027   0.22274   0.20492   0.00000  Uiso   1.00
C1735  C     0.59610   0.18631   0.20413   0.00000  Uiso   1.00
C1736  C     0.60705   0.17955   0.19738   0.00000  Uiso   1.00
H1737  H     0.46093   0.26054   0.29222   0.00000  Uiso   1.00
H1738  H     0.44251   0.27321   0.30484   0.00000  Uiso   1.00
H1739  H     0.42019   0.33005   0.29837   0.00000  Uiso   1.00
H1740  H     0.40042   0.34159   0.30991   0.00000  Uiso   1.00
H1741  H     0.53572   0.23946   0.20778   0.00000  Uiso   1.00
H1742  H     0.55436   0.22696   0.19533   0.00000  Uiso   1.00
H1743  H     0.59198   0.18201   0.21369   0.00000  Uiso   1.00
H1744  H     0.61130   0.17010   0.20178   0.00000  Uiso   1.00
C1745  C     0.45698   0.77022   0.78805   0.00000  Uiso   1.00
C1746  C     0.44656   0.77739   0.79521   0.00000  Uiso   1.00
C1747  C     0.41595   0.82565   0.80783   0.00000  Uiso   1.00
C1748  C     0.40474   0.83220   0.81437   0.00000  Uiso   1.00
C1749  C     0.53971   0.72981   0.71198   0.00000  Uiso   1.00
C1750  C     0.55027   0.72274   0.70492   0.00000  Uiso   1.00
C1751  C     0.59610   0.68631   0.70413   0.00000  Uiso   1.00
C1752  C     0.60705   0.67955   0.69738   0.00000  Uiso   1.00
H1753  H     0.46093   0.76054   0.79222   0.00000  Uiso   1.00
H1754  H     0.44251   0.77321   0.80484   0.00000  Uiso   1.00
H1755  H     0.42019   0.83005   0.79837   0.00000  Uiso   1.00
H1756  H     0.40042   0.84159   0.80991   0.00000  Uiso   1.00
H1757  H     0.53572   0.73946   0.70778   0.00000  Uiso   1.00
H1758  H     0.55436   0.72696   0.69533   0.00000  Uiso   1.00
H1759  H     0.59198   0.68201   0.71369   0.00000  Uiso   1.00
H1760  H     0.61130   0.67010   0.70178   0.00000  Uiso   1.00
C1761  C     0.95698   0.27022   0.78805   0.00000  Uiso   1.00
C1762  C     0.94656   0.27739   0.79521   0.00000  Uiso   1.00
C1763  C     0.91595   0.32565   0.80783   0.00000  Uiso   1.00
C1764  C     0.90474   0.33220   0.81437   0.00000  Uiso   1.00
C1765  C     0.03971   0.22981   0.71198   0.00000  Uiso   1.00
C1766  C     0.05027   0.22274   0.70492   0.00000  Uiso   1.00
C1767  C     0.09610   0.18631   0.70413   0.00000  Uiso   1.00
C1768  C     0.10705   0.17955   0.69738   0.00000  Uiso   1.00
H1769  H     0.96093   0.26054   0.79222   0.00000  Uiso   1.00
H1770  H     0.94251   0.27321   0.80484   0.00000  Uiso   1.00
H1771  H     0.92019   0.33005   0.79837   0.00000  Uiso   1.00
H1772  H     0.90042   0.34159   0.80991   0.00000  Uiso   1.00
H1773  H     0.03572   0.23946   0.70778   0.00000  Uiso   1.00
H1774  H     0.05436   0.22696   0.69533   0.00000  Uiso   1.00
H1775  H     0.09198   0.18201   0.71369   0.00000  Uiso   1.00
H1776  H     0.11130   0.17010   0.70178   0.00000  Uiso   1.00
C1777  C     0.95698   0.77022   0.28805   0.00000  Uiso   1.00
C1778  C     0.94656   0.77739   0.29521   0.00000  Uiso   1.00
C1779  C     0.91595   0.82565   0.30783   0.00000  Uiso   1.00
C1780  C     0.90474   0.83220   0.31437   0.00000  Uiso   1.00
C1781  C     0.03971   0.72981   0.21198   0.00000  Uiso   1.00
C1782  C     0.05027   0.72274   0.20492   0.00000  Uiso   1.00
C1783  C     0.09610   0.68631   0.20413   0.00000  Uiso   1.00
C1784  C     0.10705   0.67955   0.19738   0.00000  Uiso   1.00
H1785  H     0.96093   0.76054   0.29222   0.00000  Uiso   1.00
H1786  H     0.94251   0.77321   0.30484   0.00000  Uiso   1.00
H1787  H     0.92019   0.83005   0.29837   0.00000  Uiso   1.00
H1788  H     0.90042   0.84159   0.30991   0.00000  Uiso   1.00
H1789  H     0.03572   0.73946   0.20778   0.00000  Uiso   1.00
H1790  H     0.05436   0.72696   0.19533   0.00000  Uiso   1.00
H1791  H     0.09198   0.68201   0.21369   0.00000  Uiso   1.00
H1792  H     0.11130   0.67010   0.20178   0.00000  Uiso   1.00
C1793  C     0.71195   0.95698   0.22978   0.00000  Uiso   1.00
C1794  C     0.70479   0.94656   0.22261   0.00000  Uiso   1.00
C1795  C     0.69217   0.91595   0.17435   0.00000  Uiso   1.00
C1796  C     0.68563   0.90474   0.16780   0.00000  Uiso   1.00
C1797  C     0.78802   0.03971   0.27019   0.00000  Uiso   1.00
C1798  C     0.79508   0.05027   0.27726   0.00000  Uiso   1.00
C1799  C     0.79587   0.09610   0.31369   0.00000  Uiso   1.00
C1800  C     0.80262   0.10705   0.32045   0.00000  Uiso   1.00
H1801  H     0.70778   0.96093   0.23946   0.00000  Uiso   1.00
H1802  H     0.69516   0.94251   0.22679   0.00000  Uiso   1.00
H1803  H     0.70163   0.92019   0.16995   0.00000  Uiso   1.00
H1804  H     0.69009   0.90042   0.15841   0.00000  Uiso   1.00
H1805  H     0.79222   0.03572   0.26054   0.00000  Uiso   1.00
H1806  H     0.80467   0.05436   0.27304   0.00000  Uiso   1.00
H1807  H     0.78631   0.09198   0.31799   0.00000  Uiso   1.00
H1808  H     0.79822   0.11130   0.32990   0.00000  Uiso   1.00
C1809  C     0.71195   0.45698   0.72978   0.00000  Uiso   1.00
C1810  C     0.70479   0.44656   0.72261   0.00000  Uiso   1.00
C1811  C     0.69217   0.41595   0.67435   0.00000  Uiso   1.00
C1812  C     0.68563   0.40474   0.66780   0.00000  Uiso   1.00
C1813  C     0.78802   0.53971   0.77019   0.00000  Uiso   1.00
C1814  C     0.79508   0.55027   0.77726   0.00000  Uiso   1.00
C1815  C     0.79587   0.59610   0.81369   0.00000  Uiso   1.00
C1816  C     0.80262   0.60705   0.82045   0.00000  Uiso   1.00
H1817  H     0.70778   0.46093   0.73946   0.00000  Uiso   1.00
H1818  H     0.69516   0.44251   0.72679   0.00000  Uiso   1.00
H1819  H     0.70163   0.42019   0.66995   0.00000  Uiso   1.00
H1820  H     0.69009   0.40042   0.65841   0.00000  Uiso   1.00
H1821  H     0.79222   0.53572   0.76054   0.00000  Uiso   1.00
H1822  H     0.80467   0.55436   0.77304   0.00000  Uiso   1.00
H1823  H     0.78631   0.59198   0.81799   0.00000  Uiso   1.00
H1824  H     0.79822   0.61130   0.82990   0.00000  Uiso   1.00
C1825  C     0.21195   0.95698   0.72978   0.00000  Uiso   1.00
C1826  C     0.20479   0.94656   0.72261   0.00000  Uiso   1.00
C1827  C     0.19217   0.91595   0.67435   0.00000  Uiso   1.00
C1828  C     0.18563   0.90474   0.66780   0.00000  Uiso   1.00
C1829  C     0.28802   0.03971   0.77019   0.00000  Uiso   1.00
C1830  C     0.29508   0.05027   0.77726   0.00000  Uiso   1.00
C1831  C     0.29587   0.09610   0.81369   0.00000  Uiso   1.00
C1832  C     0.30262   0.10705   0.82045   0.00000  Uiso   1.00
H1833  H     0.20778   0.96093   0.73946   0.00000  Uiso   1.00
H1834  H     0.19516   0.94251   0.72679   0.00000  Uiso   1.00
H1835  H     0.20163   0.92019   0.66995   0.00000  Uiso   1.00
H1836  H     0.19009   0.90042   0.65841   0.00000  Uiso   1.00
H1837  H     0.29222   0.03572   0.76054   0.00000  Uiso   1.00
H1838  H     0.30467   0.05436   0.77304   0.00000  Uiso   1.00
H1839  H     0.28631   0.09198   0.81799   0.00000  Uiso   1.00
H1840  H     0.29822   0.11130   0.82990   0.00000  Uiso   1.00
C1841  C     0.21195   0.45698   0.22978   0.00000  Uiso   1.00
C1842  C     0.20479   0.44656   0.22261   0.00000  Uiso   1.00
C1843  C     0.19217   0.41595   0.17435   0.00000  Uiso   1.00
C1844  C     0.18563   0.40474   0.16780   0.00000  Uiso   1.00
C1845  C     0.28802   0.53971   0.27019   0.00000  Uiso   1.00
C1846  C     0.29508   0.55027   0.27726   0.00000  Uiso   1.00
C1847  C     0.29587   0.59610   0.31369   0.00000  Uiso   1.00
C1848  C     0.30262   0.60705   0.32045   0.00000  Uiso   1.00
H1849  H     0.20778   0.46093   0.23946   0.00000  Uiso   1.00
H1850  H     0.19516   0.44251   0.22679   0.00000  Uiso   1.00
H1851  H     0.20163   0.42019   0.16995   0.00000  Uiso   1.00
H1852  H     0.19009   0.40042   0.15841   0.00000  Uiso   1.00
H1853  H     0.29222   0.53572   0.26054   0.00000  Uiso   1.00
H1854  H     0.30467   0.55436   0.27304   0.00000  Uiso   1.00
H1855  H     0.28631   0.59198   0.31799   0.00000  Uiso   1.00
H1856  H     0.29822   0.61130   0.32990   0.00000  Uiso   1.00
C1857  C     0.21195   0.54302   0.77022   0.00000  Uiso   1.00
C1858  C     0.20479   0.55344   0.77739   0.00000  Uiso   1.00
C1859  C     0.19217   0.58405   0.82565   0.00000  Uiso   1.00
C1860  C     0.18563   0.59526   0.83220   0.00000  Uiso   1.00
C1861  C     0.28802   0.46029   0.72981   0.00000  Uiso   1.00
C1862  C     0.29508   0.44973   0.72274   0.00000  Uiso   1.00
C1863  C     0.29587   0.40390   0.68631   0.00000  Uiso   1.00
C1864  C     0.30262   0.39295   0.67955   0.00000  Uiso   1.00
H1865  H     0.20778   0.53907   0.76054   0.00000  Uiso   1.00
H1866  H     0.19516   0.55749   0.77321   0.00000  Uiso   1.00
H1867  H     0.20163   0.57981   0.83005   0.00000  Uiso   1.00
H1868  H     0.19009   0.59958   0.84159   0.00000  Uiso   1.00
H1869  H     0.29222   0.46428   0.73946   0.00000  Uiso   1.00
H1870  H     0.30467   0.44564   0.72696   0.00000  Uiso   1.00
H1871  H     0.28631   0.40802   0.68201   0.00000  Uiso   1.00
H1872  H     0.29822   0.38870   0.67010   0.00000  Uiso   1.00
C1873  C     0.21195   0.04302   0.27022   0.00000  Uiso   1.00
C1874  C     0.20479   0.05344   0.27739   0.00000  Uiso   1.00
C1875  C     0.19217   0.08405   0.32565   0.00000  Uiso   1.00
C1876  C     0.18563   0.09526   0.33220   0.00000  Uiso   1.00
C1877  C     0.28802   0.96029   0.22981   0.00000  Uiso   1.00
C1878  C     0.29508   0.94973   0.22274   0.00000  Uiso   1.00
C1879  C     0.29587   0.90390   0.18631   0.00000  Uiso   1.00
C1880  C     0.30262   0.89295   0.17955   0.00000  Uiso   1.00
H1881  H     0.20778   0.03907   0.26054   0.00000  Uiso   1.00
H1882  H     0.19516   0.05749   0.27321   0.00000  Uiso   1.00
H1883  H     0.20163   0.07981   0.33005   0.00000  Uiso   1.00
H1884  H     0.19009   0.09958   0.34159   0.00000  Uiso   1.00
H1885  H     0.29222   0.96428   0.23946   0.00000  Uiso   1.00
H1886  H     0.30467   0.94564   0.22696   0.00000  Uiso   1.00
H1887  H     0.28631   0.90802   0.18201   0.00000  Uiso   1.00
H1888  H     0.29822   0.88870   0.17010   0.00000  Uiso   1.00
C1889  C     0.71195   0.54302   0.27022   0.00000  Uiso   1.00
C1890  C     0.70479   0.55344   0.27739   0.00000  Uiso   1.00
C1891  C     0.69217   0.58405   0.32565   0.00000  Uiso   1.00
C1892  C     0.68563   0.59526   0.33220   0.00000  Uiso   1.00
C1893  C     0.78802   0.46029   0.22981   0.00000  Uiso   1.00
C1894  C     0.79508   0.44973   0.22274   0.00000  Uiso   1.00
C1895  C     0.79587   0.40390   0.18631   0.00000  Uiso   1.00
C1896  C     0.80262   0.39295   0.17955   0.00000  Uiso   1.00
H1897  H     0.70778   0.53907   0.26054   0.00000  Uiso   1.00
H1898  H     0.69516   0.55749   0.27321   0.00000  Uiso   1.00
H1899  H     0.70163   0.57981   0.33005   0.00000  Uiso   1.00
H1900  H     0.69009   0.59958   0.34159   0.00000  Uiso   1.00
H1901  H     0.79222   0.46428   0.23946   0.00000  Uiso   1.00
H1902  H     0.80467   0.44564   0.22696   0.00000  Uiso   1.00
H1903  H     0.78631   0.40802   0.18201   0.00000  Uiso   1.00
H1904  H     0.79822   0.38870   0.17010   0.00000  Uiso   1.00
C1905  C     0.71195   0.04302   0.77022   0.00000  Uiso   1.00
C1906  C     0.70479   0.05344   0.77739   0.00000  Uiso   1.00
C1907  C     0.69217   0.08405   0.82565   0.00000  Uiso   1.00
C1908  C     0.68563   0.09526   0.83220   0.00000  Uiso   1.00
C1909  C     0.78802   0.96029   0.72981   0.00000  Uiso   1.00
C1910  C     0.79508   0.94973   0.72274   0.00000  Uiso   1.00
C1911  C     0.79587   0.90390   0.68631   0.00000  Uiso   1.00
C1912  C     0.80262   0.89295   0.67955   0.00000  Uiso   1.00
H1913  H     0.70778   0.03907   0.76054   0.00000  Uiso   1.00
H1914  H     0.69516   0.05749   0.77321   0.00000  Uiso   1.00
H1915  H     0.70163   0.07981   0.83005   0.00000  Uiso   1.00
H1916  H     0.69009   0.09958   0.84159   0.00000  Uiso   1.00
H1917  H     0.79222   0.96428   0.73946   0.00000  Uiso   1.00
H1918  H     0.80467   0.94564   0.72696   0.00000  Uiso   1.00
H1919  H     0.78631   0.90802   0.68201   0.00000  Uiso   1.00
H1920  H     0.79822   0.88870   0.67010   0.00000  Uiso   1.00
C1921  C     0.78805   0.04302   0.72978   0.00000  Uiso   1.00
C1922  C     0.79521   0.05344   0.72261   0.00000  Uiso   1.00
C1923  C     0.80783   0.08405   0.67435   0.00000  Uiso   1.00
C1924  C     0.81437   0.09526   0.66780   0.00000  Uiso   1.00
C1925  C     0.71198   0.96029   0.77019   0.00000  Uiso   1.00
C1926  C     0.70492   0.94973   0.77726   0.00000  Uiso   1.00
C1927  C     0.70413   0.90390   0.81369   0.00000  Uiso   1.00
C1928  C     0.69738   0.89295   0.82045   0.00000  Uiso   1.00
H1929  H     0.79222   0.03907   0.73946   0.00000  Uiso   1.00
H1930  H     0.80484   0.05749   0.72679   0.00000  Uiso   1.00
H1931  H     0.79837   0.07981   0.66995   0.00000  Uiso   1.00
H1932  H     0.80991   0.09958   0.65841   0.00000  Uiso   1.00
H1933  H     0.70778   0.96428   0.76054   0.00000  Uiso   1.00
H1934  H     0.69533   0.94564   0.77304   0.00000  Uiso   1.00
H1935  H     0.71369   0.90802   0.81799   0.00000  Uiso   1.00
H1936  H     0.70178   0.88870   0.82990   0.00000  Uiso   1.00
C1937  C     0.78805   0.54302   0.22978   0.00000  Uiso   1.00
C1938  C     0.79521   0.55344   0.22261   0.00000  Uiso   1.00
C1939  C     0.80783   0.58405   0.17435   0.00000  Uiso   1.00
C1940  C     0.81437   0.59526   0.16780   0.00000  Uiso   1.00
C1941  C     0.71198   0.46029   0.27019   0.00000  Uiso   1.00
C1942  C     0.70492   0.44973   0.27726   0.00000  Uiso   1.00
C1943  C     0.70413   0.40390   0.31369   0.00000  Uiso   1.00
C1944  C     0.69738   0.39295   0.32045   0.00000  Uiso   1.00
H1945  H     0.79222   0.53907   0.23946   0.00000  Uiso   1.00
H1946  H     0.80484   0.55749   0.22679   0.00000  Uiso   1.00
H1947  H     0.79837   0.57981   0.16995   0.00000  Uiso   1.00
H1948  H     0.80991   0.59958   0.15841   0.00000  Uiso   1.00
H1949  H     0.70778   0.46428   0.26054   0.00000  Uiso   1.00
H1950  H     0.69533   0.44564   0.27304   0.00000  Uiso   1.00
H1951  H     0.71369   0.40802   0.31799   0.00000  Uiso   1.00
H1952  H     0.70178   0.38870   0.32990   0.00000  Uiso   1.00
C1953  C     0.28805   0.04302   0.22978   0.00000  Uiso   1.00
C1954  C     0.29521   0.05344   0.22261   0.00000  Uiso   1.00
C1955  C     0.30783   0.08405   0.17435   0.00000  Uiso   1.00
C1956  C     0.31437   0.09526   0.16780   0.00000  Uiso   1.00
C1957  C     0.21198   0.96029   0.27019   0.00000  Uiso   1.00
C1958  C     0.20492   0.94973   0.27726   0.00000  Uiso   1.00
C1959  C     0.20413   0.90390   0.31369   0.00000  Uiso   1.00
C1960  C     0.19738   0.89295   0.32045   0.00000  Uiso   1.00
H1961  H     0.29222   0.03907   0.23946   0.00000  Uiso   1.00
H1962  H     0.30484   0.05749   0.22679   0.00000  Uiso   1.00
H1963  H     0.29837   0.07981   0.16995   0.00000  Uiso   1.00
H1964  H     0.30991   0.09958   0.15841   0.00000  Uiso   1.00
H1965  H     0.20778   0.96428   0.26054   0.00000  Uiso   1.00
H1966  H     0.19533   0.94564   0.27304   0.00000  Uiso   1.00
H1967  H     0.21369   0.90802   0.31799   0.00000  Uiso   1.00
H1968  H     0.20178   0.88870   0.32990   0.00000  Uiso   1.00
C1969  C     0.28805   0.54302   0.72978   0.00000  Uiso   1.00
C1970  C     0.29521   0.55344   0.72261   0.00000  Uiso   1.00
C1971  C     0.30783   0.58405   0.67435   0.00000  Uiso   1.00
C1972  C     0.31437   0.59526   0.66780   0.00000  Uiso   1.00
C1973  C     0.21198   0.46029   0.77019   0.00000  Uiso   1.00
C1974  C     0.20492   0.44973   0.77726   0.00000  Uiso   1.00
C1975  C     0.20413   0.40390   0.81369   0.00000  Uiso   1.00
C1976  C     0.19738   0.39295   0.82045   0.00000  Uiso   1.00
H1977  H     0.29222   0.53907   0.73946   0.00000  Uiso   1.00
H1978  H     0.30484   0.55749   0.72679   0.00000  Uiso   1.00
H1979  H     0.29837   0.57981   0.66995   0.00000  Uiso   1.00
H1980  H     0.30991   0.59958   0.65841   0.00000  Uiso   1.00
H1981  H     0.20778   0.46428   0.76054   0.00000  Uiso   1.00
H1982  H     0.19533   0.44564   0.77304   0.00000  Uiso   1.00
H1983  H     0.21369   0.40802   0.81799   0.00000  Uiso   1.00
H1984  H     0.20178   0.38870   0.82990   0.00000  Uiso   1.00
C1985  C     0.28805   0.45698   0.27022   0.00000  Uiso   1.00
C1986  C     0.29521   0.44656   0.27739   0.00000  Uiso   1.00
C1987  C     0.30783   0.41595   0.32565   0.00000  Uiso   1.00
C1988  C     0.31437   0.40474   0.33220   0.00000  Uiso   1.00
C1989  C     0.21198   0.53971   0.22981   0.00000  Uiso   1.00
C1990  C     0.20492   0.55027   0.22274   0.00000  Uiso   1.00
C1991  C     0.20413   0.59610   0.18631   0.00000  Uiso   1.00
C1992  C     0.19738   0.60705   0.17955   0.00000  Uiso   1.00
H1993  H     0.29222   0.46093   0.26054   0.00000  Uiso   1.00
H1994  H     0.30484   0.44251   0.27321   0.00000  Uiso   1.00
H1995  H     0.29837   0.42019   0.33005   0.00000  Uiso   1.00
H1996  H     0.30991   0.40042   0.34159   0.00000  Uiso   1.00
H1997  H     0.20778   0.53572   0.23946   0.00000  Uiso   1.00
H1998  H     0.19533   0.55436   0.22696   0.00000  Uiso   1.00
H1999  H     0.21369   0.59198   0.18201   0.00000  Uiso   1.00
H2000  H     0.20178   0.61130   0.17010   0.00000  Uiso   1.00
C2001  C     0.28805   0.95698   0.77022   0.00000  Uiso   1.00
C2002  C     0.29521   0.94656   0.77739   0.00000  Uiso   1.00
C2003  C     0.30783   0.91595   0.82565   0.00000  Uiso   1.00
C2004  C     0.31437   0.90474   0.83220   0.00000  Uiso   1.00
C2005  C     0.21198   0.03971   0.72981   0.00000  Uiso   1.00
C2006  C     0.20492   0.05027   0.72274   0.00000  Uiso   1.00
C2007  C     0.20413   0.09610   0.68631   0.00000  Uiso   1.00
C2008  C     0.19738   0.10705   0.67955   0.00000  Uiso   1.00
H2009  H     0.29222   0.96093   0.76054   0.00000  Uiso   1.00
H2010  H     0.30484   0.94251   0.77321   0.00000  Uiso   1.00
H2011  H     0.29837   0.92019   0.83005   0.00000  Uiso   1.00
H2012  H     0.30991   0.90042   0.84159   0.00000  Uiso   1.00
H2013  H     0.20778   0.03572   0.73946   0.00000  Uiso   1.00
H2014  H     0.19533   0.05436   0.72696   0.00000  Uiso   1.00
H2015  H     0.21369   0.09198   0.68201   0.00000  Uiso   1.00
H2016  H     0.20178   0.11130   0.67010   0.00000  Uiso   1.00
C2017  C     0.78805   0.45698   0.77022   0.00000  Uiso   1.00
C2018  C     0.79521   0.44656   0.77739   0.00000  Uiso   1.00
C2019  C     0.80783   0.41595   0.82565   0.00000  Uiso   1.00
C2020  C     0.81437   0.40474   0.83220   0.00000  Uiso   1.00
C2021  C     0.71198   0.53971   0.72981   0.00000  Uiso   1.00
C2022  C     0.70492   0.55027   0.72274   0.00000  Uiso   1.00
C2023  C     0.70413   0.59610   0.68631   0.00000  Uiso   1.00
C2024  C     0.69738   0.60705   0.67955   0.00000  Uiso   1.00
H2025  H     0.79222   0.46093   0.76054   0.00000  Uiso   1.00
H2026  H     0.80484   0.44251   0.77321   0.00000  Uiso   1.00
H2027  H     0.79837   0.42019   0.83005   0.00000  Uiso   1.00
H2028  H     0.80991   0.40042   0.84159   0.00000  Uiso   1.00
H2029  H     0.70778   0.53572   0.73946   0.00000  Uiso   1.00
H2030  H     0.69533   0.55436   0.72696   0.00000  Uiso   1.00
H2031  H     0.71369   0.59198   0.68201   0.00000  Uiso   1.00
H2032  H     0.70178   0.61130   0.67010   0.00000  Uiso   1.00
C2033  C     0.78805   0.95698   0.27022   0.00000  Uiso   1.00
C2034  C     0.79521   0.94656   0.27739   0.00000  Uiso   1.00
C2035  C     0.80783   0.91595   0.32565   0.00000  Uiso   1.00
C2036  C     0.81437   0.90474   0.33220   0.00000  Uiso   1.00
C2037  C     0.71198   0.03971   0.22981   0.00000  Uiso   1.00
C2038  C     0.70492   0.05027   0.22274   0.00000  Uiso   1.00
C2039  C     0.70413   0.09610   0.18631   0.00000  Uiso   1.00
C2040  C     0.69738   0.10705   0.17955   0.00000  Uiso   1.00
H2041  H     0.79222   0.96093   0.26054   0.00000  Uiso   1.00
H2042  H     0.80484   0.94251   0.27321   0.00000  Uiso   1.00
H2043  H     0.79837   0.92019   0.33005   0.00000  Uiso   1.00
H2044  H     0.80991   0.90042   0.34159   0.00000  Uiso   1.00
H2045  H     0.70778   0.03572   0.23946   0.00000  Uiso   1.00
H2046  H     0.69533   0.05436   0.22696   0.00000  Uiso   1.00
H2047  H     0.71369   0.09198   0.18201   0.00000  Uiso   1.00
H2048  H     0.70178   0.11130   0.17010   0.00000  Uiso   1.00
C2049  C     0.22978   0.71195   0.95698   0.00000  Uiso   1.00
C2050  C     0.22261   0.70479   0.94656   0.00000  Uiso   1.00
C2051  C     0.17435   0.69217   0.91595   0.00000  Uiso   1.00
C2052  C     0.16780   0.68563   0.90474   0.00000  Uiso   1.00
C2053  C     0.27019   0.78802   0.03971   0.00000  Uiso   1.00
C2054  C     0.27726   0.79508   0.05027   0.00000  Uiso   1.00
C2055  C     0.31369   0.79587   0.09610   0.00000  Uiso   1.00
C2056  C     0.32045   0.80262   0.10705   0.00000  Uiso   1.00
H2057  H     0.23946   0.70778   0.96093   0.00000  Uiso   1.00
H2058  H     0.22679   0.69516   0.94251   0.00000  Uiso   1.00
H2059  H     0.16995   0.70163   0.92019   0.00000  Uiso   1.00
H2060  H     0.15841   0.69009   0.90042   0.00000  Uiso   1.00
H2061  H     0.26054   0.79222   0.03572   0.00000  Uiso   1.00
H2062  H     0.27304   0.80467   0.05436   0.00000  Uiso   1.00
H2063  H     0.31799   0.78631   0.09198   0.00000  Uiso   1.00
H2064  H     0.32990   0.79822   0.11130   0.00000  Uiso   1.00
C2065  C     0.22978   0.21195   0.45698   0.00000  Uiso   1.00
C2066  C     0.22261   0.20479   0.44656   0.00000  Uiso   1.00
C2067  C     0.17435   0.19217   0.41595   0.00000  Uiso   1.00
C2068  C     0.16780   0.18563   0.40474   0.00000  Uiso   1.00
C2069  C     0.27019   0.28802   0.53971   0.00000  Uiso   1.00
C2070  C     0.27726   0.29508   0.55027   0.00000  Uiso   1.00
C2071  C     0.31369   0.29587   0.59610   0.00000  Uiso   1.00
C2072  C     0.32045   0.30262   0.60705   0.00000  Uiso   1.00
H2073  H     0.23946   0.20778   0.46093   0.00000  Uiso   1.00
H2074  H     0.22679   0.19516   0.44251   0.00000  Uiso   1.00
H2075  H     0.16995   0.20163   0.42019   0.00000  Uiso   1.00
H2076  H     0.15841   0.19009   0.40042   0.00000  Uiso   1.00
H2077  H     0.26054   0.29222   0.53572   0.00000  Uiso   1.00
H2078  H     0.27304   0.30467   0.55436   0.00000  Uiso   1.00
H2079  H     0.31799   0.28631   0.59198   0.00000  Uiso   1.00
H2080  H     0.32990   0.29822   0.61130   0.00000  Uiso   1.00
C2081  C     0.72978   0.71195   0.45698   0.00000  Uiso   1.00
C2082  C     0.72261   0.70479   0.44656   0.00000  Uiso   1.00
C2083  C     0.67435   0.69217   0.41595   0.00000  Uiso   1.00
C2084  C     0.66780   0.68563   0.40474   0.00000  Uiso   1.00
C2085  C     0.77019   0.78802   0.53971   0.00000  Uiso   1.00
C2086  C     0.77726   0.79508   0.55027   0.00000  Uiso   1.00
C2087  C     0.81369   0.79587   0.59610   0.00000  Uiso   1.00
C2088  C     0.82045   0.80262   0.60705   0.00000  Uiso   1.00
H2089  H     0.73946   0.70778   0.46093   0.00000  Uiso   1.00
H2090  H     0.72679   0.69516   0.44251   0.00000  Uiso   1.00
H2091  H     0.66995   0.70163   0.42019   0.00000  Uiso   1.00
H2092  H     0.65841   0.69009   0.40042   0.00000  Uiso   1.00
H2093  H     0.76054   0.79222   0.53572   0.00000  Uiso   1.00
H2094  H     0.77304   0.80467   0.55436   0.00000  Uiso   1.00
H2095  H     0.81799   0.78631   0.59198   0.00000  Uiso   1.00
H2096  H     0.82990   0.79822   0.61130   0.00000  Uiso   1.00
C2097  C     0.72978   0.21195   0.95698   0.00000  Uiso   1.00
C2098  C     0.72261   0.20479   0.94656   0.00000  Uiso   1.00
C2099  C     0.67435   0.19217   0.91595   0.00000  Uiso   1.00
C2100  C     0.66780   0.18563   0.90474   0.00000  Uiso   1.00
C2101  C     0.77019   0.28802   0.03971   0.00000  Uiso   1.00
C2102  C     0.77726   0.29508   0.05027   0.00000  Uiso   1.00
C2103  C     0.81369   0.29587   0.09610   0.00000  Uiso   1.00
C2104  C     0.82045   0.30262   0.10705   0.00000  Uiso   1.00
H2105  H     0.73946   0.20778   0.96093   0.00000  Uiso   1.00
H2106  H     0.72679   0.19516   0.94251   0.00000  Uiso   1.00
H2107  H     0.66995   0.20163   0.92019   0.00000  Uiso   1.00
H2108  H     0.65841   0.19009   0.90042   0.00000  Uiso   1.00
H2109  H     0.76054   0.29222   0.03572   0.00000  Uiso   1.00
H2110  H     0.77304   0.30467   0.05436   0.00000  Uiso   1.00
H2111  H     0.81799   0.28631   0.09198   0.00000  Uiso   1.00
H2112  H     0.82990   0.29822   0.11130   0.00000  Uiso   1.00
C2113  C     0.77022   0.21195   0.54302   0.00000  Uiso   1.00
C2114  C     0.77739   0.20479   0.55344   0.00000  Uiso   1.00
C2115  C     0.82565   0.19217   0.58405   0.00000  Uiso   1.00
C2116  C     0.83220   0.18563   0.59526   0.00000  Uiso   1.00
C2117  C     0.72981   0.28802   0.46029   0.00000  Uiso   1.00
C2118  C     0.72274   0.29508   0.44973   0.00000  Uiso   1.00
C2119  C     0.68631   0.29587   0.40390   0.00000  Uiso   1.00
C2120  C     0.67955   0.30262   0.39295   0.00000  Uiso   1.00
H2121  H     0.76054   0.20778   0.53907   0.00000  Uiso   1.00
H2122  H     0.77321   0.19516   0.55749   0.00000  Uiso   1.00
H2123  H     0.83005   0.20163   0.57981   0.00000  Uiso   1.00
H2124  H     0.84159   0.19009   0.59958   0.00000  Uiso   1.00
H2125  H     0.73946   0.29222   0.46428   0.00000  Uiso   1.00
H2126  H     0.72696   0.30467   0.44564   0.00000  Uiso   1.00
H2127  H     0.68201   0.28631   0.40802   0.00000  Uiso   1.00
H2128  H     0.67010   0.29822   0.38870   0.00000  Uiso   1.00
C2129  C     0.77022   0.71195   0.04302   0.00000  Uiso   1.00
C2130  C     0.77739   0.70479   0.05344   0.00000  Uiso   1.00
C2131  C     0.82565   0.69217   0.08405   0.00000  Uiso   1.00
C2132  C     0.83220   0.68563   0.09526   0.00000  Uiso   1.00
C2133  C     0.72981   0.78802   0.96029   0.00000  Uiso   1.00
C2134  C     0.72274   0.79508   0.94973   0.00000  Uiso   1.00
C2135  C     0.68631   0.79587   0.90390   0.00000  Uiso   1.00
C2136  C     0.67955   0.80262   0.89295   0.00000  Uiso   1.00
H2137  H     0.76054   0.70778   0.03907   0.00000  Uiso   1.00
H2138  H     0.77321   0.69516   0.05749   0.00000  Uiso   1.00
H2139  H     0.83005   0.70163   0.07981   0.00000  Uiso   1.00
H2140  H     0.84159   0.69009   0.09958   0.00000  Uiso   1.00
H2141  H     0.73946   0.79222   0.96428   0.00000  Uiso   1.00
H2142  H     0.72696   0.80467   0.94564   0.00000  Uiso   1.00
H2143  H     0.68201   0.78631   0.90802   0.00000  Uiso   1.00
H2144  H     0.67010   0.79822   0.88870   0.00000  Uiso   1.00
C2145  C     0.27022   0.21195   0.04302   0.00000  Uiso   1.00
C2146  C     0.27739   0.20479   0.05344   0.00000  Uiso   1.00
C2147  C     0.32565   0.19217   0.08405   0.00000  Uiso   1.00
C2148  C     0.33220   0.18563   0.09526   0.00000  Uiso   1.00
C2149  C     0.22981   0.28802   0.96029   0.00000  Uiso   1.00
C2150  C     0.22274   0.29508   0.94973   0.00000  Uiso   1.00
C2151  C     0.18631   0.29587   0.90390   0.00000  Uiso   1.00
C2152  C     0.17955   0.30262   0.89295   0.00000  Uiso   1.00
H2153  H     0.26054   0.20778   0.03907   0.00000  Uiso   1.00
H2154  H     0.27321   0.19516   0.05749   0.00000  Uiso   1.00
H2155  H     0.33005   0.20163   0.07981   0.00000  Uiso   1.00
H2156  H     0.34159   0.19009   0.09958   0.00000  Uiso   1.00
H2157  H     0.23946   0.29222   0.96428   0.00000  Uiso   1.00
H2158  H     0.22696   0.30467   0.94564   0.00000  Uiso   1.00
H2159  H     0.18201   0.28631   0.90802   0.00000  Uiso   1.00
H2160  H     0.17010   0.29822   0.88870   0.00000  Uiso   1.00
C2161  C     0.27022   0.71195   0.54302   0.00000  Uiso   1.00
C2162  C     0.27739   0.70479   0.55344   0.00000  Uiso   1.00
C2163  C     0.32565   0.69217   0.58405   0.00000  Uiso   1.00
C2164  C     0.33220   0.68563   0.59526   0.00000  Uiso   1.00
C2165  C     0.22981   0.78802   0.46029   0.00000  Uiso   1.00
C2166  C     0.22274   0.79508   0.44973   0.00000  Uiso   1.00
C2167  C     0.18631   0.79587   0.40390   0.00000  Uiso   1.00
C2168  C     0.17955   0.80262   0.39295   0.00000  Uiso   1.00
H2169  H     0.26054   0.70778   0.53907   0.00000  Uiso   1.00
H2170  H     0.27321   0.69516   0.55749   0.00000  Uiso   1.00
H2171  H     0.33005   0.70163   0.57981   0.00000  Uiso   1.00
H2172  H     0.34159   0.69009   0.59958   0.00000  Uiso   1.00
H2173  H     0.23946   0.79222   0.46428   0.00000  Uiso   1.00
H2174  H     0.22696   0.80467   0.44564   0.00000  Uiso   1.00
H2175  H     0.18201   0.78631   0.40802   0.00000  Uiso   1.00
H2176  H     0.17010   0.79822   0.38870   0.00000  Uiso   1.00
C2177  C     0.72978   0.78805   0.04302   0.00000  Uiso   1.00
C2178  C     0.72261   0.79521   0.05344   0.00000  Uiso   1.00
C2179  C     0.67435   0.80783   0.08405   0.00000  Uiso   1.00
C2180  C     0.66780   0.81437   0.09526   0.00000  Uiso   1.00
C2181  C     0.77019   0.71198   0.96029   0.00000  Uiso   1.00
C2182  C     0.77726   0.70492   0.94973   0.00000  Uiso   1.00
C2183  C     0.81369   0.70413   0.90390   0.00000  Uiso   1.00
C2184  C     0.82045   0.69738   0.89295   0.00000  Uiso   1.00
H2185  H     0.73946   0.79222   0.03907   0.00000  Uiso   1.00
H2186  H     0.72679   0.80484   0.05749   0.00000  Uiso   1.00
H2187  H     0.66995   0.79837   0.07981   0.00000  Uiso   1.00
H2188  H     0.65841   0.80991   0.09958   0.00000  Uiso   1.00
H2189  H     0.76054   0.70778   0.96428   0.00000  Uiso   1.00
H2190  H     0.77304   0.69533   0.94564   0.00000  Uiso   1.00
H2191  H     0.81799   0.71369   0.90802   0.00000  Uiso   1.00
H2192  H     0.82990   0.70178   0.88870   0.00000  Uiso   1.00
C2193  C     0.72978   0.28805   0.54302   0.00000  Uiso   1.00
C2194  C     0.72261   0.29521   0.55344   0.00000  Uiso   1.00
C2195  C     0.67435   0.30783   0.58405   0.00000  Uiso   1.00
C2196  C     0.66780   0.31437   0.59526   0.00000  Uiso   1.00
C2197  C     0.77019   0.21198   0.46029   0.00000  Uiso   1.00
C2198  C     0.77726   0.20492   0.44973   0.00000  Uiso   1.00
C2199  C     0.81369   0.20413   0.40390   0.00000  Uiso   1.00
C2200  C     0.82045   0.19738   0.39295   0.00000  Uiso   1.00
H2201  H     0.73946   0.29222   0.53907   0.00000  Uiso   1.00
H2202  H     0.72679   0.30484   0.55749   0.00000  Uiso   1.00
H2203  H     0.66995   0.29837   0.57981   0.00000  Uiso   1.00
H2204  H     0.65841   0.30991   0.59958   0.00000  Uiso   1.00
H2205  H     0.76054   0.20778   0.46428   0.00000  Uiso   1.00
H2206  H     0.77304   0.19533   0.44564   0.00000  Uiso   1.00
H2207  H     0.81799   0.21369   0.40802   0.00000  Uiso   1.00
H2208  H     0.82990   0.20178   0.38870   0.00000  Uiso   1.00
C2209  C     0.22978   0.78805   0.54302   0.00000  Uiso   1.00
C2210  C     0.22261   0.79521   0.55344   0.00000  Uiso   1.00
C2211  C     0.17435   0.80783   0.58405   0.00000  Uiso   1.00
C2212  C     0.16780   0.81437   0.59526   0.00000  Uiso   1.00
C2213  C     0.27019   0.71198   0.46029   0.00000  Uiso   1.00
C2214  C     0.27726   0.70492   0.44973   0.00000  Uiso   1.00
C2215  C     0.31369   0.70413   0.40390   0.00000  Uiso   1.00
C2216  C     0.32045   0.69738   0.39295   0.00000  Uiso   1.00
H2217  H     0.23946   0.79222   0.53907   0.00000  Uiso   1.00
H2218  H     0.22679   0.80484   0.55749   0.00000  Uiso   1.00
H2219  H     0.16995   0.79837   0.57981   0.00000  Uiso   1.00
H2220  H     0.15841   0.80991   0.59958   0.00000  Uiso   1.00
H2221  H     0.26054   0.70778   0.46428   0.00000  Uiso   1.00
H2222  H     0.27304   0.69533   0.44564   0.00000  Uiso   1.00
H2223  H     0.31799   0.71369   0.40802   0.00000  Uiso   1.00
H2224  H     0.32990   0.70178   0.38870   0.00000  Uiso   1.00
C2225  C     0.22978   0.28805   0.04302   0.00000  Uiso   1.00
C2226  C     0.22261   0.29521   0.05344   0.00000  Uiso   1.00
C2227  C     0.17435   0.30783   0.08405   0.00000  Uiso   1.00
C2228  C     0.16780   0.31437   0.09526   0.00000  Uiso   1.00
C2229  C     0.27019   0.21198   0.96029   0.00000  Uiso   1.00
C2230  C     0.27726   0.20492   0.94973   0.00000  Uiso   1.00
C2231  C     0.31369   0.20413   0.90390   0.00000  Uiso   1.00
C2232  C     0.32045   0.19738   0.89295   0.00000  Uiso   1.00
H2233  H     0.23946   0.29222   0.03907   0.00000  Uiso   1.00
H2234  H     0.22679   0.30484   0.05749   0.00000  Uiso   1.00
H2235  H     0.16995   0.29837   0.07981   0.00000  Uiso   1.00
H2236  H     0.15841   0.30991   0.09958   0.00000  Uiso   1.00
H2237  H     0.26054   0.20778   0.96428   0.00000  Uiso   1.00
H2238  H     0.27304   0.19533   0.94564   0.00000  Uiso   1.00
H2239  H     0.31799   0.21369   0.90802   0.00000  Uiso   1.00
H2240  H     0.32990   0.20178   0.88870   0.00000  Uiso   1.00
C2241  C     0.27022   0.28805   0.45698   0.00000  Uiso   1.00
C2242  C     0.27739   0.29521   0.44656   0.00000  Uiso   1.00
C2243  C     0.32565   0.30783   0.41595   0.00000  Uiso   1.00
C2244  C     0.33220   0.31437   0.40474   0.00000  Uiso   1.00
C2245  C     0.22981   0.21198   0.53971   0.00000  Uiso   1.00
C2246  C     0.22274   0.20492   0.55027   0.00000  Uiso   1.00
C2247  C     0.18631   0.20413   0.59610   0.00000  Uiso   1.00
C2248  C     0.17955   0.19738   0.60705   0.00000  Uiso   1.00
H2249  H     0.26054   0.29222   0.46093   0.00000  Uiso   1.00
H2250  H     0.27321   0.30484   0.44251   0.00000  Uiso   1.00
H2251  H     0.33005   0.29837   0.42019   0.00000  Uiso   1.00
H2252  H     0.34159   0.30991   0.40042   0.00000  Uiso   1.00
H2253  H     0.23946   0.20778   0.53572   0.00000  Uiso   1.00
H2254  H     0.22696   0.19533   0.55436   0.00000  Uiso   1.00
H2255  H     0.18201   0.21369   0.59198   0.00000  Uiso   1.00
H2256  H     0.17010   0.20178   0.61130   0.00000  Uiso   1.00
C2257  C     0.27022   0.78805   0.95698   0.00000  Uiso   1.00
C2258  C     0.27739   0.79521   0.94656   0.00000  Uiso   1.00
C2259  C     0.32565   0.80783   0.91595   0.00000  Uiso   1.00
C2260  C     0.33220   0.81437   0.90474   0.00000  Uiso   1.00
C2261  C     0.22981   0.71198   0.03971   0.00000  Uiso   1.00
C2262  C     0.22274   0.70492   0.05027   0.00000  Uiso   1.00
C2263  C     0.18631   0.70413   0.09610   0.00000  Uiso   1.00
C2264  C     0.17955   0.69738   0.10705   0.00000  Uiso   1.00
H2265  H     0.26054   0.79222   0.96093   0.00000  Uiso   1.00
H2266  H     0.27321   0.80484   0.94251   0.00000  Uiso   1.00
H2267  H     0.33005   0.79837   0.92019   0.00000  Uiso   1.00
H2268  H     0.34159   0.80991   0.90042   0.00000  Uiso   1.00
H2269  H     0.23946   0.70778   0.03572   0.00000  Uiso   1.00
H2270  H     0.22696   0.69533   0.05436   0.00000  Uiso   1.00
H2271  H     0.18201   0.71369   0.09198   0.00000  Uiso   1.00
H2272  H     0.17010   0.70178   0.11130   0.00000  Uiso   1.00
C2273  C     0.77022   0.28805   0.95698   0.00000  Uiso   1.00
C2274  C     0.77739   0.29521   0.94656   0.00000  Uiso   1.00
C2275  C     0.82565   0.30783   0.91595   0.00000  Uiso   1.00
C2276  C     0.83220   0.31437   0.90474   0.00000  Uiso   1.00
C2277  C     0.72981   0.21198   0.03971   0.00000  Uiso   1.00
C2278  C     0.72274   0.20492   0.05027   0.00000  Uiso   1.00
C2279  C     0.68631   0.20413   0.09610   0.00000  Uiso   1.00
C2280  C     0.67955   0.19738   0.10705   0.00000  Uiso   1.00
H2281  H     0.76054   0.29222   0.96093   0.00000  Uiso   1.00
H2282  H     0.77321   0.30484   0.94251   0.00000  Uiso   1.00
H2283  H     0.83005   0.29837   0.92019   0.00000  Uiso   1.00
H2284  H     0.84159   0.30991   0.90042   0.00000  Uiso   1.00
H2285  H     0.73946   0.20778   0.03572   0.00000  Uiso   1.00
H2286  H     0.72696   0.19533   0.05436   0.00000  Uiso   1.00
H2287  H     0.68201   0.21369   0.09198   0.00000  Uiso   1.00
H2288  H     0.67010   0.20178   0.11130   0.00000  Uiso   1.00
C2289  C     0.77022   0.78805   0.45698   0.00000  Uiso   1.00
C2290  C     0.77739   0.79521   0.44656   0.00000  Uiso   1.00
C2291  C     0.82565   0.80783   0.41595   0.00000  Uiso   1.00
C2292  C     0.83220   0.81437   0.40474   0.00000  Uiso   1.00
C2293  C     0.72981   0.71198   0.53971   0.00000  Uiso   1.00
C2294  C     0.72274   0.70492   0.55027   0.00000  Uiso   1.00
C2295  C     0.68631   0.70413   0.59610   0.00000  Uiso   1.00
C2296  C     0.67955   0.69738   0.60705   0.00000  Uiso   1.00
H2297  H     0.76054   0.79222   0.46093   0.00000  Uiso   1.00
H2298  H     0.77321   0.80484   0.44251   0.00000  Uiso   1.00
H2299  H     0.83005   0.79837   0.42019   0.00000  Uiso   1.00
H2300  H     0.84159   0.80991   0.40042   0.00000  Uiso   1.00
H2301  H     0.73946   0.70778   0.53572   0.00000  Uiso   1.00
H2302  H     0.72696   0.69533   0.55436   0.00000  Uiso   1.00
H2303  H     0.68201   0.71369   0.59198   0.00000  Uiso   1.00
H2304  H     0.67010   0.70178   0.61130   0.00000  Uiso   1.00
C2305  C     0.47978   0.70698   0.03805   0.00000  Uiso   1.00
C2306  C     0.47261   0.69656   0.04521   0.00000  Uiso   1.00
C2307  C     0.42435   0.66595   0.05783   0.00000  Uiso   1.00
C2308  C     0.41780   0.65474   0.06437   0.00000  Uiso   1.00
C2309  C     0.52019   0.78971   0.96198   0.00000  Uiso   1.00
C2310  C     0.52726   0.80027   0.95492   0.00000  Uiso   1.00
C2311  C     0.56369   0.84610   0.95413   0.00000  Uiso   1.00
C2312  C     0.57045   0.85705   0.94738   0.00000  Uiso   1.00
H2313  H     0.48946   0.71093   0.04222   0.00000  Uiso   1.00
H2314  H     0.47679   0.69251   0.05484   0.00000  Uiso   1.00
H2315  H     0.41995   0.67019   0.04837   0.00000  Uiso   1.00
H2316  H     0.40841   0.65042   0.05991   0.00000  Uiso   1.00
H2317  H     0.51054   0.78572   0.95778   0.00000  Uiso   1.00
H2318  H     0.52304   0.80436   0.94533   0.00000  Uiso   1.00
H2319  H     0.56799   0.84198   0.96369   0.00000  Uiso   1.00
H2320  H     0.57990   0.86130   0.95178   0.00000  Uiso   1.00
C2321  C     0.47978   0.20698   0.53805   0.00000  Uiso   1.00
C2322  C     0.47261   0.19656   0.54521   0.00000  Uiso   1.00
C2323  C     0.42435   0.16595   0.55783   0.00000  Uiso   1.00
C2324  C     0.41780   0.15474   0.56437   0.00000  Uiso   1.00
C2325  C     0.52019   0.28971   0.46198   0.00000  Uiso   1.00
C2326  C     0.52726   0.30027   0.45492   0.00000  Uiso   1.00
C2327  C     0.56369   0.34610   0.45413   0.00000  Uiso   1.00
C2328  C     0.57045   0.35705   0.44738   0.00000  Uiso   1.00
H2329  H     0.48946   0.21093   0.54222   0.00000  Uiso   1.00
H2330  H     0.47679   0.19251   0.55484   0.00000  Uiso   1.00
H2331  H     0.41995   0.17019   0.54837   0.00000  Uiso   1.00
H2332  H     0.40841   0.15042   0.55991   0.00000  Uiso   1.00
H2333  H     0.51054   0.28572   0.45778   0.00000  Uiso   1.00
H2334  H     0.52304   0.30436   0.44533   0.00000  Uiso   1.00
H2335  H     0.56799   0.34198   0.46369   0.00000  Uiso   1.00
H2336  H     0.57990   0.36130   0.45178   0.00000  Uiso   1.00
C2337  C     0.97978   0.70698   0.53805   0.00000  Uiso   1.00
C2338  C     0.97261   0.69656   0.54521   0.00000  Uiso   1.00
C2339  C     0.92435   0.66595   0.55783   0.00000  Uiso   1.00
C2340  C     0.91780   0.65474   0.56437   0.00000  Uiso   1.00
C2341  C     0.02019   0.78971   0.46198   0.00000  Uiso   1.00
C2342  C     0.02726   0.80027   0.45492   0.00000  Uiso   1.00
C2343  C     0.06369   0.84610   0.45413   0.00000  Uiso   1.00
C2344  C     0.07045   0.85705   0.44738   0.00000  Uiso   1.00
H2345  H     0.98946   0.71093   0.54222   0.00000  Uiso   1.00
H2346  H     0.97679   0.69251   0.55484   0.00000  Uiso   1.00
H2347  H     0.91995   0.67019   0.54837   0.00000  Uiso   1.00
H2348  H     0.90841   0.65042   0.55991   0.00000  Uiso   1.00
H2349  H     0.01054   0.78572   0.45778   0.00000  Uiso   1.00
H2350  H     0.02304   0.80436   0.44533   0.00000  Uiso   1.00
H2351  H     0.06799   0.84198   0.46369   0.00000  Uiso   1.00
H2352  H     0.07990   0.86130   0.45178   0.00000  Uiso   1.00
C2353  C     0.97978   0.20698   0.03805   0.00000  Uiso   1.00
C2354  C     0.97261   0.19656   0.04521   0.00000  Uiso   1.00
C2355  C     0.92435   0.16595   0.05783   0.00000  Uiso   1.00
C2356  C     0.91780   0.15474   0.06437   0.00000  Uiso   1.00
C2357  C     0.02019   0.28971   0.96198   0.00000  Uiso   1.00
C2358  C     0.02726   0.30027   0.95492   0.00000  Uiso   1.00
C2359  C     0.06369   0.34610   0.95413   0.00000  Uiso   1.00
C2360  C     0.07045   0.35705   0.94738   0.00000  Uiso   1.00
H2361  H     0.98946   0.21093   0.04222   0.00000  Uiso   1.00
H2362  H     0.97679   0.19251   0.05484   0.00000  Uiso   1.00
H2363  H     0.91995   0.17019   0.04837   0.00000  Uiso   1.00
H2364  H     0.90841   0.15042   0.05991   0.00000  Uiso   1.00
H2365  H     0.01054   0.28572   0.95778   0.00000  Uiso   1.00
H2366  H     0.02304   0.30436   0.94533   0.00000  Uiso   1.00
H2367  H     0.06799   0.34198   0.96369   0.00000  Uiso   1.00
H2368  H     0.07990   0.36130   0.95178   0.00000  Uiso   1.00
C2369  C     0.02022   0.29302   0.53805   0.00000  Uiso   1.00
C2370  C     0.02739   0.30344   0.54521   0.00000  Uiso   1.00
C2371  C     0.07565   0.33405   0.55783   0.00000  Uiso   1.00
C2372  C     0.08220   0.34526   0.56437   0.00000  Uiso   1.00
C2373  C     0.97981   0.21029   0.46198   0.00000  Uiso   1.00
C2374  C     0.97274   0.19973   0.45492   0.00000  Uiso   1.00
C2375  C     0.93631   0.15390   0.45413   0.00000  Uiso   1.00
C2376  C     0.92955   0.14295   0.44738   0.00000  Uiso   1.00
H2377  H     0.01054   0.28907   0.54222   0.00000  Uiso   1.00
H2378  H     0.02321   0.30749   0.55484   0.00000  Uiso   1.00
H2379  H     0.08005   0.32981   0.54837   0.00000  Uiso   1.00
H2380  H     0.09159   0.34958   0.55991   0.00000  Uiso   1.00
H2381  H     0.98946   0.21428   0.45778   0.00000  Uiso   1.00
H2382  H     0.97696   0.19564   0.44533   0.00000  Uiso   1.00
H2383  H     0.93201   0.15802   0.46369   0.00000  Uiso   1.00
H2384  H     0.92010   0.13870   0.45178   0.00000  Uiso   1.00
C2385  C     0.02022   0.79302   0.03805   0.00000  Uiso   1.00
C2386  C     0.02739   0.80344   0.04521   0.00000  Uiso   1.00
C2387  C     0.07565   0.83405   0.05783   0.00000  Uiso   1.00
C2388  C     0.08220   0.84526   0.06437   0.00000  Uiso   1.00
C2389  C     0.97981   0.71029   0.96198   0.00000  Uiso   1.00
C2390  C     0.97274   0.69973   0.95492   0.00000  Uiso   1.00
C2391  C     0.93631   0.65390   0.95413   0.00000  Uiso   1.00
C2392  C     0.92955   0.64295   0.94738   0.00000  Uiso   1.00
H2393  H     0.01054   0.78907   0.04222   0.00000  Uiso   1.00
H2394  H     0.02321   0.80749   0.05484   0.00000  Uiso   1.00
H2395  H     0.08005   0.82981   0.04837   0.00000  Uiso   1.00
H2396  H     0.09159   0.84958   0.05991   0.00000  Uiso   1.00
H2397  H     0.98946   0.71428   0.95778   0.00000  Uiso   1.00
H2398  H     0.97696   0.69564   0.94533   0.00000  Uiso   1.00
H2399  H     0.93201   0.65802   0.96369   0.00000  Uiso   1.00
H2400  H     0.92010   0.63870   0.95178   0.00000  Uiso   1.00
C2401  C     0.52022   0.29302   0.03805   0.00000  Uiso   1.00
C2402  C     0.52739   0.30344   0.04521   0.00000  Uiso   1.00
C2403  C     0.57565   0.33405   0.05783   0.00000  Uiso   1.00
C2404  C     0.58220   0.34526   0.06437   0.00000  Uiso   1.00
C2405  C     0.47981   0.21029   0.96198   0.00000  Uiso   1.00
C2406  C     0.47274   0.19973   0.95492   0.00000  Uiso   1.00
C2407  C     0.43631   0.15390   0.95413   0.00000  Uiso   1.00
C2408  C     0.42955   0.14295   0.94738   0.00000  Uiso   1.00
H2409  H     0.51054   0.28907   0.04222   0.00000  Uiso   1.00
H2410  H     0.52321   0.30749   0.05484   0.00000  Uiso   1.00
H2411  H     0.58005   0.32981   0.04837   0.00000  Uiso   1.00
H2412  H     0.59159   0.34958   0.05991   0.00000  Uiso   1.00
H2413  H     0.48946   0.21428   0.95778   0.00000  Uiso   1.00
H2414  H     0.47696   0.19564   0.94533   0.00000  Uiso   1.00
H2415  H     0.43201   0.15802   0.96369   0.00000  Uiso   1.00
H2416  H     0.42010   0.13870   0.95178   0.00000  Uiso   1.00
C2417  C     0.52022   0.79302   0.53805   0.00000  Uiso   1.00
C2418  C     0.52739   0.80344   0.54521   0.00000  Uiso   1.00
C2419  C     0.57565   0.83405   0.55783   0.00000  Uiso   1.00
C2420  C     0.58220   0.84526   0.56437   0.00000  Uiso   1.00
C2421  C     0.47981   0.71029   0.46198   0.00000  Uiso   1.00
C2422  C     0.47274   0.69973   0.45492   0.00000  Uiso   1.00
C2423  C     0.43631   0.65390   0.45413   0.00000  Uiso   1.00
C2424  C     0.42955   0.64295   0.44738   0.00000  Uiso   1.00
H2425  H     0.51054   0.78907   0.54222   0.00000  Uiso   1.00
H2426  H     0.52321   0.80749   0.55484   0.00000  Uiso   1.00
H2427  H     0.58005   0.82981   0.54837   0.00000  Uiso   1.00
H2428  H     0.59159   0.84958   0.55991   0.00000  Uiso   1.00
H2429  H     0.48946   0.71428   0.45778   0.00000  Uiso   1.00
H2430  H     0.47696   0.69564   0.44533   0.00000  Uiso   1.00
H2431  H     0.43201   0.65802   0.46369   0.00000  Uiso   1.00
H2432  H     0.42010   0.63870   0.45178   0.00000  Uiso   1.00
C2433  C     0.97978   0.79302   0.96195   0.00000  Uiso   1.00
C2434  C     0.97261   0.80344   0.95479   0.00000  Uiso   1.00
C2435  C     0.92435   0.83405   0.94217   0.00000  Uiso   1.00
C2436  C     0.91780   0.84526   0.93563   0.00000  Uiso   1.00
C2437  C     0.02019   0.71029   0.03802   0.00000  Uiso   1.00
C2438  C     0.02726   0.69973   0.04508   0.00000  Uiso   1.00
C2439  C     0.06369   0.65390   0.04587   0.00000  Uiso   1.00
C2440  C     0.07045   0.64295   0.05262   0.00000  Uiso   1.00
H2441  H     0.98946   0.78907   0.95778   0.00000  Uiso   1.00
H2442  H     0.97679   0.80749   0.94516   0.00000  Uiso   1.00
H2443  H     0.91995   0.82981   0.95163   0.00000  Uiso   1.00
H2444  H     0.90841   0.84958   0.94009   0.00000  Uiso   1.00
H2445  H     0.01054   0.71428   0.04222   0.00000  Uiso   1.00
H2446  H     0.02304   0.69564   0.05467   0.00000  Uiso   1.00
H2447  H     0.06799   0.65802   0.03631   0.00000  Uiso   1.00
H2448  H     0.07990   0.63870   0.04822   0.00000  Uiso   1.00
C2449  C     0.97978   0.29302   0.46195   0.00000  Uiso   1.00
C2450  C     0.97261   0.30344   0.45479   0.00000  Uiso   1.00
C2451  C     0.92435   0.33405   0.44217   0.00000  Uiso   1.00
C2452  C     0.91780   0.34526   0.43563   0.00000  Uiso   1.00
C2453  C     0.02019   0.21029   0.53802   0.00000  Uiso   1.00
C2454  C     0.02726   0.19973   0.54508   0.00000  Uiso   1.00
C2455  C     0.06369   0.15390   0.54587   0.00000  Uiso   1.00
C2456  C     0.07045   0.14295   0.55262   0.00000  Uiso   1.00
H2457  H     0.98946   0.28907   0.45778   0.00000  Uiso   1.00
H2458  H     0.97679   0.30749   0.44516   0.00000  Uiso   1.00
H2459  H     0.91995   0.32981   0.45163   0.00000  Uiso   1.00
H2460  H     0.90841   0.34958   0.44009   0.00000  Uiso   1.00
H2461  H     0.01054   0.21428   0.54222   0.00000  Uiso   1.00
H2462  H     0.02304   0.19564   0.55467   0.00000  Uiso   1.00
H2463  H     0.06799   0.15802   0.53631   0.00000  Uiso   1.00
H2464  H     0.07990   0.13870   0.54822   0.00000  Uiso   1.00
C2465  C     0.47978   0.79302   0.46195   0.00000  Uiso   1.00
C2466  C     0.47261   0.80344   0.45479   0.00000  Uiso   1.00
C2467  C     0.42435   0.83405   0.44217   0.00000  Uiso   1.00
C2468  C     0.41780   0.84526   0.43563   0.00000  Uiso   1.00
C2469  C     0.52019   0.71029   0.53802   0.00000  Uiso   1.00
C2470  C     0.52726   0.69973   0.54508   0.00000  Uiso   1.00
C2471  C     0.56369   0.65390   0.54587   0.00000  Uiso   1.00
C2472  C     0.57045   0.64295   0.55262   0.00000  Uiso   1.00
H2473  H     0.48946   0.78907   0.45778   0.00000  Uiso   1.00
H2474  H     0.47679   0.80749   0.44516   0.00000  Uiso   1.00
H2475  H     0.41995   0.82981   0.45163   0.00000  Uiso   1.00
H2476  H     0.40841   0.84958   0.44009   0.00000  Uiso   1.00
H2477  H     0.51054   0.71428   0.54222   0.00000  Uiso   1.00
H2478  H     0.52304   0.69564   0.55467   0.00000  Uiso   1.00
H2479  H     0.56799   0.65802   0.53631   0.00000  Uiso   1.00
H2480  H     0.57990   0.63870   0.54822   0.00000  Uiso   1.00
C2481  C     0.47978   0.29302   0.96195   0.00000  Uiso   1.00
C2482  C     0.47261   0.30344   0.95479   0.00000  Uiso   1.00
C2483  C     0.42435   0.33405   0.94217   0.00000  Uiso   1.00
C2484  C     0.41780   0.34526   0.93563   0.00000  Uiso   1.00
C2485  C     0.52019   0.21029   0.03802   0.00000  Uiso   1.00
C2486  C     0.52726   0.19973   0.04508   0.00000  Uiso   1.00
C2487  C     0.56369   0.15390   0.04587   0.00000  Uiso   1.00
C2488  C     0.57045   0.14295   0.05262   0.00000  Uiso   1.00
H2489  H     0.48946   0.28907   0.95778   0.00000  Uiso   1.00
H2490  H     0.47679   0.30749   0.94516   0.00000  Uiso   1.00
H2491  H     0.41995   0.32981   0.95163   0.00000  Uiso   1.00
H2492  H     0.40841   0.34958   0.94009   0.00000  Uiso   1.00
H2493  H     0.51054   0.21428   0.04222   0.00000  Uiso   1.00
H2494  H     0.52304   0.19564   0.05467   0.00000  Uiso   1.00
H2495  H     0.56799   0.15802   0.03631   0.00000  Uiso   1.00
H2496  H     0.57990   0.13870   0.04822   0.00000  Uiso   1.00
C2497  C     0.52022   0.20698   0.46195   0.00000  Uiso   1.00
C2498  C     0.52739   0.19656   0.45479   0.00000  Uiso   1.00
C2499  C     0.57565   0.16595   0.44217   0.00000  Uiso   1.00
C2500  C     0.58220   0.15474   0.43563   0.00000  Uiso   1.00
C2501  C     0.47981   0.28971   0.53802   0.00000  Uiso   1.00
C2502  C     0.47274   0.30027   0.54508   0.00000  Uiso   1.00
C2503  C     0.43631   0.34610   0.54587   0.00000  Uiso   1.00
C2504  C     0.42955   0.35705   0.55262   0.00000  Uiso   1.00
H2505  H     0.51054   0.21093   0.45778   0.00000  Uiso   1.00
H2506  H     0.52321   0.19251   0.44516   0.00000  Uiso   1.00
H2507  H     0.58005   0.17019   0.45163   0.00000  Uiso   1.00
H2508  H     0.59159   0.15042   0.44009   0.00000  Uiso   1.00
H2509  H     0.48946   0.28572   0.54222   0.00000  Uiso   1.00
H2510  H     0.47696   0.30436   0.55467   0.00000  Uiso   1.00
H2511  H     0.43201   0.34198   0.53631   0.00000  Uiso   1.00
H2512  H     0.42010   0.36130   0.54822   0.00000  Uiso   1.00
C2513  C     0.52022   0.70698   0.96195   0.00000  Uiso   1.00
C2514  C     0.52739   0.69656   0.95479   0.00000  Uiso   1.00
C2515  C     0.57565   0.66595   0.94217   0.00000  Uiso   1.00
C2516  C     0.58220   0.65474   0.93563   0.00000  Uiso   1.00
C2517  C     0.47981   0.78971   0.03802   0.00000  Uiso   1.00
C2518  C     0.47274   0.80027   0.04508   0.00000  Uiso   1.00
C2519  C     0.43631   0.84610   0.04587   0.00000  Uiso   1.00
C2520  C     0.42955   0.85705   0.05262   0.00000  Uiso   1.00
H2521  H     0.51054   0.71093   0.95778   0.00000  Uiso   1.00
H2522  H     0.52321   0.69251   0.94516   0.00000  Uiso   1.00
H2523  H     0.58005   0.67019   0.95163   0.00000  Uiso   1.00
H2524  H     0.59159   0.65042   0.94009   0.00000  Uiso   1.00
H2525  H     0.48946   0.78572   0.04222   0.00000  Uiso   1.00
H2526  H     0.47696   0.80436   0.05467   0.00000  Uiso   1.00
H2527  H     0.43201   0.84198   0.03631   0.00000  Uiso   1.00
H2528  H     0.42010   0.86130   0.04822   0.00000  Uiso   1.00
C2529  C     0.02022   0.20698   0.96195   0.00000  Uiso   1.00
C2530  C     0.02739   0.19656   0.95479   0.00000  Uiso   1.00
C2531  C     0.07565   0.16595   0.94217   0.00000  Uiso   1.00
C2532  C     0.08220   0.15474   0.93563   0.00000  Uiso   1.00
C2533  C     0.97981   0.28971   0.03802   0.00000  Uiso   1.00
C2534  C     0.97274   0.30027   0.04508   0.00000  Uiso   1.00
C2535  C     0.93631   0.34610   0.04587   0.00000  Uiso   1.00
C2536  C     0.92955   0.35705   0.05262   0.00000  Uiso   1.00
H2537  H     0.01054   0.21093   0.95778   0.00000  Uiso   1.00
H2538  H     0.02321   0.19251   0.94516   0.00000  Uiso   1.00
H2539  H     0.08005   0.17019   0.95163   0.00000  Uiso   1.00
H2540  H     0.09159   0.15042   0.94009   0.00000  Uiso   1.00
H2541  H     0.98946   0.28572   0.04222   0.00000  Uiso   1.00
H2542  H     0.97696   0.30436   0.05467   0.00000  Uiso   1.00
H2543  H     0.93201   0.34198   0.03631   0.00000  Uiso   1.00
H2544  H     0.92010   0.36130   0.04822   0.00000  Uiso   1.00
C2545  C     0.02022   0.70698   0.46195   0.00000  Uiso   1.00
C2546  C     0.02739   0.69656   0.45479   0.00000  Uiso   1.00
C2547  C     0.07565   0.66595   0.44217   0.00000  Uiso   1.00
C2548  C     0.08220   0.65474   0.43563   0.00000  Uiso   1.00
C2549  C     0.97981   0.78971   0.53802   0.00000  Uiso   1.00
C2550  C     0.97274   0.80027   0.54508   0.00000  Uiso   1.00
C2551  C     0.93631   0.84610   0.54587   0.00000  Uiso   1.00
C2552  C     0.92955   0.85705   0.55262   0.00000  Uiso   1.00
H2553  H     0.01054   0.71093   0.45778   0.00000  Uiso   1.00
H2554  H     0.02321   0.69251   0.44516   0.00000  Uiso   1.00
H2555  H     0.08005   0.67019   0.45163   0.00000  Uiso   1.00
H2556  H     0.09159   0.65042   0.44009   0.00000  Uiso   1.00
H2557  H     0.98946   0.78572   0.54222   0.00000  Uiso   1.00
H2558  H     0.97696   0.80436   0.55467   0.00000  Uiso   1.00
H2559  H     0.93201   0.84198   0.53631   0.00000  Uiso   1.00
H2560  H     0.92010   0.86130   0.54822   0.00000  Uiso   1.00
C2561  C     0.20698   0.46195   0.52022   0.00000  Uiso   1.00
C2562  C     0.19656   0.45479   0.52739   0.00000  Uiso   1.00
C2563  C     0.16595   0.44217   0.57565   0.00000  Uiso   1.00
C2564  C     0.15474   0.43563   0.58220   0.00000  Uiso   1.00
C2565  C     0.28971   0.53802   0.47981   0.00000  Uiso   1.00
C2566  C     0.30027   0.54508   0.47274   0.00000  Uiso   1.00
C2567  C     0.34610   0.54587   0.43631   0.00000  Uiso   1.00
C2568  C     0.35705   0.55262   0.42955   0.00000  Uiso   1.00
H2569  H     0.21093   0.45778   0.51054   0.00000  Uiso   1.00
H2570  H     0.19251   0.44516   0.52321   0.00000  Uiso   1.00
H2571  H     0.17019   0.45163   0.58005   0.00000  Uiso   1.00
H2572  H     0.15042   0.44009   0.59159   0.00000  Uiso   1.00
H2573  H     0.28572   0.54222   0.48946   0.00000  Uiso   1.00
H2574  H     0.30436   0.55467   0.47696   0.00000  Uiso   1.00
H2575  H     0.34198   0.53631   0.43201   0.00000  Uiso   1.00
H2576  H     0.36130   0.54822   0.42010   0.00000  Uiso   1.00
C2577  C     0.20698   0.96195   0.02022   0.00000  Uiso   1.00
C2578  C     0.19656   0.95479   0.02739   0.00000  Uiso   1.00
C2579  C     0.16595   0.94217   0.07565   0.00000  Uiso   1.00
C2580  C     0.15474   0.93563   0.08220   0.00000  Uiso   1.00
C2581  C     0.28971   0.03802   0.97981   0.00000  Uiso   1.00
C2582  C     0.30027   0.04508   0.97274   0.00000  Uiso   1.00
C2583  C     0.34610   0.04587   0.93631   0.00000  Uiso   1.00
C2584  C     0.35705   0.05262   0.92955   0.00000  Uiso   1.00
H2585  H     0.21093   0.95778   0.01054   0.00000  Uiso   1.00
H2586  H     0.19251   0.94516   0.02321   0.00000  Uiso   1.00
H2587  H     0.17019   0.95163   0.08005   0.00000  Uiso   1.00
H2588  H     0.15042   0.94009   0.09159   0.00000  Uiso   1.00
H2589  H     0.28572   0.04222   0.98946   0.00000  Uiso   1.00
H2590  H     0.30436   0.05467   0.97696   0.00000  Uiso   1.00
H2591  H     0.34198   0.03631   0.93201   0.00000  Uiso   1.00
H2592  H     0.36130   0.04822   0.92010   0.00000  Uiso   1.00
C2593  C     0.70698   0.46195   0.02022   0.00000  Uiso   1.00
C2594  C     0.69656   0.45479   0.02739   0.00000  Uiso   1.00
C2595  C     0.66595   0.44217   0.07565   0.00000  Uiso   1.00
C2596  C     0.65474   0.43563   0.08220   0.00000  Uiso   1.00
C2597  C     0.78971   0.53802   0.97981   0.00000  Uiso   1.00
C2598  C     0.80027   0.54508   0.97274   0.00000  Uiso   1.00
C2599  C     0.84610   0.54587   0.93631   0.00000  Uiso   1.00
C2600  C     0.85705   0.55262   0.92955   0.00000  Uiso   1.00
H2601  H     0.71093   0.45778   0.01054   0.00000  Uiso   1.00
H2602  H     0.69251   0.44516   0.02321   0.00000  Uiso   1.00
H2603  H     0.67019   0.45163   0.08005   0.00000  Uiso   1.00
H2604  H     0.65042   0.44009   0.09159   0.00000  Uiso   1.00
H2605  H     0.78572   0.54222   0.98946   0.00000  Uiso   1.00
H2606  H     0.80436   0.55467   0.97696   0.00000  Uiso   1.00
H2607  H     0.84198   0.53631   0.93201   0.00000  Uiso   1.00
H2608  H     0.86130   0.54822   0.92010   0.00000  Uiso   1.00
C2609  C     0.70698   0.96195   0.52022   0.00000  Uiso   1.00
C2610  C     0.69656   0.95479   0.52739   0.00000  Uiso   1.00
C2611  C     0.66595   0.94217   0.57565   0.00000  Uiso   1.00
C2612  C     0.65474   0.93563   0.58220   0.00000  Uiso   1.00
C2613  C     0.78971   0.03802   0.47981   0.00000  Uiso   1.00
C2614  C     0.80027   0.04508   0.47274   0.00000  Uiso   1.00
C2615  C     0.84610   0.04587   0.43631   0.00000  Uiso   1.00
C2616  C     0.85705   0.05262   0.42955   0.00000  Uiso   1.00
H2617  H     0.71093   0.95778   0.51054   0.00000  Uiso   1.00
H2618  H     0.69251   0.94516   0.52321   0.00000  Uiso   1.00
H2619  H     0.67019   0.95163   0.58005   0.00000  Uiso   1.00
H2620  H     0.65042   0.94009   0.59159   0.00000  Uiso   1.00
H2621  H     0.78572   0.04222   0.48946   0.00000  Uiso   1.00
H2622  H     0.80436   0.05467   0.47696   0.00000  Uiso   1.00
H2623  H     0.84198   0.03631   0.43201   0.00000  Uiso   1.00
H2624  H     0.86130   0.04822   0.42010   0.00000  Uiso   1.00
C2625  C     0.79302   0.96195   0.97978   0.00000  Uiso   1.00
C2626  C     0.80344   0.95479   0.97261   0.00000  Uiso   1.00
C2627  C     0.83405   0.94217   0.92435   0.00000  Uiso   1.00
C2628  C     0.84526   0.93563   0.91780   0.00000  Uiso   1.00
C2629  C     0.71029   0.03802   0.02019   0.00000  Uiso   1.00
C2630  C     0.69973   0.04508   0.02726   0.00000  Uiso   1.00
C2631  C     0.65390   0.04587   0.06369   0.00000  Uiso   1.00
C2632  C     0.64295   0.05262   0.07045   0.00000  Uiso   1.00
H2633  H     0.78907   0.95778   0.98946   0.00000  Uiso   1.00
H2634  H     0.80749   0.94516   0.97679   0.00000  Uiso   1.00
H2635  H     0.82981   0.95163   0.91995   0.00000  Uiso   1.00
H2636  H     0.84958   0.94009   0.90841   0.00000  Uiso   1.00
H2637  H     0.71428   0.04222   0.01054   0.00000  Uiso   1.00
H2638  H     0.69564   0.05467   0.02304   0.00000  Uiso   1.00
H2639  H     0.65802   0.03631   0.06799   0.00000  Uiso   1.00
H2640  H     0.63870   0.04822   0.07990   0.00000  Uiso   1.00
C2641  C     0.79302   0.46195   0.47978   0.00000  Uiso   1.00
C2642  C     0.80344   0.45479   0.47261   0.00000  Uiso   1.00
C2643  C     0.83405   0.44217   0.42435   0.00000  Uiso   1.00
C2644  C     0.84526   0.43563   0.41780   0.00000  Uiso   1.00
C2645  C     0.71029   0.53802   0.52019   0.00000  Uiso   1.00
C2646  C     0.69973   0.54508   0.52726   0.00000  Uiso   1.00
C2647  C     0.65390   0.54587   0.56369   0.00000  Uiso   1.00
C2648  C     0.64295   0.55262   0.57045   0.00000  Uiso   1.00
H2649  H     0.78907   0.45778   0.48946   0.00000  Uiso   1.00
H2650  H     0.80749   0.44516   0.47679   0.00000  Uiso   1.00
H2651  H     0.82981   0.45163   0.41995   0.00000  Uiso   1.00
H2652  H     0.84958   0.44009   0.40841   0.00000  Uiso   1.00
H2653  H     0.71428   0.54222   0.51054   0.00000  Uiso   1.00
H2654  H     0.69564   0.55467   0.52304   0.00000  Uiso   1.00
H2655  H     0.65802   0.53631   0.56799   0.00000  Uiso   1.00
H2656  H     0.63870   0.54822   0.57990   0.00000  Uiso   1.00
C2657  C     0.29302   0.96195   0.47978   0.00000  Uiso   1.00
C2658  C     0.30344   0.95479   0.47261   0.00000  Uiso   1.00
C2659  C     0.33405   0.94217   0.42435   0.00000  Uiso   1.00
C2660  C     0.34526   0.93563   0.41780   0.00000  Uiso   1.00
C2661  C     0.21029   0.03802   0.52019   0.00000  Uiso   1.00
C2662  C     0.19973   0.04508   0.52726   0.00000  Uiso   1.00
C2663  C     0.15390   0.04587   0.56369   0.00000  Uiso   1.00
C2664  C     0.14295   0.05262   0.57045   0.00000  Uiso   1.00
H2665  H     0.28907   0.95778   0.48946   0.00000  Uiso   1.00
H2666  H     0.30749   0.94516   0.47679   0.00000  Uiso   1.00
H2667  H     0.32981   0.95163   0.41995   0.00000  Uiso   1.00
H2668  H     0.34958   0.94009   0.40841   0.00000  Uiso   1.00
H2669  H     0.21428   0.04222   0.51054   0.00000  Uiso   1.00
H2670  H     0.19564   0.05467   0.52304   0.00000  Uiso   1.00
H2671  H     0.15802   0.03631   0.56799   0.00000  Uiso   1.00
H2672  H     0.13870   0.04822   0.57990   0.00000  Uiso   1.00
C2673  C     0.29302   0.46195   0.97978   0.00000  Uiso   1.00
C2674  C     0.30344   0.45479   0.97261   0.00000  Uiso   1.00
C2675  C     0.33405   0.44217   0.92435   0.00000  Uiso   1.00
C2676  C     0.34526   0.43563   0.91780   0.00000  Uiso   1.00
C2677  C     0.21029   0.53802   0.02019   0.00000  Uiso   1.00
C2678  C     0.19973   0.54508   0.02726   0.00000  Uiso   1.00
C2679  C     0.15390   0.54587   0.06369   0.00000  Uiso   1.00
C2680  C     0.14295   0.55262   0.07045   0.00000  Uiso   1.00
H2681  H     0.28907   0.45778   0.98946   0.00000  Uiso   1.00
H2682  H     0.30749   0.44516   0.97679   0.00000  Uiso   1.00
H2683  H     0.32981   0.45163   0.91995   0.00000  Uiso   1.00
H2684  H     0.34958   0.44009   0.90841   0.00000  Uiso   1.00
H2685  H     0.21428   0.54222   0.01054   0.00000  Uiso   1.00
H2686  H     0.19564   0.55467   0.02304   0.00000  Uiso   1.00
H2687  H     0.15802   0.53631   0.06799   0.00000  Uiso   1.00
H2688  H     0.13870   0.54822   0.07990   0.00000  Uiso   1.00
C2689  C     0.29302   0.53805   0.02022   0.00000  Uiso   1.00
C2690  C     0.30344   0.54521   0.02739   0.00000  Uiso   1.00
C2691  C     0.33405   0.55783   0.07565   0.00000  Uiso   1.00
C2692  C     0.34526   0.56437   0.08220   0.00000  Uiso   1.00
C2693  C     0.21029   0.46198   0.97981   0.00000  Uiso   1.00
C2694  C     0.19973   0.45492   0.97274   0.00000  Uiso   1.00
C2695  C     0.15390   0.45413   0.93631   0.00000  Uiso   1.00
C2696  C     0.14295   0.44738   0.92955   0.00000  Uiso   1.00
H2697  H     0.28907   0.54222   0.01054   0.00000  Uiso   1.00
H2698  H     0.30749   0.55484   0.02321   0.00000  Uiso   1.00
H2699  H     0.32981   0.54837   0.08005   0.00000  Uiso   1.00
H2700  H     0.34958   0.55991   0.09159   0.00000  Uiso   1.00
H2701  H     0.21428   0.45778   0.98946   0.00000  Uiso   1.00
H2702  H     0.19564   0.44533   0.97696   0.00000  Uiso   1.00
H2703  H     0.15802   0.46369   0.93201   0.00000  Uiso   1.00
H2704  H     0.13870   0.45178   0.92010   0.00000  Uiso   1.00
C2705  C     0.29302   0.03805   0.52022   0.00000  Uiso   1.00
C2706  C     0.30344   0.04521   0.52739   0.00000  Uiso   1.00
C2707  C     0.33405   0.05783   0.57565   0.00000  Uiso   1.00
C2708  C     0.34526   0.06437   0.58220   0.00000  Uiso   1.00
C2709  C     0.21029   0.96198   0.47981   0.00000  Uiso   1.00
C2710  C     0.19973   0.95492   0.47274   0.00000  Uiso   1.00
C2711  C     0.15390   0.95413   0.43631   0.00000  Uiso   1.00
C2712  C     0.14295   0.94738   0.42955   0.00000  Uiso   1.00
H2713  H     0.28907   0.04222   0.51054   0.00000  Uiso   1.00
H2714  H     0.30749   0.05484   0.52321   0.00000  Uiso   1.00
H2715  H     0.32981   0.04837   0.58005   0.00000  Uiso   1.00
H2716  H     0.34958   0.05991   0.59159   0.00000  Uiso   1.00
H2717  H     0.21428   0.95778   0.48946   0.00000  Uiso   1.00
H2718  H     0.19564   0.94533   0.47696   0.00000  Uiso   1.00
H2719  H     0.15802   0.96369   0.43201   0.00000  Uiso   1.00
H2720  H     0.13870   0.95178   0.42010   0.00000  Uiso   1.00
C2721  C     0.79302   0.53805   0.52022   0.00000  Uiso   1.00
C2722  C     0.80344   0.54521   0.52739   0.00000  Uiso   1.00
C2723  C     0.83405   0.55783   0.57565   0.00000  Uiso   1.00
C2724  C     0.84526   0.56437   0.58220   0.00000  Uiso   1.00
C2725  C     0.71029   0.46198   0.47981   0.00000  Uiso   1.00
C2726  C     0.69973   0.45492   0.47274   0.00000  Uiso   1.00
C2727  C     0.65390   0.45413   0.43631   0.00000  Uiso   1.00
C2728  C     0.64295   0.44738   0.42955   0.00000  Uiso   1.00
H2729  H     0.78907   0.54222   0.51054   0.00000  Uiso   1.00
H2730  H     0.80749   0.55484   0.52321   0.00000  Uiso   1.00
H2731  H     0.82981   0.54837   0.58005   0.00000  Uiso   1.00
H2732  H     0.84958   0.55991   0.59159   0.00000  Uiso   1.00
H2733  H     0.71428   0.45778   0.48946   0.00000  Uiso   1.00
H2734  H     0.69564   0.44533   0.47696   0.00000  Uiso   1.00
H2735  H     0.65802   0.46369   0.43201   0.00000  Uiso   1.00
H2736  H     0.63870   0.45178   0.42010   0.00000  Uiso   1.00
C2737  C     0.79302   0.03805   0.02022   0.00000  Uiso   1.00
C2738  C     0.80344   0.04521   0.02739   0.00000  Uiso   1.00
C2739  C     0.83405   0.05783   0.07565   0.00000  Uiso   1.00
C2740  C     0.84526   0.06437   0.08220   0.00000  Uiso   1.00
C2741  C     0.71029   0.96198   0.97981   0.00000  Uiso   1.00
C2742  C     0.69973   0.95492   0.97274   0.00000  Uiso   1.00
C2743  C     0.65390   0.95413   0.93631   0.00000  Uiso   1.00
C2744  C     0.64295   0.94738   0.92955   0.00000  Uiso   1.00
H2745  H     0.78907   0.04222   0.01054   0.00000  Uiso   1.00
H2746  H     0.80749   0.05484   0.02321   0.00000  Uiso   1.00
H2747  H     0.82981   0.04837   0.08005   0.00000  Uiso   1.00
H2748  H     0.84958   0.05991   0.09159   0.00000  Uiso   1.00
H2749  H     0.71428   0.95778   0.98946   0.00000  Uiso   1.00
H2750  H     0.69564   0.94533   0.97696   0.00000  Uiso   1.00
H2751  H     0.65802   0.96369   0.93201   0.00000  Uiso   1.00
H2752  H     0.63870   0.95178   0.92010   0.00000  Uiso   1.00
C2753  C     0.70698   0.03805   0.47978   0.00000  Uiso   1.00
C2754  C     0.69656   0.04521   0.47261   0.00000  Uiso   1.00
C2755  C     0.66595   0.05783   0.42435   0.00000  Uiso   1.00
C2756  C     0.65474   0.06437   0.41780   0.00000  Uiso   1.00
C2757  C     0.78971   0.96198   0.52019   0.00000  Uiso   1.00
C2758  C     0.80027   0.95492   0.52726   0.00000  Uiso   1.00
C2759  C     0.84610   0.95413   0.56369   0.00000  Uiso   1.00
C2760  C     0.85705   0.94738   0.57045   0.00000  Uiso   1.00
H2761  H     0.71093   0.04222   0.48946   0.00000  Uiso   1.00
H2762  H     0.69251   0.05484   0.47679   0.00000  Uiso   1.00
H2763  H     0.67019   0.04837   0.41995   0.00000  Uiso   1.00
H2764  H     0.65042   0.05991   0.40841   0.00000  Uiso   1.00
H2765  H     0.78572   0.95778   0.51054   0.00000  Uiso   1.00
H2766  H     0.80436   0.94533   0.52304   0.00000  Uiso   1.00
H2767  H     0.84198   0.96369   0.56799   0.00000  Uiso   1.00
H2768  H     0.86130   0.95178   0.57990   0.00000  Uiso   1.00
C2769  C     0.70698   0.53805   0.97978   0.00000  Uiso   1.00
C2770  C     0.69656   0.54521   0.97261   0.00000  Uiso   1.00
C2771  C     0.66595   0.55783   0.92435   0.00000  Uiso   1.00
C2772  C     0.65474   0.56437   0.91780   0.00000  Uiso   1.00
C2773  C     0.78971   0.46198   0.02019   0.00000  Uiso   1.00
C2774  C     0.80027   0.45492   0.02726   0.00000  Uiso   1.00
C2775  C     0.84610   0.45413   0.06369   0.00000  Uiso   1.00
C2776  C     0.85705   0.44738   0.07045   0.00000  Uiso   1.00
H2777  H     0.71093   0.54222   0.98946   0.00000  Uiso   1.00
H2778  H     0.69251   0.55484   0.97679   0.00000  Uiso   1.00
H2779  H     0.67019   0.54837   0.91995   0.00000  Uiso   1.00
H2780  H     0.65042   0.55991   0.90841   0.00000  Uiso   1.00
H2781  H     0.78572   0.45778   0.01054   0.00000  Uiso   1.00
H2782  H     0.80436   0.44533   0.02304   0.00000  Uiso   1.00
H2783  H     0.84198   0.46369   0.06799   0.00000  Uiso   1.00
H2784  H     0.86130   0.45178   0.07990   0.00000  Uiso   1.00
C2785  C     0.20698   0.03805   0.97978   0.00000  Uiso   1.00
C2786  C     0.19656   0.04521   0.97261   0.00000  Uiso   1.00
C2787  C     0.16595   0.05783   0.92435   0.00000  Uiso   1.00
C2788  C     0.15474   0.06437   0.91780   0.00000  Uiso   1.00
C2789  C     0.28971   0.96198   0.02019   0.00000  Uiso   1.00
C2790  C     0.30027   0.95492   0.02726   0.00000  Uiso   1.00
C2791  C     0.34610   0.95413   0.06369   0.00000  Uiso   1.00
C2792  C     0.35705   0.94738   0.07045   0.00000  Uiso   1.00
H2793  H     0.21093   0.04222   0.98946   0.00000  Uiso   1.00
H2794  H     0.19251   0.05484   0.97679   0.00000  Uiso   1.00
H2795  H     0.17019   0.04837   0.91995   0.00000  Uiso   1.00
H2796  H     0.15042   0.05991   0.90841   0.00000  Uiso   1.00
H2797  H     0.28572   0.95778   0.01054   0.00000  Uiso   1.00
H2798  H     0.30436   0.94533   0.02304   0.00000  Uiso   1.00
H2799  H     0.34198   0.96369   0.06799   0.00000  Uiso   1.00
H2800  H     0.36130   0.95178   0.07990   0.00000  Uiso   1.00
C2801  C     0.20698   0.53805   0.47978   0.00000  Uiso   1.00
C2802  C     0.19656   0.54521   0.47261   0.00000  Uiso   1.00
C2803  C     0.16595   0.55783   0.42435   0.00000  Uiso   1.00
C2804  C     0.15474   0.56437   0.41780   0.00000  Uiso   1.00
C2805  C     0.28971   0.46198   0.52019   0.00000  Uiso   1.00
C2806  C     0.30027   0.45492   0.52726   0.00000  Uiso   1.00
C2807  C     0.34610   0.45413   0.56369   0.00000  Uiso   1.00
C2808  C     0.35705   0.44738   0.57045   0.00000  Uiso   1.00
H2809  H     0.21093   0.54222   0.48946   0.00000  Uiso   1.00
H2810  H     0.19251   0.55484   0.47679   0.00000  Uiso   1.00
H2811  H     0.17019   0.54837   0.41995   0.00000  Uiso   1.00
H2812  H     0.15042   0.55991   0.40841   0.00000  Uiso   1.00
H2813  H     0.28572   0.45778   0.51054   0.00000  Uiso   1.00
H2814  H     0.30436   0.44533   0.52304   0.00000  Uiso   1.00
H2815  H     0.34198   0.46369   0.56799   0.00000  Uiso   1.00
H2816  H     0.36130   0.45178   0.57990   0.00000  Uiso   1.00
C2817  C     0.96195   0.97978   0.79302   0.00000  Uiso   1.00
C2818  C     0.95479   0.97261   0.80344   0.00000  Uiso   1.00
C2819  C     0.94217   0.92435   0.83405   0.00000  Uiso   1.00
C2820  C     0.93563   0.91780   0.84526   0.00000  Uiso   1.00
C2821  C     0.03802   0.02019   0.71029   0.00000  Uiso   1.00
C2822  C     0.04508   0.02726   0.69973   0.00000  Uiso   1.00
C2823  C     0.04587   0.06369   0.65390   0.00000  Uiso   1.00
C2824  C     0.05262   0.07045   0.64295   0.00000  Uiso   1.00
H2825  H     0.95778   0.98946   0.78907   0.00000  Uiso   1.00
H2826  H     0.94516   0.97679   0.80749   0.00000  Uiso   1.00
H2827  H     0.95163   0.91995   0.82981   0.00000  Uiso   1.00
H2828  H     0.94009   0.90841   0.84958   0.00000  Uiso   1.00
H2829  H     0.04222   0.01054   0.71428   0.00000  Uiso   1.00
H2830  H     0.05467   0.02304   0.69564   0.00000  Uiso   1.00
H2831  H     0.03631   0.06799   0.65802   0.00000  Uiso   1.00
H2832  H     0.04822   0.07990   0.63870   0.00000  Uiso   1.00
C2833  C     0.96195   0.47978   0.29302   0.00000  Uiso   1.00
C2834  C     0.95479   0.47261   0.30344   0.00000  Uiso   1.00
C2835  C     0.94217   0.42435   0.33405   0.00000  Uiso   1.00
C2836  C     0.93563   0.41780   0.34526   0.00000  Uiso   1.00
C2837  C     0.03802   0.52019   0.21029   0.00000  Uiso   1.00
C2838  C     0.04508   0.52726   0.19973   0.00000  Uiso   1.00
C2839  C     0.04587   0.56369   0.15390   0.00000  Uiso   1.00
C2840  C     0.05262   0.57045   0.14295   0.00000  Uiso   1.00
H2841  H     0.95778   0.48946   0.28907   0.00000  Uiso   1.00
H2842  H     0.94516   0.47679   0.30749   0.00000  Uiso   1.00
H2843  H     0.95163   0.41995   0.32981   0.00000  Uiso   1.00
H2844  H     0.94009   0.40841   0.34958   0.00000  Uiso   1.00
H2845  H     0.04222   0.51054   0.21428   0.00000  Uiso   1.00
H2846  H     0.05467   0.52304   0.19564   0.00000  Uiso   1.00
H2847  H     0.03631   0.56799   0.15802   0.00000  Uiso   1.00
H2848  H     0.04822   0.57990   0.13870   0.00000  Uiso   1.00
C2849  C     0.46195   0.97978   0.29302   0.00000  Uiso   1.00
C2850  C     0.45479   0.97261   0.30344   0.00000  Uiso   1.00
C2851  C     0.44217   0.92435   0.33405   0.00000  Uiso   1.00
C2852  C     0.43563   0.91780   0.34526   0.00000  Uiso   1.00
C2853  C     0.53802   0.02019   0.21029   0.00000  Uiso   1.00
C2854  C     0.54508   0.02726   0.19973   0.00000  Uiso   1.00
C2855  C     0.54587   0.06369   0.15390   0.00000  Uiso   1.00
C2856  C     0.55262   0.07045   0.14295   0.00000  Uiso   1.00
H2857  H     0.45778   0.98946   0.28907   0.00000  Uiso   1.00
H2858  H     0.44516   0.97679   0.30749   0.00000  Uiso   1.00
H2859  H     0.45163   0.91995   0.32981   0.00000  Uiso   1.00
H2860  H     0.44009   0.90841   0.34958   0.00000  Uiso   1.00
H2861  H     0.54222   0.01054   0.21428   0.00000  Uiso   1.00
H2862  H     0.55467   0.02304   0.19564   0.00000  Uiso   1.00
H2863  H     0.53631   0.06799   0.15802   0.00000  Uiso   1.00
H2864  H     0.54822   0.07990   0.13870   0.00000  Uiso   1.00
C2865  C     0.46195   0.47978   0.79302   0.00000  Uiso   1.00
C2866  C     0.45479   0.47261   0.80344   0.00000  Uiso   1.00
C2867  C     0.44217   0.42435   0.83405   0.00000  Uiso   1.00
C2868  C     0.43563   0.41780   0.84526   0.00000  Uiso   1.00
C2869  C     0.53802   0.52019   0.71029   0.00000  Uiso   1.00
C2870  C     0.54508   0.52726   0.69973   0.00000  Uiso   1.00
C2871  C     0.54587   0.56369   0.65390   0.00000  Uiso   1.00
C2872  C     0.55262   0.57045   0.64295   0.00000  Uiso   1.00
H2873  H     0.45778   0.48946   0.78907   0.00000  Uiso   1.00
H2874  H     0.44516   0.47679   0.80749   0.00000  Uiso   1.00
H2875  H     0.45163   0.41995   0.82981   0.00000  Uiso   1.00
H2876  H     0.44009   0.40841   0.84958   0.00000  Uiso   1.00
H2877  H     0.54222   0.51054   0.71428   0.00000  Uiso   1.00
H2878  H     0.55467   0.52304   0.69564   0.00000  Uiso   1.00
H2879  H     0.53631   0.56799   0.65802   0.00000  Uiso   1.00
H2880  H     0.54822   0.57990   0.63870   0.00000  Uiso   1.00
C2881  C     0.46195   0.52022   0.20698   0.00000  Uiso   1.00
C2882  C     0.45479   0.52739   0.19656   0.00000  Uiso   1.00
C2883  C     0.44217   0.57565   0.16595   0.00000  Uiso   1.00
C2884  C     0.43563   0.58220   0.15474   0.00000  Uiso   1.00
C2885  C     0.53802   0.47981   0.28971   0.00000  Uiso   1.00
C2886  C     0.54508   0.47274   0.30027   0.00000  Uiso   1.00
C2887  C     0.54587   0.43631   0.34610   0.00000  Uiso   1.00
C2888  C     0.55262   0.42955   0.35705   0.00000  Uiso   1.00
H2889  H     0.45778   0.51054   0.21093   0.00000  Uiso   1.00
H2890  H     0.44516   0.52321   0.19251   0.00000  Uiso   1.00
H2891  H     0.45163   0.58005   0.17019   0.00000  Uiso   1.00
H2892  H     0.44009   0.59159   0.15042   0.00000  Uiso   1.00
H2893  H     0.54222   0.48946   0.28572   0.00000  Uiso   1.00
H2894  H     0.55467   0.47696   0.30436   0.00000  Uiso   1.00
H2895  H     0.53631   0.43201   0.34198   0.00000  Uiso   1.00
H2896  H     0.54822   0.42010   0.36130   0.00000  Uiso   1.00
C2897  C     0.46195   0.02022   0.70698   0.00000  Uiso   1.00
C2898  C     0.45479   0.02739   0.69656   0.00000  Uiso   1.00
C2899  C     0.44217   0.07565   0.66595   0.00000  Uiso   1.00
C2900  C     0.43563   0.08220   0.65474   0.00000  Uiso   1.00
C2901  C     0.53802   0.97981   0.78971   0.00000  Uiso   1.00
C2902  C     0.54508   0.97274   0.80027   0.00000  Uiso   1.00
C2903  C     0.54587   0.93631   0.84610   0.00000  Uiso   1.00
C2904  C     0.55262   0.92955   0.85705   0.00000  Uiso   1.00
H2905  H     0.45778   0.01054   0.71093   0.00000  Uiso   1.00
H2906  H     0.44516   0.02321   0.69251   0.00000  Uiso   1.00
H2907  H     0.45163   0.08005   0.67019   0.00000  Uiso   1.00
H2908  H     0.44009   0.09159   0.65042   0.00000  Uiso   1.00
H2909  H     0.54222   0.98946   0.78572   0.00000  Uiso   1.00
H2910  H     0.55467   0.97696   0.80436   0.00000  Uiso   1.00
H2911  H     0.53631   0.93201   0.84198   0.00000  Uiso   1.00
H2912  H     0.54822   0.92010   0.86130   0.00000  Uiso   1.00
C2913  C     0.96195   0.52022   0.70698   0.00000  Uiso   1.00
C2914  C     0.95479   0.52739   0.69656   0.00000  Uiso   1.00
C2915  C     0.94217   0.57565   0.66595   0.00000  Uiso   1.00
C2916  C     0.93563   0.58220   0.65474   0.00000  Uiso   1.00
C2917  C     0.03802   0.47981   0.78971   0.00000  Uiso   1.00
C2918  C     0.04508   0.47274   0.80027   0.00000  Uiso   1.00
C2919  C     0.04587   0.43631   0.84610   0.00000  Uiso   1.00
C2920  C     0.05262   0.42955   0.85705   0.00000  Uiso   1.00
H2921  H     0.95778   0.51054   0.71093   0.00000  Uiso   1.00
H2922  H     0.94516   0.52321   0.69251   0.00000  Uiso   1.00
H2923  H     0.95163   0.58005   0.67019   0.00000  Uiso   1.00
H2924  H     0.94009   0.59159   0.65042   0.00000  Uiso   1.00
H2925  H     0.04222   0.48946   0.78572   0.00000  Uiso   1.00
H2926  H     0.05467   0.47696   0.80436   0.00000  Uiso   1.00
H2927  H     0.03631   0.43201   0.84198   0.00000  Uiso   1.00
H2928  H     0.04822   0.42010   0.86130   0.00000  Uiso   1.00
C2929  C     0.96195   0.02022   0.20698   0.00000  Uiso   1.00
C2930  C     0.95479   0.02739   0.19656   0.00000  Uiso   1.00
C2931  C     0.94217   0.07565   0.16595   0.00000  Uiso   1.00
C2932  C     0.93563   0.08220   0.15474   0.00000  Uiso   1.00
C2933  C     0.03802   0.97981   0.28971   0.00000  Uiso   1.00
C2934  C     0.04508   0.97274   0.30027   0.00000  Uiso   1.00
C2935  C     0.04587   0.93631   0.34610   0.00000  Uiso   1.00
C2936  C     0.05262   0.92955   0.35705   0.00000  Uiso   1.00
H2937  H     0.95778   0.01054   0.21093   0.00000  Uiso   1.00
H2938  H     0.94516   0.02321   0.19251   0.00000  Uiso   1.00
H2939  H     0.95163   0.08005   0.17019   0.00000  Uiso   1.00
H2940  H     0.94009   0.09159   0.15042   0.00000  Uiso   1.00
H2941  H     0.04222   0.98946   0.28572   0.00000  Uiso   1.00
H2942  H     0.05467   0.97696   0.30436   0.00000  Uiso   1.00
H2943  H     0.03631   0.93201   0.34198   0.00000  Uiso   1.00
H2944  H     0.04822   0.92010   0.36130   0.00000  Uiso   1.00
C2945  C     0.03805   0.47978   0.70698   0.00000  Uiso   1.00
C2946  C     0.04521   0.47261   0.69656   0.00000  Uiso   1.00
C2947  C     0.05783   0.42435   0.66595   0.00000  Uiso   1.00
C2948  C     0.06437   0.41780   0.65474   0.00000  Uiso   1.00
C2949  C     0.96198   0.52019   0.78971   0.00000  Uiso   1.00
C2950  C     0.95492   0.52726   0.80027   0.00000  Uiso   1.00
C2951  C     0.95413   0.56369   0.84610   0.00000  Uiso   1.00
C2952  C     0.94738   0.57045   0.85705   0.00000  Uiso   1.00
H2953  H     0.04222   0.48946   0.71093   0.00000  Uiso   1.00
H2954  H     0.05484   0.47679   0.69251   0.00000  Uiso   1.00
H2955  H     0.04837   0.41995   0.67019   0.00000  Uiso   1.00
H2956  H     0.05991   0.40841   0.65042   0.00000  Uiso   1.00
H2957  H     0.95778   0.51054   0.78572   0.00000  Uiso   1.00
H2958  H     0.94533   0.52304   0.80436   0.00000  Uiso   1.00
H2959  H     0.96369   0.56799   0.84198   0.00000  Uiso   1.00
H2960  H     0.95178   0.57990   0.86130   0.00000  Uiso   1.00
C2961  C     0.03805   0.97978   0.20698   0.00000  Uiso   1.00
C2962  C     0.04521   0.97261   0.19656   0.00000  Uiso   1.00
C2963  C     0.05783   0.92435   0.16595   0.00000  Uiso   1.00
C2964  C     0.06437   0.91780   0.15474   0.00000  Uiso   1.00
C2965  C     0.96198   0.02019   0.28971   0.00000  Uiso   1.00
C2966  C     0.95492   0.02726   0.30027   0.00000  Uiso   1.00
C2967  C     0.95413   0.06369   0.34610   0.00000  Uiso   1.00
C2968  C     0.94738   0.07045   0.35705   0.00000  Uiso   1.00
H2969  H     0.04222   0.98946   0.21093   0.00000  Uiso   1.00
H2970  H     0.05484   0.97679   0.19251   0.00000  Uiso   1.00
H2971  H     0.04837   0.91995   0.17019   0.00000  Uiso   1.00
H2972  H     0.05991   0.90841   0.15042   0.00000  Uiso   1.00
H2973  H     0.95778   0.01054   0.28572   0.00000  Uiso   1.00
H2974  H     0.94533   0.02304   0.30436   0.00000  Uiso   1.00
H2975  H     0.96369   0.06799   0.34198   0.00000  Uiso   1.00
H2976  H     0.95178   0.07990   0.36130   0.00000  Uiso   1.00
C2977  C     0.53805   0.47978   0.20698   0.00000  Uiso   1.00
C2978  C     0.54521   0.47261   0.19656   0.00000  Uiso   1.00
C2979  C     0.55783   0.42435   0.16595   0.00000  Uiso   1.00
C2980  C     0.56437   0.41780   0.15474   0.00000  Uiso   1.00
C2981  C     0.46198   0.52019   0.28971   0.00000  Uiso   1.00
C2982  C     0.45492   0.52726   0.30027   0.00000  Uiso   1.00
C2983  C     0.45413   0.56369   0.34610   0.00000  Uiso   1.00
C2984  C     0.44738   0.57045   0.35705   0.00000  Uiso   1.00
H2985  H     0.54222   0.48946   0.21093   0.00000  Uiso   1.00
H2986  H     0.55484   0.47679   0.19251   0.00000  Uiso   1.00
H2987  H     0.54837   0.41995   0.17019   0.00000  Uiso   1.00
H2988  H     0.55991   0.40841   0.15042   0.00000  Uiso   1.00
H2989  H     0.45778   0.51054   0.28572   0.00000  Uiso   1.00
H2990  H     0.44533   0.52304   0.30436   0.00000  Uiso   1.00
H2991  H     0.46369   0.56799   0.34198   0.00000  Uiso   1.00
H2992  H     0.45178   0.57990   0.36130   0.00000  Uiso   1.00
C2993  C     0.53805   0.97978   0.70698   0.00000  Uiso   1.00
C2994  C     0.54521   0.97261   0.69656   0.00000  Uiso   1.00
C2995  C     0.55783   0.92435   0.66595   0.00000  Uiso   1.00
C2996  C     0.56437   0.91780   0.65474   0.00000  Uiso   1.00
C2997  C     0.46198   0.02019   0.78971   0.00000  Uiso   1.00
C2998  C     0.45492   0.02726   0.80027   0.00000  Uiso   1.00
C2999  C     0.45413   0.06369   0.84610   0.00000  Uiso   1.00
C3000  C     0.44738   0.07045   0.85705   0.00000  Uiso   1.00
H3001  H     0.54222   0.98946   0.71093   0.00000  Uiso   1.00
H3002  H     0.55484   0.97679   0.69251   0.00000  Uiso   1.00
H3003  H     0.54837   0.91995   0.67019   0.00000  Uiso   1.00
H3004  H     0.55991   0.90841   0.65042   0.00000  Uiso   1.00
H3005  H     0.45778   0.01054   0.78572   0.00000  Uiso   1.00
H3006  H     0.44533   0.02304   0.80436   0.00000  Uiso   1.00
H3007  H     0.46369   0.06799   0.84198   0.00000  Uiso   1.00
H3008  H     0.45178   0.07990   0.86130   0.00000  Uiso   1.00
C3009  C     0.53805   0.02022   0.29302   0.00000  Uiso   1.00
C3010  C     0.54521   0.02739   0.30344   0.00000  Uiso   1.00
C3011  C     0.55783   0.07565   0.33405   0.00000  Uiso   1.00
C3012  C     0.56437   0.08220   0.34526   0.00000  Uiso   1.00
C3013  C     0.46198   0.97981   0.21029   0.00000  Uiso   1.00
C3014  C     0.45492   0.97274   0.19973   0.00000  Uiso   1.00
C3015  C     0.45413   0.93631   0.15390   0.00000  Uiso   1.00
C3016  C     0.44738   0.92955   0.14295   0.00000  Uiso   1.00
H3017  H     0.54222   0.01054   0.28907   0.00000  Uiso   1.00
H3018  H     0.55484   0.02321   0.30749   0.00000  Uiso   1.00
H3019  H     0.54837   0.08005   0.32981   0.00000  Uiso   1.00
H3020  H     0.55991   0.09159   0.34958   0.00000  Uiso   1.00
H3021  H     0.45778   0.98946   0.21428   0.00000  Uiso   1.00
H3022  H     0.44533   0.97696   0.19564   0.00000  Uiso   1.00
H3023  H     0.46369   0.93201   0.15802   0.00000  Uiso   1.00
H3024  H     0.45178   0.92010   0.13870   0.00000  Uiso   1.00
C3025  C     0.53805   0.52022   0.79302   0.00000  Uiso   1.00
C3026  C     0.54521   0.52739   0.80344   0.00000  Uiso   1.00
C3027  C     0.55783   0.57565   0.83405   0.00000  Uiso   1.00
C3028  C     0.56437   0.58220   0.84526   0.00000  Uiso   1.00
C3029  C     0.46198   0.47981   0.71029   0.00000  Uiso   1.00
C3030  C     0.45492   0.47274   0.69973   0.00000  Uiso   1.00
C3031  C     0.45413   0.43631   0.65390   0.00000  Uiso   1.00
C3032  C     0.44738   0.42955   0.64295   0.00000  Uiso   1.00
H3033  H     0.54222   0.51054   0.78907   0.00000  Uiso   1.00
H3034  H     0.55484   0.52321   0.80749   0.00000  Uiso   1.00
H3035  H     0.54837   0.58005   0.82981   0.00000  Uiso   1.00
H3036  H     0.55991   0.59159   0.84958   0.00000  Uiso   1.00
H3037  H     0.45778   0.48946   0.71428   0.00000  Uiso   1.00
H3038  H     0.44533   0.47696   0.69564   0.00000  Uiso   1.00
H3039  H     0.46369   0.43201   0.65802   0.00000  Uiso   1.00
H3040  H     0.45178   0.42010   0.63870   0.00000  Uiso   1.00
C3041  C     0.03805   0.02022   0.79302   0.00000  Uiso   1.00
C3042  C     0.04521   0.02739   0.80344   0.00000  Uiso   1.00
C3043  C     0.05783   0.07565   0.83405   0.00000  Uiso   1.00
C3044  C     0.06437   0.08220   0.84526   0.00000  Uiso   1.00
C3045  C     0.96198   0.97981   0.71029   0.00000  Uiso   1.00
C3046  C     0.95492   0.97274   0.69973   0.00000  Uiso   1.00
C3047  C     0.95413   0.93631   0.65390   0.00000  Uiso   1.00
C3048  C     0.94738   0.92955   0.64295   0.00000  Uiso   1.00
H3049  H     0.04222   0.01054   0.78907   0.00000  Uiso   1.00
H3050  H     0.05484   0.02321   0.80749   0.00000  Uiso   1.00
H3051  H     0.04837   0.08005   0.82981   0.00000  Uiso   1.00
H3052  H     0.05991   0.09159   0.84958   0.00000  Uiso   1.00
H3053  H     0.95778   0.98946   0.71428   0.00000  Uiso   1.00
H3054  H     0.94533   0.97696   0.69564   0.00000  Uiso   1.00
H3055  H     0.96369   0.93201   0.65802   0.00000  Uiso   1.00
H3056  H     0.95178   0.92010   0.63870   0.00000  Uiso   1.00
C3057  C     0.03805   0.52022   0.29302   0.00000  Uiso   1.00
C3058  C     0.04521   0.52739   0.30344   0.00000  Uiso   1.00
C3059  C     0.05783   0.57565   0.33405   0.00000  Uiso   1.00
C3060  C     0.06437   0.58220   0.34526   0.00000  Uiso   1.00
C3061  C     0.96198   0.47981   0.21029   0.00000  Uiso   1.00
C3062  C     0.95492   0.47274   0.19973   0.00000  Uiso   1.00
C3063  C     0.95413   0.43631   0.15390   0.00000  Uiso   1.00
C3064  C     0.94738   0.42955   0.14295   0.00000  Uiso   1.00
H3065  H     0.04222   0.51054   0.28907   0.00000  Uiso   1.00
H3066  H     0.05484   0.52321   0.30749   0.00000  Uiso   1.00
H3067  H     0.04837   0.58005   0.32981   0.00000  Uiso   1.00
H3068  H     0.05991   0.59159   0.34958   0.00000  Uiso   1.00
H3069  H     0.95778   0.48946   0.21428   0.00000  Uiso   1.00
H3070  H     0.94533   0.47696   0.19564   0.00000  Uiso   1.00
H3071  H     0.96369   0.43201   0.15802   0.00000  Uiso   1.00
H3072  H     0.95178   0.42010   0.13870   0.00000  Uiso   1.00
N3073  N     0.25000   0.02261   0.25000   0.00000  Uiso   1.00
N3074  N     0.75000   0.47739   0.75000   0.00000  Uiso   1.00
N3075  N     0.25000   0.47739   0.25000   0.00000  Uiso   1.00
N3076  N     0.25000   0.52261   0.75000   0.00000  Uiso   1.00
N3077  N     0.75000   0.97739   0.25000   0.00000  Uiso   1.00
N3078  N     0.25000   0.25000   0.02261   0.00000  Uiso   1.00
N3079  N     0.75000   0.75000   0.47739   0.00000  Uiso   1.00
N3080  N     0.75000   0.25000   0.52261   0.00000  Uiso   1.00
N3081  N     0.75000   0.75000   0.02261   0.00000  Uiso   1.00
N3082  N     0.25000   0.75000   0.97739   0.00000  Uiso   1.00
N3083  N     0.25000   0.25000   0.47739   0.00000  Uiso   1.00
N3084  N     0.02261   0.25000   0.25000   0.00000  Uiso   1.00
N3085  N     0.02261   0.75000   0.75000   0.00000  Uiso   1.00
N3086  N     0.47739   0.75000   0.75000   0.00000  Uiso   1.00
N3087  N     0.47739   0.25000   0.25000   0.00000  Uiso   1.00
N3088  N     0.52261   0.75000   0.25000   0.00000  Uiso   1.00
N3089  N     0.97739   0.25000   0.75000   0.00000  Uiso   1.00
N3090  N     0.77261   0.50000   0.50000   0.00000  Uiso   1.00
N3091  N     0.77261   0.00000   0.00000   0.00000  Uiso   1.00
N3092  N     0.22739   0.00000   0.00000   0.00000  Uiso   1.00
N3093  N     0.22739   0.50000   0.50000   0.00000  Uiso   1.00
N3094  N     0.27261   0.50000   0.00000   0.00000  Uiso   1.00
N3095  N     0.72739   0.00000   0.50000   0.00000  Uiso   1.00
N3096  N     0.00000   0.50000   0.72739   0.00000  Uiso   1.00
N3097  N     0.50000   0.00000   0.27261   0.00000  Uiso   1.00
N3098  N     0.00000   0.00000   0.77261   0.00000  Uiso   1.00
N3099  N     0.00000   0.00000   0.22739   0.00000  Uiso   1.00
N3100  N     0.50000   0.50000   0.77261   0.00000  Uiso   1.00
N3101  N     0.00000   0.27261   0.50000   0.00000  Uiso   1.00
N3102  N     0.00000   0.77261   0.00000   0.00000  Uiso   1.00
N3103  N     0.50000   0.72739   0.00000   0.00000  Uiso   1.00
N3104  N     0.50000   0.22739   0.50000   0.00000  Uiso   1.00
N3105  N     0.50000   0.77261   0.50000   0.00000  Uiso   1.00
N3106  N     0.00000   0.22739   0.00000   0.00000  Uiso   1.00
N3107  N     0.00000   0.72739   0.50000   0.00000  Uiso   1.00
N3108  N     0.50000   0.27261   0.00000   0.00000  Uiso   1.00
N3109  N     0.50000   0.00000   0.72739   0.00000  Uiso   1.00
N3110  N     0.50000   0.50000   0.22739   0.00000  Uiso   1.00
N3111  N     0.00000   0.50000   0.27261   0.00000  Uiso   1.00
N3112  N     0.72739   0.50000   0.00000   0.00000  Uiso   1.00
N3113  N     0.27261   0.00000   0.50000   0.00000  Uiso   1.00
N3114  N     0.97739   0.75000   0.25000   0.00000  Uiso   1.00
N3115  N     0.52261   0.25000   0.75000   0.00000  Uiso   1.00
N3116  N     0.25000   0.75000   0.52261   0.00000  Uiso   1.00
N3117  N     0.75000   0.25000   0.97739   0.00000  Uiso   1.00
N3118  N     0.25000   0.97739   0.75000   0.00000  Uiso   1.00
N3119  N     0.75000   0.52261   0.25000   0.00000  Uiso   1.00
N3120  N     0.75000   0.02261   0.75000   0.00000  Uiso   1.00
C3121  C     0.24048   0.02086   0.52086   0.00000  Uiso   1.00
C3122  C     0.25877   0.03062   0.53062   0.00000  Uiso   1.00
C3123  C     0.28779   0.02552   0.52552   0.00000  Uiso   1.00
C3124  C     0.30864   0.03991   0.53991   0.00000  Uiso   1.00
N3125  N     0.31951   0.04706   0.54706   0.00000  Uiso   1.00
C3126  C     0.31693   0.05641   0.55641   0.00000  Uiso   1.00
C3127  C     0.32846   0.06342   0.56342   0.00000  Uiso   1.00
C3128  C     0.35092   0.07655   0.57655   0.00000  Uiso   1.00
C3129  C     0.36294   0.08321   0.58321   0.00000  Uiso   1.00
C3130  C     0.38595   0.09586   0.59586   0.00000  Uiso   1.00
C3131  C     0.27687   0.01782   0.51782   0.00000  Uiso   1.00
C3132  C     0.26288   0.02086   0.52086   0.00000  Uiso   1.00
C3133  C     0.24459   0.03062   0.53062   0.00000  Uiso   1.00
N3134  N     0.25168   0.01482   0.51482   0.00000  Uiso   1.00
C3135  C     0.21556   0.97448   0.47448   0.00000  Uiso   1.00
C3136  C     0.19437   0.96033   0.46033   0.00000  Uiso   1.00
N3137  N     0.18336   0.95329   0.45329   0.00000  Uiso   1.00
C3138  C     0.17045   0.95600   0.45600   0.00000  Uiso   1.00
C3139  C     0.15938   0.94863   0.44863   0.00000  Uiso   1.00
C3140  C     0.13740   0.93509   0.43509   0.00000  Uiso   1.00
C3141  C     0.12551   0.92831   0.42831   0.00000  Uiso   1.00
C3142  C     0.10272   0.91546   0.41546   0.00000  Uiso   1.00
C3143  C     0.22649   0.98218   0.48218   0.00000  Uiso   1.00
H3144  H     0.26531   0.03710   0.53710   0.00000  Uiso   1.00
H3145  H     0.30633   0.05912   0.55912   0.00000  Uiso   1.00
H3146  H     0.23805   0.03710   0.53710   0.00000  Uiso   1.00
H3147  H     0.16768   0.96373   0.46373   0.00000  Uiso   1.00
C3148  C     0.74048   0.02086   0.02086   0.00000  Uiso   1.00
C3149  C     0.75877   0.03062   0.03062   0.00000  Uiso   1.00
C3150  C     0.78779   0.02552   0.02552   0.00000  Uiso   1.00
C3151  C     0.80864   0.03991   0.03991   0.00000  Uiso   1.00
N3152  N     0.81951   0.04706   0.04706   0.00000  Uiso   1.00
C3153  C     0.81693   0.05641   0.05641   0.00000  Uiso   1.00
C3154  C     0.82846   0.06342   0.06342   0.00000  Uiso   1.00
C3155  C     0.85092   0.07655   0.07655   0.00000  Uiso   1.00
C3156  C     0.86294   0.08321   0.08321   0.00000  Uiso   1.00
C3157  C     0.88595   0.09586   0.09586   0.00000  Uiso   1.00
C3158  C     0.77687   0.01782   0.01782   0.00000  Uiso   1.00
C3159  C     0.76288   0.02086   0.02086   0.00000  Uiso   1.00
C3160  C     0.74459   0.03062   0.03062   0.00000  Uiso   1.00
N3161  N     0.75168   0.01482   0.01482   0.00000  Uiso   1.00
C3162  C     0.71556   0.97448   0.97448   0.00000  Uiso   1.00
C3163  C     0.69437   0.96033   0.96033   0.00000  Uiso   1.00
N3164  N     0.68336   0.95329   0.95329   0.00000  Uiso   1.00
C3165  C     0.67045   0.95600   0.95600   0.00000  Uiso   1.00
C3166  C     0.65938   0.94863   0.94863   0.00000  Uiso   1.00
C3167  C     0.63740   0.93509   0.93509   0.00000  Uiso   1.00
C3168  C     0.62551   0.92831   0.92831   0.00000  Uiso   1.00
C3169  C     0.60272   0.91546   0.91546   0.00000  Uiso   1.00
C3170  C     0.72649   0.98218   0.98218   0.00000  Uiso   1.00
H3171  H     0.76531   0.03710   0.03710   0.00000  Uiso   1.00
H3172  H     0.80633   0.05912   0.05912   0.00000  Uiso   1.00
H3173  H     0.73805   0.03710   0.03710   0.00000  Uiso   1.00
H3174  H     0.66768   0.96373   0.96373   0.00000  Uiso   1.00
C3175  C     0.75952   0.47914   0.02086   0.00000  Uiso   1.00
C3176  C     0.74123   0.46938   0.03062   0.00000  Uiso   1.00
C3177  C     0.71221   0.47448   0.02552   0.00000  Uiso   1.00
C3178  C     0.69136   0.46009   0.03991   0.00000  Uiso   1.00
N3179  N     0.68049   0.45294   0.04706   0.00000  Uiso   1.00
C3180  C     0.68307   0.44359   0.05641   0.00000  Uiso   1.00
C3181  C     0.67154   0.43658   0.06342   0.00000  Uiso   1.00
C3182  C     0.64908   0.42345   0.07655   0.00000  Uiso   1.00
C3183  C     0.63706   0.41679   0.08321   0.00000  Uiso   1.00
C3184  C     0.61405   0.40414   0.09586   0.00000  Uiso   1.00
C3185  C     0.72313   0.48218   0.01782   0.00000  Uiso   1.00
C3186  C     0.73712   0.47914   0.02086   0.00000  Uiso   1.00
C3187  C     0.75541   0.46938   0.03062   0.00000  Uiso   1.00
N3188  N     0.74832   0.48518   0.01482   0.00000  Uiso   1.00
C3189  C     0.78444   0.52552   0.97448   0.00000  Uiso   1.00
C3190  C     0.80563   0.53967   0.96033   0.00000  Uiso   1.00
N3191  N     0.81664   0.54671   0.95329   0.00000  Uiso   1.00
C3192  C     0.82955   0.54400   0.95600   0.00000  Uiso   1.00
C3193  C     0.84062   0.55137   0.94863   0.00000  Uiso   1.00
C3194  C     0.86260   0.56491   0.93509   0.00000  Uiso   1.00
C3195  C     0.87449   0.57169   0.92831   0.00000  Uiso   1.00
C3196  C     0.89728   0.58454   0.91546   0.00000  Uiso   1.00
C3197  C     0.77351   0.51782   0.98218   0.00000  Uiso   1.00
H3198  H     0.73469   0.46290   0.03710   0.00000  Uiso   1.00
H3199  H     0.69367   0.44088   0.05912   0.00000  Uiso   1.00
H3200  H     0.76195   0.46290   0.03710   0.00000  Uiso   1.00
H3201  H     0.83232   0.53627   0.96373   0.00000  Uiso   1.00
C3202  C     0.75952   0.97914   0.52086   0.00000  Uiso   1.00
C3203  C     0.74123   0.96938   0.53062   0.00000  Uiso   1.00
C3204  C     0.71221   0.97448   0.52552   0.00000  Uiso   1.00
C3205  C     0.69136   0.96009   0.53991   0.00000  Uiso   1.00
N3206  N     0.68049   0.95294   0.54706   0.00000  Uiso   1.00
C3207  C     0.68307   0.94359   0.55641   0.00000  Uiso   1.00
C3208  C     0.67154   0.93658   0.56342   0.00000  Uiso   1.00
C3209  C     0.64908   0.92345   0.57655   0.00000  Uiso   1.00
C3210  C     0.63706   0.91679   0.58321   0.00000  Uiso   1.00
C3211  C     0.61405   0.90414   0.59586   0.00000  Uiso   1.00
C3212  C     0.72313   0.98218   0.51782   0.00000  Uiso   1.00
C3213  C     0.73712   0.97914   0.52086   0.00000  Uiso   1.00
C3214  C     0.75541   0.96938   0.53062   0.00000  Uiso   1.00
N3215  N     0.74832   0.98518   0.51482   0.00000  Uiso   1.00
C3216  C     0.78444   0.02552   0.47448   0.00000  Uiso   1.00
C3217  C     0.80563   0.03967   0.46033   0.00000  Uiso   1.00
N3218  N     0.81664   0.04671   0.45329   0.00000  Uiso   1.00
C3219  C     0.82955   0.04400   0.45600   0.00000  Uiso   1.00
C3220  C     0.84062   0.05137   0.44863   0.00000  Uiso   1.00
C3221  C     0.86260   0.06491   0.43509   0.00000  Uiso   1.00
C3222  C     0.87449   0.07169   0.42831   0.00000  Uiso   1.00
C3223  C     0.89728   0.08454   0.41546   0.00000  Uiso   1.00
C3224  C     0.77351   0.01782   0.48218   0.00000  Uiso   1.00
H3225  H     0.73469   0.96290   0.53710   0.00000  Uiso   1.00
H3226  H     0.69367   0.94088   0.55912   0.00000  Uiso   1.00
H3227  H     0.76195   0.96290   0.53710   0.00000  Uiso   1.00
H3228  H     0.83232   0.03627   0.46373   0.00000  Uiso   1.00
C3229  C     0.25952   0.47914   0.52086   0.00000  Uiso   1.00
C3230  C     0.24123   0.46938   0.53062   0.00000  Uiso   1.00
C3231  C     0.21221   0.47448   0.52552   0.00000  Uiso   1.00
C3232  C     0.19136   0.46009   0.53991   0.00000  Uiso   1.00
N3233  N     0.18049   0.45294   0.54706   0.00000  Uiso   1.00
C3234  C     0.18307   0.44359   0.55641   0.00000  Uiso   1.00
C3235  C     0.17154   0.43658   0.56342   0.00000  Uiso   1.00
C3236  C     0.14908   0.42345   0.57655   0.00000  Uiso   1.00
C3237  C     0.13706   0.41679   0.58321   0.00000  Uiso   1.00
C3238  C     0.11405   0.40414   0.59586   0.00000  Uiso   1.00
C3239  C     0.22313   0.48218   0.51782   0.00000  Uiso   1.00
C3240  C     0.23712   0.47914   0.52086   0.00000  Uiso   1.00
C3241  C     0.25541   0.46938   0.53062   0.00000  Uiso   1.00
N3242  N     0.24832   0.48518   0.51482   0.00000  Uiso   1.00
C3243  C     0.28444   0.52552   0.47448   0.00000  Uiso   1.00
C3244  C     0.30563   0.53967   0.46033   0.00000  Uiso   1.00
N3245  N     0.31664   0.54671   0.45329   0.00000  Uiso   1.00
C3246  C     0.32955   0.54400   0.45600   0.00000  Uiso   1.00
C3247  C     0.34062   0.55137   0.44863   0.00000  Uiso   1.00
C3248  C     0.36260   0.56491   0.43509   0.00000  Uiso   1.00
C3249  C     0.37449   0.57169   0.42831   0.00000  Uiso   1.00
C3250  C     0.39728   0.58454   0.41546   0.00000  Uiso   1.00
C3251  C     0.27351   0.51782   0.48218   0.00000  Uiso   1.00
H3252  H     0.23469   0.46290   0.53710   0.00000  Uiso   1.00
H3253  H     0.19367   0.44088   0.55912   0.00000  Uiso   1.00
H3254  H     0.26195   0.46290   0.53710   0.00000  Uiso   1.00
H3255  H     0.33232   0.53627   0.46373   0.00000  Uiso   1.00
C3256  C     0.25952   0.52086   0.47914   0.00000  Uiso   1.00
C3257  C     0.24123   0.53062   0.46938   0.00000  Uiso   1.00
C3258  C     0.21221   0.52552   0.47448   0.00000  Uiso   1.00
C3259  C     0.19136   0.53991   0.46009   0.00000  Uiso   1.00
N3260  N     0.18049   0.54706   0.45294   0.00000  Uiso   1.00
C3261  C     0.18307   0.55641   0.44359   0.00000  Uiso   1.00
C3262  C     0.17154   0.56342   0.43658   0.00000  Uiso   1.00
C3263  C     0.14908   0.57655   0.42345   0.00000  Uiso   1.00
C3264  C     0.13706   0.58321   0.41679   0.00000  Uiso   1.00
C3265  C     0.11405   0.59586   0.40414   0.00000  Uiso   1.00
C3266  C     0.22313   0.51782   0.48218   0.00000  Uiso   1.00
C3267  C     0.23712   0.52086   0.47914   0.00000  Uiso   1.00
C3268  C     0.25541   0.53062   0.46938   0.00000  Uiso   1.00
N3269  N     0.24832   0.51482   0.48518   0.00000  Uiso   1.00
C3270  C     0.28444   0.47448   0.52552   0.00000  Uiso   1.00
C3271  C     0.30563   0.46033   0.53967   0.00000  Uiso   1.00
N3272  N     0.31664   0.45329   0.54671   0.00000  Uiso   1.00
C3273  C     0.32955   0.45600   0.54400   0.00000  Uiso   1.00
C3274  C     0.34062   0.44863   0.55137   0.00000  Uiso   1.00
C3275  C     0.36260   0.43509   0.56491   0.00000  Uiso   1.00
C3276  C     0.37449   0.42831   0.57169   0.00000  Uiso   1.00
C3277  C     0.39728   0.41546   0.58454   0.00000  Uiso   1.00
C3278  C     0.27351   0.48218   0.51782   0.00000  Uiso   1.00
H3279  H     0.23469   0.53710   0.46290   0.00000  Uiso   1.00
H3280  H     0.19367   0.55912   0.44088   0.00000  Uiso   1.00
H3281  H     0.26195   0.53710   0.46290   0.00000  Uiso   1.00
H3282  H     0.33232   0.46373   0.53627   0.00000  Uiso   1.00
C3283  C     0.25952   0.02086   0.97914   0.00000  Uiso   1.00
C3284  C     0.24123   0.03062   0.96938   0.00000  Uiso   1.00
C3285  C     0.21221   0.02552   0.97448   0.00000  Uiso   1.00
C3286  C     0.19136   0.03991   0.96009   0.00000  Uiso   1.00
N3287  N     0.18049   0.04706   0.95294   0.00000  Uiso   1.00
C3288  C     0.18307   0.05641   0.94359   0.00000  Uiso   1.00
C3289  C     0.17154   0.06342   0.93658   0.00000  Uiso   1.00
C3290  C     0.14908   0.07655   0.92345   0.00000  Uiso   1.00
C3291  C     0.13706   0.08321   0.91679   0.00000  Uiso   1.00
C3292  C     0.11405   0.09586   0.90414   0.00000  Uiso   1.00
C3293  C     0.22313   0.01782   0.98218   0.00000  Uiso   1.00
C3294  C     0.23712   0.02086   0.97914   0.00000  Uiso   1.00
C3295  C     0.25541   0.03062   0.96938   0.00000  Uiso   1.00
N3296  N     0.24832   0.01482   0.98518   0.00000  Uiso   1.00
C3297  C     0.28444   0.97448   0.02552   0.00000  Uiso   1.00
C3298  C     0.30563   0.96033   0.03967   0.00000  Uiso   1.00
N3299  N     0.31664   0.95329   0.04671   0.00000  Uiso   1.00
C3300  C     0.32955   0.95600   0.04400   0.00000  Uiso   1.00
C3301  C     0.34062   0.94863   0.05137   0.00000  Uiso   1.00
C3302  C     0.36260   0.93509   0.06491   0.00000  Uiso   1.00
C3303  C     0.37449   0.92831   0.07169   0.00000  Uiso   1.00
C3304  C     0.39728   0.91546   0.08454   0.00000  Uiso   1.00
C3305  C     0.27351   0.98218   0.01782   0.00000  Uiso   1.00
H3306  H     0.23469   0.03710   0.96290   0.00000  Uiso   1.00
H3307  H     0.19367   0.05912   0.94088   0.00000  Uiso   1.00
H3308  H     0.26195   0.03710   0.96290   0.00000  Uiso   1.00
H3309  H     0.33232   0.96373   0.03627   0.00000  Uiso   1.00
C3310  C     0.74048   0.97914   0.97914   0.00000  Uiso   1.00
C3311  C     0.75877   0.96938   0.96938   0.00000  Uiso   1.00
C3312  C     0.78779   0.97448   0.97448   0.00000  Uiso   1.00
C3313  C     0.80864   0.96009   0.96009   0.00000  Uiso   1.00
N3314  N     0.81951   0.95294   0.95294   0.00000  Uiso   1.00
C3315  C     0.81693   0.94359   0.94359   0.00000  Uiso   1.00
C3316  C     0.82846   0.93658   0.93658   0.00000  Uiso   1.00
C3317  C     0.85092   0.92345   0.92345   0.00000  Uiso   1.00
C3318  C     0.86294   0.91679   0.91679   0.00000  Uiso   1.00
C3319  C     0.88595   0.90414   0.90414   0.00000  Uiso   1.00
C3320  C     0.77687   0.98218   0.98218   0.00000  Uiso   1.00
C3321  C     0.76288   0.97914   0.97914   0.00000  Uiso   1.00
C3322  C     0.74459   0.96938   0.96938   0.00000  Uiso   1.00
N3323  N     0.75168   0.98518   0.98518   0.00000  Uiso   1.00
C3324  C     0.71556   0.02552   0.02552   0.00000  Uiso   1.00
C3325  C     0.69437   0.03967   0.03967   0.00000  Uiso   1.00
N3326  N     0.68336   0.04671   0.04671   0.00000  Uiso   1.00
C3327  C     0.67045   0.04400   0.04400   0.00000  Uiso   1.00
C3328  C     0.65938   0.05137   0.05137   0.00000  Uiso   1.00
C3329  C     0.63740   0.06491   0.06491   0.00000  Uiso   1.00
C3330  C     0.62551   0.07169   0.07169   0.00000  Uiso   1.00
C3331  C     0.60272   0.08454   0.08454   0.00000  Uiso   1.00
C3332  C     0.72649   0.01782   0.01782   0.00000  Uiso   1.00
H3333  H     0.76531   0.96290   0.96290   0.00000  Uiso   1.00
H3334  H     0.80633   0.94088   0.94088   0.00000  Uiso   1.00
H3335  H     0.73805   0.96290   0.96290   0.00000  Uiso   1.00
H3336  H     0.66768   0.03627   0.03627   0.00000  Uiso   1.00
C3337  C     0.74048   0.47914   0.47914   0.00000  Uiso   1.00
C3338  C     0.75877   0.46938   0.46938   0.00000  Uiso   1.00
C3339  C     0.78779   0.47448   0.47448   0.00000  Uiso   1.00
C3340  C     0.80864   0.46009   0.46009   0.00000  Uiso   1.00
N3341  N     0.81951   0.45294   0.45294   0.00000  Uiso   1.00
C3342  C     0.81693   0.44359   0.44359   0.00000  Uiso   1.00
C3343  C     0.82846   0.43658   0.43658   0.00000  Uiso   1.00
C3344  C     0.85092   0.42345   0.42345   0.00000  Uiso   1.00
C3345  C     0.86294   0.41679   0.41679   0.00000  Uiso   1.00
C3346  C     0.88595   0.40414   0.40414   0.00000  Uiso   1.00
C3347  C     0.77687   0.48218   0.48218   0.00000  Uiso   1.00
C3348  C     0.76288   0.47914   0.47914   0.00000  Uiso   1.00
C3349  C     0.74459   0.46938   0.46938   0.00000  Uiso   1.00
N3350  N     0.75168   0.48518   0.48518   0.00000  Uiso   1.00
C3351  C     0.71556   0.52552   0.52552   0.00000  Uiso   1.00
C3352  C     0.69437   0.53967   0.53967   0.00000  Uiso   1.00
N3353  N     0.68336   0.54671   0.54671   0.00000  Uiso   1.00
C3354  C     0.67045   0.54400   0.54400   0.00000  Uiso   1.00
C3355  C     0.65938   0.55137   0.55137   0.00000  Uiso   1.00
C3356  C     0.63740   0.56491   0.56491   0.00000  Uiso   1.00
C3357  C     0.62551   0.57169   0.57169   0.00000  Uiso   1.00
C3358  C     0.60272   0.58454   0.58454   0.00000  Uiso   1.00
C3359  C     0.72649   0.51782   0.51782   0.00000  Uiso   1.00
H3360  H     0.76531   0.46290   0.46290   0.00000  Uiso   1.00
H3361  H     0.80633   0.44088   0.44088   0.00000  Uiso   1.00
H3362  H     0.73805   0.46290   0.46290   0.00000  Uiso   1.00
H3363  H     0.66768   0.53627   0.53627   0.00000  Uiso   1.00
C3364  C     0.24048   0.97914   0.47914   0.00000  Uiso   1.00
C3365  C     0.25877   0.96938   0.46938   0.00000  Uiso   1.00
C3366  C     0.28779   0.97448   0.47448   0.00000  Uiso   1.00
C3367  C     0.30864   0.96009   0.46009   0.00000  Uiso   1.00
N3368  N     0.31951   0.95294   0.45294   0.00000  Uiso   1.00
C3369  C     0.31693   0.94359   0.44359   0.00000  Uiso   1.00
C3370  C     0.32846   0.93658   0.43658   0.00000  Uiso   1.00
C3371  C     0.35092   0.92345   0.42345   0.00000  Uiso   1.00
C3372  C     0.36294   0.91679   0.41679   0.00000  Uiso   1.00
C3373  C     0.38595   0.90414   0.40414   0.00000  Uiso   1.00
C3374  C     0.27687   0.98218   0.48218   0.00000  Uiso   1.00
C3375  C     0.26288   0.97914   0.47914   0.00000  Uiso   1.00
C3376  C     0.24459   0.96938   0.46938   0.00000  Uiso   1.00
N3377  N     0.25168   0.98518   0.48518   0.00000  Uiso   1.00
C3378  C     0.21556   0.02552   0.52552   0.00000  Uiso   1.00
C3379  C     0.19437   0.03967   0.53967   0.00000  Uiso   1.00
N3380  N     0.18336   0.04671   0.54671   0.00000  Uiso   1.00
C3381  C     0.17045   0.04400   0.54400   0.00000  Uiso   1.00
C3382  C     0.15938   0.05137   0.55137   0.00000  Uiso   1.00
C3383  C     0.13740   0.06491   0.56491   0.00000  Uiso   1.00
C3384  C     0.12551   0.07169   0.57169   0.00000  Uiso   1.00
C3385  C     0.10272   0.08454   0.58454   0.00000  Uiso   1.00
C3386  C     0.22649   0.01782   0.51782   0.00000  Uiso   1.00
H3387  H     0.26531   0.96290   0.46290   0.00000  Uiso   1.00
H3388  H     0.30633   0.94088   0.44088   0.00000  Uiso   1.00
H3389  H     0.23805   0.96290   0.46290   0.00000  Uiso   1.00
H3390  H     0.16768   0.03627   0.53627   0.00000  Uiso   1.00
C3391  C     0.24048   0.47914   0.97914   0.00000  Uiso   1.00
C3392  C     0.25877   0.46938   0.96938   0.00000  Uiso   1.00
C3393  C     0.28779   0.47448   0.97448   0.00000  Uiso   1.00
C3394  C     0.30864   0.46009   0.96009   0.00000  Uiso   1.00
N3395  N     0.31951   0.45294   0.95294   0.00000  Uiso   1.00
C3396  C     0.31693   0.44359   0.94359   0.00000  Uiso   1.00
C3397  C     0.32846   0.43658   0.93658   0.00000  Uiso   1.00
C3398  C     0.35092   0.42345   0.92345   0.00000  Uiso   1.00
C3399  C     0.36294   0.41679   0.91679   0.00000  Uiso   1.00
C3400  C     0.38595   0.40414   0.90414   0.00000  Uiso   1.00
C3401  C     0.27687   0.48218   0.98218   0.00000  Uiso   1.00
C3402  C     0.26288   0.47914   0.97914   0.00000  Uiso   1.00
C3403  C     0.24459   0.46938   0.96938   0.00000  Uiso   1.00
N3404  N     0.25168   0.48518   0.98518   0.00000  Uiso   1.00
C3405  C     0.21556   0.52552   0.02552   0.00000  Uiso   1.00
C3406  C     0.19437   0.53967   0.03967   0.00000  Uiso   1.00
N3407  N     0.18336   0.54671   0.04671   0.00000  Uiso   1.00
C3408  C     0.17045   0.54400   0.04400   0.00000  Uiso   1.00
C3409  C     0.15938   0.55137   0.05137   0.00000  Uiso   1.00
C3410  C     0.13740   0.56491   0.06491   0.00000  Uiso   1.00
C3411  C     0.12551   0.57169   0.07169   0.00000  Uiso   1.00
C3412  C     0.10272   0.58454   0.08454   0.00000  Uiso   1.00
C3413  C     0.22649   0.51782   0.01782   0.00000  Uiso   1.00
H3414  H     0.26531   0.46290   0.96290   0.00000  Uiso   1.00
H3415  H     0.30633   0.44088   0.94088   0.00000  Uiso   1.00
H3416  H     0.23805   0.46290   0.96290   0.00000  Uiso   1.00
H3417  H     0.16768   0.53627   0.03627   0.00000  Uiso   1.00
C3418  C     0.52086   0.24048   0.02086   0.00000  Uiso   1.00
C3419  C     0.53062   0.25877   0.03062   0.00000  Uiso   1.00
C3420  C     0.52552   0.28779   0.02552   0.00000  Uiso   1.00
C3421  C     0.53991   0.30864   0.03991   0.00000  Uiso   1.00
N3422  N     0.54706   0.31951   0.04706   0.00000  Uiso   1.00
C3423  C     0.55641   0.31693   0.05641   0.00000  Uiso   1.00
C3424  C     0.56342   0.32846   0.06342   0.00000  Uiso   1.00
C3425  C     0.57655   0.35092   0.07655   0.00000  Uiso   1.00
C3426  C     0.58321   0.36294   0.08321   0.00000  Uiso   1.00
C3427  C     0.59586   0.38595   0.09586   0.00000  Uiso   1.00
C3428  C     0.51782   0.27687   0.01782   0.00000  Uiso   1.00
C3429  C     0.52086   0.26288   0.02086   0.00000  Uiso   1.00
C3430  C     0.53062   0.24459   0.03062   0.00000  Uiso   1.00
N3431  N     0.51482   0.25168   0.01482   0.00000  Uiso   1.00
C3432  C     0.47448   0.21556   0.97448   0.00000  Uiso   1.00
C3433  C     0.46033   0.19437   0.96033   0.00000  Uiso   1.00
N3434  N     0.45329   0.18336   0.95329   0.00000  Uiso   1.00
C3435  C     0.45600   0.17045   0.95600   0.00000  Uiso   1.00
C3436  C     0.44863   0.15938   0.94863   0.00000  Uiso   1.00
C3437  C     0.43509   0.13740   0.93509   0.00000  Uiso   1.00
C3438  C     0.42831   0.12551   0.92831   0.00000  Uiso   1.00
C3439  C     0.41546   0.10272   0.91546   0.00000  Uiso   1.00
C3440  C     0.48218   0.22649   0.98218   0.00000  Uiso   1.00
H3441  H     0.53710   0.26531   0.03710   0.00000  Uiso   1.00
H3442  H     0.55912   0.30633   0.05912   0.00000  Uiso   1.00
H3443  H     0.53710   0.23805   0.03710   0.00000  Uiso   1.00
H3444  H     0.46373   0.16768   0.96373   0.00000  Uiso   1.00
C3445  C     0.52086   0.74048   0.52086   0.00000  Uiso   1.00
C3446  C     0.53062   0.75877   0.53062   0.00000  Uiso   1.00
C3447  C     0.52552   0.78779   0.52552   0.00000  Uiso   1.00
C3448  C     0.53991   0.80864   0.53991   0.00000  Uiso   1.00
N3449  N     0.54706   0.81951   0.54706   0.00000  Uiso   1.00
C3450  C     0.55641   0.81693   0.55641   0.00000  Uiso   1.00
C3451  C     0.56342   0.82846   0.56342   0.00000  Uiso   1.00
C3452  C     0.57655   0.85092   0.57655   0.00000  Uiso   1.00
C3453  C     0.58321   0.86294   0.58321   0.00000  Uiso   1.00
C3454  C     0.59586   0.88595   0.59586   0.00000  Uiso   1.00
C3455  C     0.51782   0.77687   0.51782   0.00000  Uiso   1.00
C3456  C     0.52086   0.76288   0.52086   0.00000  Uiso   1.00
C3457  C     0.53062   0.74459   0.53062   0.00000  Uiso   1.00
N3458  N     0.51482   0.75168   0.51482   0.00000  Uiso   1.00
C3459  C     0.47448   0.71556   0.47448   0.00000  Uiso   1.00
C3460  C     0.46033   0.69437   0.46033   0.00000  Uiso   1.00
N3461  N     0.45329   0.68336   0.45329   0.00000  Uiso   1.00
C3462  C     0.45600   0.67045   0.45600   0.00000  Uiso   1.00
C3463  C     0.44863   0.65938   0.44863   0.00000  Uiso   1.00
C3464  C     0.43509   0.63740   0.43509   0.00000  Uiso   1.00
C3465  C     0.42831   0.62551   0.42831   0.00000  Uiso   1.00
C3466  C     0.41546   0.60272   0.41546   0.00000  Uiso   1.00
C3467  C     0.48218   0.72649   0.48218   0.00000  Uiso   1.00
H3468  H     0.53710   0.76531   0.53710   0.00000  Uiso   1.00
H3469  H     0.55912   0.80633   0.55912   0.00000  Uiso   1.00
H3470  H     0.53710   0.73805   0.53710   0.00000  Uiso   1.00
H3471  H     0.46373   0.66768   0.46373   0.00000  Uiso   1.00
C3472  C     0.02086   0.74048   0.02086   0.00000  Uiso   1.00
C3473  C     0.03062   0.75877   0.03062   0.00000  Uiso   1.00
C3474  C     0.02552   0.78779   0.02552   0.00000  Uiso   1.00
C3475  C     0.03991   0.80864   0.03991   0.00000  Uiso   1.00
N3476  N     0.04706   0.81951   0.04706   0.00000  Uiso   1.00
C3477  C     0.05641   0.81693   0.05641   0.00000  Uiso   1.00
C3478  C     0.06342   0.82846   0.06342   0.00000  Uiso   1.00
C3479  C     0.07655   0.85092   0.07655   0.00000  Uiso   1.00
C3480  C     0.08321   0.86294   0.08321   0.00000  Uiso   1.00
C3481  C     0.09586   0.88595   0.09586   0.00000  Uiso   1.00
C3482  C     0.01782   0.77687   0.01782   0.00000  Uiso   1.00
C3483  C     0.02086   0.76288   0.02086   0.00000  Uiso   1.00
C3484  C     0.03062   0.74459   0.03062   0.00000  Uiso   1.00
N3485  N     0.01482   0.75168   0.01482   0.00000  Uiso   1.00
C3486  C     0.97448   0.71556   0.97448   0.00000  Uiso   1.00
C3487  C     0.96033   0.69437   0.96033   0.00000  Uiso   1.00
N3488  N     0.95329   0.68336   0.95329   0.00000  Uiso   1.00
C3489  C     0.95600   0.67045   0.95600   0.00000  Uiso   1.00
C3490  C     0.94863   0.65938   0.94863   0.00000  Uiso   1.00
C3491  C     0.93509   0.63740   0.93509   0.00000  Uiso   1.00
C3492  C     0.92831   0.62551   0.92831   0.00000  Uiso   1.00
C3493  C     0.91546   0.60272   0.91546   0.00000  Uiso   1.00
C3494  C     0.98218   0.72649   0.98218   0.00000  Uiso   1.00
H3495  H     0.03710   0.76531   0.03710   0.00000  Uiso   1.00
H3496  H     0.05912   0.80633   0.05912   0.00000  Uiso   1.00
H3497  H     0.03710   0.73805   0.03710   0.00000  Uiso   1.00
H3498  H     0.96373   0.66768   0.96373   0.00000  Uiso   1.00
C3499  C     0.02086   0.75952   0.47914   0.00000  Uiso   1.00
C3500  C     0.03062   0.74123   0.46938   0.00000  Uiso   1.00
C3501  C     0.02552   0.71221   0.47448   0.00000  Uiso   1.00
C3502  C     0.03991   0.69136   0.46009   0.00000  Uiso   1.00
N3503  N     0.04706   0.68049   0.45294   0.00000  Uiso   1.00
C3504  C     0.05641   0.68307   0.44359   0.00000  Uiso   1.00
C3505  C     0.06342   0.67154   0.43658   0.00000  Uiso   1.00
C3506  C     0.07655   0.64908   0.42345   0.00000  Uiso   1.00
C3507  C     0.08321   0.63706   0.41679   0.00000  Uiso   1.00
C3508  C     0.09586   0.61405   0.40414   0.00000  Uiso   1.00
C3509  C     0.01782   0.72313   0.48218   0.00000  Uiso   1.00
C3510  C     0.02086   0.73712   0.47914   0.00000  Uiso   1.00
C3511  C     0.03062   0.75541   0.46938   0.00000  Uiso   1.00
N3512  N     0.01482   0.74832   0.48518   0.00000  Uiso   1.00
C3513  C     0.97448   0.78444   0.52552   0.00000  Uiso   1.00
C3514  C     0.96033   0.80563   0.53967   0.00000  Uiso   1.00
N3515  N     0.95329   0.81664   0.54671   0.00000  Uiso   1.00
C3516  C     0.95600   0.82955   0.54400   0.00000  Uiso   1.00
C3517  C     0.94863   0.84062   0.55137   0.00000  Uiso   1.00
C3518  C     0.93509   0.86260   0.56491   0.00000  Uiso   1.00
C3519  C     0.92831   0.87449   0.57169   0.00000  Uiso   1.00
C3520  C     0.91546   0.89728   0.58454   0.00000  Uiso   1.00
C3521  C     0.98218   0.77351   0.51782   0.00000  Uiso   1.00
H3522  H     0.03710   0.73469   0.46290   0.00000  Uiso   1.00
H3523  H     0.05912   0.69367   0.44088   0.00000  Uiso   1.00
H3524  H     0.03710   0.76195   0.46290   0.00000  Uiso   1.00
H3525  H     0.96373   0.83232   0.53627   0.00000  Uiso   1.00
C3526  C     0.02086   0.25952   0.97914   0.00000  Uiso   1.00
C3527  C     0.03062   0.24123   0.96938   0.00000  Uiso   1.00
C3528  C     0.02552   0.21221   0.97448   0.00000  Uiso   1.00
C3529  C     0.03991   0.19136   0.96009   0.00000  Uiso   1.00
N3530  N     0.04706   0.18049   0.95294   0.00000  Uiso   1.00
C3531  C     0.05641   0.18307   0.94359   0.00000  Uiso   1.00
C3532  C     0.06342   0.17154   0.93658   0.00000  Uiso   1.00
C3533  C     0.07655   0.14908   0.92345   0.00000  Uiso   1.00
C3534  C     0.08321   0.13706   0.91679   0.00000  Uiso   1.00
C3535  C     0.09586   0.11405   0.90414   0.00000  Uiso   1.00
C3536  C     0.01782   0.22313   0.98218   0.00000  Uiso   1.00
C3537  C     0.02086   0.23712   0.97914   0.00000  Uiso   1.00
C3538  C     0.03062   0.25541   0.96938   0.00000  Uiso   1.00
N3539  N     0.01482   0.24832   0.98518   0.00000  Uiso   1.00
C3540  C     0.97448   0.28444   0.02552   0.00000  Uiso   1.00
C3541  C     0.96033   0.30563   0.03967   0.00000  Uiso   1.00
N3542  N     0.95329   0.31664   0.04671   0.00000  Uiso   1.00
C3543  C     0.95600   0.32955   0.04400   0.00000  Uiso   1.00
C3544  C     0.94863   0.34062   0.05137   0.00000  Uiso   1.00
C3545  C     0.93509   0.36260   0.06491   0.00000  Uiso   1.00
C3546  C     0.92831   0.37449   0.07169   0.00000  Uiso   1.00
C3547  C     0.91546   0.39728   0.08454   0.00000  Uiso   1.00
C3548  C     0.98218   0.27351   0.01782   0.00000  Uiso   1.00
H3549  H     0.03710   0.23469   0.96290   0.00000  Uiso   1.00
H3550  H     0.05912   0.19367   0.94088   0.00000  Uiso   1.00
H3551  H     0.03710   0.26195   0.96290   0.00000  Uiso   1.00
H3552  H     0.96373   0.33232   0.03627   0.00000  Uiso   1.00
C3553  C     0.52086   0.25952   0.47914   0.00000  Uiso   1.00
C3554  C     0.53062   0.24123   0.46938   0.00000  Uiso   1.00
C3555  C     0.52552   0.21221   0.47448   0.00000  Uiso   1.00
C3556  C     0.53991   0.19136   0.46009   0.00000  Uiso   1.00
N3557  N     0.54706   0.18049   0.45294   0.00000  Uiso   1.00
C3558  C     0.55641   0.18307   0.44359   0.00000  Uiso   1.00
C3559  C     0.56342   0.17154   0.43658   0.00000  Uiso   1.00
C3560  C     0.57655   0.14908   0.42345   0.00000  Uiso   1.00
C3561  C     0.58321   0.13706   0.41679   0.00000  Uiso   1.00
C3562  C     0.59586   0.11405   0.40414   0.00000  Uiso   1.00
C3563  C     0.51782   0.22313   0.48218   0.00000  Uiso   1.00
C3564  C     0.52086   0.23712   0.47914   0.00000  Uiso   1.00
C3565  C     0.53062   0.25541   0.46938   0.00000  Uiso   1.00
N3566  N     0.51482   0.24832   0.48518   0.00000  Uiso   1.00
C3567  C     0.47448   0.28444   0.52552   0.00000  Uiso   1.00
C3568  C     0.46033   0.30563   0.53967   0.00000  Uiso   1.00
N3569  N     0.45329   0.31664   0.54671   0.00000  Uiso   1.00
C3570  C     0.45600   0.32955   0.54400   0.00000  Uiso   1.00
C3571  C     0.44863   0.34062   0.55137   0.00000  Uiso   1.00
C3572  C     0.43509   0.36260   0.56491   0.00000  Uiso   1.00
C3573  C     0.42831   0.37449   0.57169   0.00000  Uiso   1.00
C3574  C     0.41546   0.39728   0.58454   0.00000  Uiso   1.00
C3575  C     0.48218   0.27351   0.51782   0.00000  Uiso   1.00
H3576  H     0.53710   0.23469   0.46290   0.00000  Uiso   1.00
H3577  H     0.55912   0.19367   0.44088   0.00000  Uiso   1.00
H3578  H     0.53710   0.26195   0.46290   0.00000  Uiso   1.00
H3579  H     0.46373   0.33232   0.53627   0.00000  Uiso   1.00
C3580  C     0.47914   0.25952   0.52086   0.00000  Uiso   1.00
C3581  C     0.46938   0.24123   0.53062   0.00000  Uiso   1.00
C3582  C     0.47448   0.21221   0.52552   0.00000  Uiso   1.00
C3583  C     0.46009   0.19136   0.53991   0.00000  Uiso   1.00
N3584  N     0.45294   0.18049   0.54706   0.00000  Uiso   1.00
C3585  C     0.44359   0.18307   0.55641   0.00000  Uiso   1.00
C3586  C     0.43658   0.17154   0.56342   0.00000  Uiso   1.00
C3587  C     0.42345   0.14908   0.57655   0.00000  Uiso   1.00
C3588  C     0.41679   0.13706   0.58321   0.00000  Uiso   1.00
C3589  C     0.40414   0.11405   0.59586   0.00000  Uiso   1.00
C3590  C     0.48218   0.22313   0.51782   0.00000  Uiso   1.00
C3591  C     0.47914   0.23712   0.52086   0.00000  Uiso   1.00
C3592  C     0.46938   0.25541   0.53062   0.00000  Uiso   1.00
N3593  N     0.48518   0.24832   0.51482   0.00000  Uiso   1.00
C3594  C     0.52552   0.28444   0.47448   0.00000  Uiso   1.00
C3595  C     0.53967   0.30563   0.46033   0.00000  Uiso   1.00
N3596  N     0.54671   0.31664   0.45329   0.00000  Uiso   1.00
C3597  C     0.54400   0.32955   0.45600   0.00000  Uiso   1.00
C3598  C     0.55137   0.34062   0.44863   0.00000  Uiso   1.00
C3599  C     0.56491   0.36260   0.43509   0.00000  Uiso   1.00
C3600  C     0.57169   0.37449   0.42831   0.00000  Uiso   1.00
C3601  C     0.58454   0.39728   0.41546   0.00000  Uiso   1.00
C3602  C     0.51782   0.27351   0.48218   0.00000  Uiso   1.00
H3603  H     0.46290   0.23469   0.53710   0.00000  Uiso   1.00
H3604  H     0.44088   0.19367   0.55912   0.00000  Uiso   1.00
H3605  H     0.46290   0.26195   0.53710   0.00000  Uiso   1.00
H3606  H     0.53627   0.33232   0.46373   0.00000  Uiso   1.00
C3607  C     0.97914   0.25952   0.02086   0.00000  Uiso   1.00
C3608  C     0.96938   0.24123   0.03062   0.00000  Uiso   1.00
C3609  C     0.97448   0.21221   0.02552   0.00000  Uiso   1.00
C3610  C     0.96009   0.19136   0.03991   0.00000  Uiso   1.00
N3611  N     0.95294   0.18049   0.04706   0.00000  Uiso   1.00
C3612  C     0.94359   0.18307   0.05641   0.00000  Uiso   1.00
C3613  C     0.93658   0.17154   0.06342   0.00000  Uiso   1.00
C3614  C     0.92345   0.14908   0.07655   0.00000  Uiso   1.00
C3615  C     0.91679   0.13706   0.08321   0.00000  Uiso   1.00
C3616  C     0.90414   0.11405   0.09586   0.00000  Uiso   1.00
C3617  C     0.98218   0.22313   0.01782   0.00000  Uiso   1.00
C3618  C     0.97914   0.23712   0.02086   0.00000  Uiso   1.00
C3619  C     0.96938   0.25541   0.03062   0.00000  Uiso   1.00
N3620  N     0.98518   0.24832   0.01482   0.00000  Uiso   1.00
C3621  C     0.02552   0.28444   0.97448   0.00000  Uiso   1.00
C3622  C     0.03967   0.30563   0.96033   0.00000  Uiso   1.00
N3623  N     0.04671   0.31664   0.95329   0.00000  Uiso   1.00
C3624  C     0.04400   0.32955   0.95600   0.00000  Uiso   1.00
C3625  C     0.05137   0.34062   0.94863   0.00000  Uiso   1.00
C3626  C     0.06491   0.36260   0.93509   0.00000  Uiso   1.00
C3627  C     0.07169   0.37449   0.92831   0.00000  Uiso   1.00
C3628  C     0.08454   0.39728   0.91546   0.00000  Uiso   1.00
C3629  C     0.01782   0.27351   0.98218   0.00000  Uiso   1.00
H3630  H     0.96290   0.23469   0.03710   0.00000  Uiso   1.00
H3631  H     0.94088   0.19367   0.05912   0.00000  Uiso   1.00
H3632  H     0.96290   0.26195   0.03710   0.00000  Uiso   1.00
H3633  H     0.03627   0.33232   0.96373   0.00000  Uiso   1.00
C3634  C     0.97914   0.74048   0.97914   0.00000  Uiso   1.00
C3635  C     0.96938   0.75877   0.96938   0.00000  Uiso   1.00
C3636  C     0.97448   0.78779   0.97448   0.00000  Uiso   1.00
C3637  C     0.96009   0.80864   0.96009   0.00000  Uiso   1.00
N3638  N     0.95294   0.81951   0.95294   0.00000  Uiso   1.00
C3639  C     0.94359   0.81693   0.94359   0.00000  Uiso   1.00
C3640  C     0.93658   0.82846   0.93658   0.00000  Uiso   1.00
C3641  C     0.92345   0.85092   0.92345   0.00000  Uiso   1.00
C3642  C     0.91679   0.86294   0.91679   0.00000  Uiso   1.00
C3643  C     0.90414   0.88595   0.90414   0.00000  Uiso   1.00
C3644  C     0.98218   0.77687   0.98218   0.00000  Uiso   1.00
C3645  C     0.97914   0.76288   0.97914   0.00000  Uiso   1.00
C3646  C     0.96938   0.74459   0.96938   0.00000  Uiso   1.00
N3647  N     0.98518   0.75168   0.98518   0.00000  Uiso   1.00
C3648  C     0.02552   0.71556   0.02552   0.00000  Uiso   1.00
C3649  C     0.03967   0.69437   0.03967   0.00000  Uiso   1.00
N3650  N     0.04671   0.68336   0.04671   0.00000  Uiso   1.00
C3651  C     0.04400   0.67045   0.04400   0.00000  Uiso   1.00
C3652  C     0.05137   0.65938   0.05137   0.00000  Uiso   1.00
C3653  C     0.06491   0.63740   0.06491   0.00000  Uiso   1.00
C3654  C     0.07169   0.62551   0.07169   0.00000  Uiso   1.00
C3655  C     0.08454   0.60272   0.08454   0.00000  Uiso   1.00
C3656  C     0.01782   0.72649   0.01782   0.00000  Uiso   1.00
H3657  H     0.96290   0.76531   0.96290   0.00000  Uiso   1.00
H3658  H     0.94088   0.80633   0.94088   0.00000  Uiso   1.00
H3659  H     0.96290   0.73805   0.96290   0.00000  Uiso   1.00
H3660  H     0.03627   0.66768   0.03627   0.00000  Uiso   1.00
C3661  C     0.97914   0.24048   0.47914   0.00000  Uiso   1.00
C3662  C     0.96938   0.25877   0.46938   0.00000  Uiso   1.00
C3663  C     0.97448   0.28779   0.47448   0.00000  Uiso   1.00
C3664  C     0.96009   0.30864   0.46009   0.00000  Uiso   1.00
N3665  N     0.95294   0.31951   0.45294   0.00000  Uiso   1.00
C3666  C     0.94359   0.31693   0.44359   0.00000  Uiso   1.00
C3667  C     0.93658   0.32846   0.43658   0.00000  Uiso   1.00
C3668  C     0.92345   0.35092   0.42345   0.00000  Uiso   1.00
C3669  C     0.91679   0.36294   0.41679   0.00000  Uiso   1.00
C3670  C     0.90414   0.38595   0.40414   0.00000  Uiso   1.00
C3671  C     0.98218   0.27687   0.48218   0.00000  Uiso   1.00
C3672  C     0.97914   0.26288   0.47914   0.00000  Uiso   1.00
C3673  C     0.96938   0.24459   0.46938   0.00000  Uiso   1.00
N3674  N     0.98518   0.25168   0.48518   0.00000  Uiso   1.00
C3675  C     0.02552   0.21556   0.52552   0.00000  Uiso   1.00
C3676  C     0.03967   0.19437   0.53967   0.00000  Uiso   1.00
N3677  N     0.04671   0.18336   0.54671   0.00000  Uiso   1.00
C3678  C     0.04400   0.17045   0.54400   0.00000  Uiso   1.00
C3679  C     0.05137   0.15938   0.55137   0.00000  Uiso   1.00
C3680  C     0.06491   0.13740   0.56491   0.00000  Uiso   1.00
C3681  C     0.07169   0.12551   0.57169   0.00000  Uiso   1.00
C3682  C     0.08454   0.10272   0.58454   0.00000  Uiso   1.00
C3683  C     0.01782   0.22649   0.51782   0.00000  Uiso   1.00
H3684  H     0.96290   0.26531   0.46290   0.00000  Uiso   1.00
H3685  H     0.94088   0.30633   0.44088   0.00000  Uiso   1.00
H3686  H     0.96290   0.23805   0.46290   0.00000  Uiso   1.00
H3687  H     0.03627   0.16768   0.53627   0.00000  Uiso   1.00
C3688  C     0.47914   0.74048   0.47914   0.00000  Uiso   1.00
C3689  C     0.46938   0.75877   0.46938   0.00000  Uiso   1.00
C3690  C     0.47448   0.78779   0.47448   0.00000  Uiso   1.00
C3691  C     0.46009   0.80864   0.46009   0.00000  Uiso   1.00
N3692  N     0.45294   0.81951   0.45294   0.00000  Uiso   1.00
C3693  C     0.44359   0.81693   0.44359   0.00000  Uiso   1.00
C3694  C     0.43658   0.82846   0.43658   0.00000  Uiso   1.00
C3695  C     0.42345   0.85092   0.42345   0.00000  Uiso   1.00
C3696  C     0.41679   0.86294   0.41679   0.00000  Uiso   1.00
C3697  C     0.40414   0.88595   0.40414   0.00000  Uiso   1.00
C3698  C     0.48218   0.77687   0.48218   0.00000  Uiso   1.00
C3699  C     0.47914   0.76288   0.47914   0.00000  Uiso   1.00
C3700  C     0.46938   0.74459   0.46938   0.00000  Uiso   1.00
N3701  N     0.48518   0.75168   0.48518   0.00000  Uiso   1.00
C3702  C     0.52552   0.71556   0.52552   0.00000  Uiso   1.00
C3703  C     0.53967   0.69437   0.53967   0.00000  Uiso   1.00
N3704  N     0.54671   0.68336   0.54671   0.00000  Uiso   1.00
C3705  C     0.54400   0.67045   0.54400   0.00000  Uiso   1.00
C3706  C     0.55137   0.65938   0.55137   0.00000  Uiso   1.00
C3707  C     0.56491   0.63740   0.56491   0.00000  Uiso   1.00
C3708  C     0.57169   0.62551   0.57169   0.00000  Uiso   1.00
C3709  C     0.58454   0.60272   0.58454   0.00000  Uiso   1.00
C3710  C     0.51782   0.72649   0.51782   0.00000  Uiso   1.00
H3711  H     0.46290   0.76531   0.46290   0.00000  Uiso   1.00
H3712  H     0.44088   0.80633   0.44088   0.00000  Uiso   1.00
H3713  H     0.46290   0.73805   0.46290   0.00000  Uiso   1.00
H3714  H     0.53627   0.66768   0.53627   0.00000  Uiso   1.00
C3715  C     0.47914   0.24048   0.97914   0.00000  Uiso   1.00
C3716  C     0.46938   0.25877   0.96938   0.00000  Uiso   1.00
C3717  C     0.47448   0.28779   0.97448   0.00000  Uiso   1.00
C3718  C     0.46009   0.30864   0.96009   0.00000  Uiso   1.00
N3719  N     0.45294   0.31951   0.95294   0.00000  Uiso   1.00
C3720  C     0.44359   0.31693   0.94359   0.00000  Uiso   1.00
C3721  C     0.43658   0.32846   0.93658   0.00000  Uiso   1.00
C3722  C     0.42345   0.35092   0.92345   0.00000  Uiso   1.00
C3723  C     0.41679   0.36294   0.91679   0.00000  Uiso   1.00
C3724  C     0.40414   0.38595   0.90414   0.00000  Uiso   1.00
C3725  C     0.48218   0.27687   0.98218   0.00000  Uiso   1.00
C3726  C     0.47914   0.26288   0.97914   0.00000  Uiso   1.00
C3727  C     0.46938   0.24459   0.96938   0.00000  Uiso   1.00
N3728  N     0.48518   0.25168   0.98518   0.00000  Uiso   1.00
C3729  C     0.52552   0.21556   0.02552   0.00000  Uiso   1.00
C3730  C     0.53967   0.19437   0.03967   0.00000  Uiso   1.00
N3731  N     0.54671   0.18336   0.04671   0.00000  Uiso   1.00
C3732  C     0.54400   0.17045   0.04400   0.00000  Uiso   1.00
C3733  C     0.55137   0.15938   0.05137   0.00000  Uiso   1.00
C3734  C     0.56491   0.13740   0.06491   0.00000  Uiso   1.00
C3735  C     0.57169   0.12551   0.07169   0.00000  Uiso   1.00
C3736  C     0.58454   0.10272   0.08454   0.00000  Uiso   1.00
C3737  C     0.51782   0.22649   0.01782   0.00000  Uiso   1.00
H3738  H     0.46290   0.26531   0.96290   0.00000  Uiso   1.00
H3739  H     0.44088   0.30633   0.94088   0.00000  Uiso   1.00
H3740  H     0.46290   0.23805   0.96290   0.00000  Uiso   1.00
H3741  H     0.53627   0.16768   0.03627   0.00000  Uiso   1.00
C3742  C     0.02086   0.52086   0.24048   0.00000  Uiso   1.00
C3743  C     0.03062   0.53062   0.25877   0.00000  Uiso   1.00
C3744  C     0.02552   0.52552   0.28779   0.00000  Uiso   1.00
C3745  C     0.03991   0.53991   0.30864   0.00000  Uiso   1.00
N3746  N     0.04706   0.54706   0.31951   0.00000  Uiso   1.00
C3747  C     0.05641   0.55641   0.31693   0.00000  Uiso   1.00
C3748  C     0.06342   0.56342   0.32846   0.00000  Uiso   1.00
C3749  C     0.07655   0.57655   0.35092   0.00000  Uiso   1.00
C3750  C     0.08321   0.58321   0.36294   0.00000  Uiso   1.00
C3751  C     0.09586   0.59586   0.38595   0.00000  Uiso   1.00
C3752  C     0.01782   0.51782   0.27687   0.00000  Uiso   1.00
C3753  C     0.02086   0.52086   0.26288   0.00000  Uiso   1.00
C3754  C     0.03062   0.53062   0.24459   0.00000  Uiso   1.00
N3755  N     0.01482   0.51482   0.25168   0.00000  Uiso   1.00
C3756  C     0.97448   0.47448   0.21556   0.00000  Uiso   1.00
C3757  C     0.96033   0.46033   0.19437   0.00000  Uiso   1.00
N3758  N     0.95329   0.45329   0.18336   0.00000  Uiso   1.00
C3759  C     0.95600   0.45600   0.17045   0.00000  Uiso   1.00
C3760  C     0.94863   0.44863   0.15938   0.00000  Uiso   1.00
C3761  C     0.93509   0.43509   0.13740   0.00000  Uiso   1.00
C3762  C     0.92831   0.42831   0.12551   0.00000  Uiso   1.00
C3763  C     0.91546   0.41546   0.10272   0.00000  Uiso   1.00
C3764  C     0.98218   0.48218   0.22649   0.00000  Uiso   1.00
H3765  H     0.03710   0.53710   0.26531   0.00000  Uiso   1.00
H3766  H     0.05912   0.55912   0.30633   0.00000  Uiso   1.00
H3767  H     0.03710   0.53710   0.23805   0.00000  Uiso   1.00
H3768  H     0.96373   0.46373   0.16768   0.00000  Uiso   1.00
C3769  C     0.02086   0.02086   0.74048   0.00000  Uiso   1.00
C3770  C     0.03062   0.03062   0.75877   0.00000  Uiso   1.00
C3771  C     0.02552   0.02552   0.78779   0.00000  Uiso   1.00
C3772  C     0.03991   0.03991   0.80864   0.00000  Uiso   1.00
N3773  N     0.04706   0.04706   0.81951   0.00000  Uiso   1.00
C3774  C     0.05641   0.05641   0.81693   0.00000  Uiso   1.00
C3775  C     0.06342   0.06342   0.82846   0.00000  Uiso   1.00
C3776  C     0.07655   0.07655   0.85092   0.00000  Uiso   1.00
C3777  C     0.08321   0.08321   0.86294   0.00000  Uiso   1.00
C3778  C     0.09586   0.09586   0.88595   0.00000  Uiso   1.00
C3779  C     0.01782   0.01782   0.77687   0.00000  Uiso   1.00
C3780  C     0.02086   0.02086   0.76288   0.00000  Uiso   1.00
C3781  C     0.03062   0.03062   0.74459   0.00000  Uiso   1.00
N3782  N     0.01482   0.01482   0.75168   0.00000  Uiso   1.00
C3783  C     0.97448   0.97448   0.71556   0.00000  Uiso   1.00
C3784  C     0.96033   0.96033   0.69437   0.00000  Uiso   1.00
N3785  N     0.95329   0.95329   0.68336   0.00000  Uiso   1.00
C3786  C     0.95600   0.95600   0.67045   0.00000  Uiso   1.00
C3787  C     0.94863   0.94863   0.65938   0.00000  Uiso   1.00
C3788  C     0.93509   0.93509   0.63740   0.00000  Uiso   1.00
C3789  C     0.92831   0.92831   0.62551   0.00000  Uiso   1.00
C3790  C     0.91546   0.91546   0.60272   0.00000  Uiso   1.00
C3791  C     0.98218   0.98218   0.72649   0.00000  Uiso   1.00
H3792  H     0.03710   0.03710   0.76531   0.00000  Uiso   1.00
H3793  H     0.05912   0.05912   0.80633   0.00000  Uiso   1.00
H3794  H     0.03710   0.03710   0.73805   0.00000  Uiso   1.00
H3795  H     0.96373   0.96373   0.66768   0.00000  Uiso   1.00
C3796  C     0.47914   0.02086   0.75952   0.00000  Uiso   1.00
C3797  C     0.46938   0.03062   0.74123   0.00000  Uiso   1.00
C3798  C     0.47448   0.02552   0.71221   0.00000  Uiso   1.00
C3799  C     0.46009   0.03991   0.69136   0.00000  Uiso   1.00
N3800  N     0.45294   0.04706   0.68049   0.00000  Uiso   1.00
C3801  C     0.44359   0.05641   0.68307   0.00000  Uiso   1.00
C3802  C     0.43658   0.06342   0.67154   0.00000  Uiso   1.00
C3803  C     0.42345   0.07655   0.64908   0.00000  Uiso   1.00
C3804  C     0.41679   0.08321   0.63706   0.00000  Uiso   1.00
C3805  C     0.40414   0.09586   0.61405   0.00000  Uiso   1.00
C3806  C     0.48218   0.01782   0.72313   0.00000  Uiso   1.00
C3807  C     0.47914   0.02086   0.73712   0.00000  Uiso   1.00
C3808  C     0.46938   0.03062   0.75541   0.00000  Uiso   1.00
N3809  N     0.48518   0.01482   0.74832   0.00000  Uiso   1.00
C3810  C     0.52552   0.97448   0.78444   0.00000  Uiso   1.00
C3811  C     0.53967   0.96033   0.80563   0.00000  Uiso   1.00
N3812  N     0.54671   0.95329   0.81664   0.00000  Uiso   1.00
C3813  C     0.54400   0.95600   0.82955   0.00000  Uiso   1.00
C3814  C     0.55137   0.94863   0.84062   0.00000  Uiso   1.00
C3815  C     0.56491   0.93509   0.86260   0.00000  Uiso   1.00
C3816  C     0.57169   0.92831   0.87449   0.00000  Uiso   1.00
C3817  C     0.58454   0.91546   0.89728   0.00000  Uiso   1.00
C3818  C     0.51782   0.98218   0.77351   0.00000  Uiso   1.00
H3819  H     0.46290   0.03710   0.73469   0.00000  Uiso   1.00
H3820  H     0.44088   0.05912   0.69367   0.00000  Uiso   1.00
H3821  H     0.46290   0.03710   0.76195   0.00000  Uiso   1.00
H3822  H     0.53627   0.96373   0.83232   0.00000  Uiso   1.00
C3823  C     0.47914   0.52086   0.25952   0.00000  Uiso   1.00
C3824  C     0.46938   0.53062   0.24123   0.00000  Uiso   1.00
C3825  C     0.47448   0.52552   0.21221   0.00000  Uiso   1.00
C3826  C     0.46009   0.53991   0.19136   0.00000  Uiso   1.00
N3827  N     0.45294   0.54706   0.18049   0.00000  Uiso   1.00
C3828  C     0.44359   0.55641   0.18307   0.00000  Uiso   1.00
C3829  C     0.43658   0.56342   0.17154   0.00000  Uiso   1.00
C3830  C     0.42345   0.57655   0.14908   0.00000  Uiso   1.00
C3831  C     0.41679   0.58321   0.13706   0.00000  Uiso   1.00
C3832  C     0.40414   0.59586   0.11405   0.00000  Uiso   1.00
C3833  C     0.48218   0.51782   0.22313   0.00000  Uiso   1.00
C3834  C     0.47914   0.52086   0.23712   0.00000  Uiso   1.00
C3835  C     0.46938   0.53062   0.25541   0.00000  Uiso   1.00
N3836  N     0.48518   0.51482   0.24832   0.00000  Uiso   1.00
C3837  C     0.52552   0.47448   0.28444   0.00000  Uiso   1.00
C3838  C     0.53967   0.46033   0.30563   0.00000  Uiso   1.00
N3839  N     0.54671   0.45329   0.31664   0.00000  Uiso   1.00
C3840  C     0.54400   0.45600   0.32955   0.00000  Uiso   1.00
C3841  C     0.55137   0.44863   0.34062   0.00000  Uiso   1.00
C3842  C     0.56491   0.43509   0.36260   0.00000  Uiso   1.00
C3843  C     0.57169   0.42831   0.37449   0.00000  Uiso   1.00
C3844  C     0.58454   0.41546   0.39728   0.00000  Uiso   1.00
C3845  C     0.51782   0.48218   0.27351   0.00000  Uiso   1.00
H3846  H     0.46290   0.53710   0.23469   0.00000  Uiso   1.00
H3847  H     0.44088   0.55912   0.19367   0.00000  Uiso   1.00
H3848  H     0.46290   0.53710   0.26195   0.00000  Uiso   1.00
H3849  H     0.53627   0.46373   0.33232   0.00000  Uiso   1.00
C3850  C     0.97914   0.02086   0.25952   0.00000  Uiso   1.00
C3851  C     0.96938   0.03062   0.24123   0.00000  Uiso   1.00
C3852  C     0.97448   0.02552   0.21221   0.00000  Uiso   1.00
C3853  C     0.96009   0.03991   0.19136   0.00000  Uiso   1.00
N3854  N     0.95294   0.04706   0.18049   0.00000  Uiso   1.00
C3855  C     0.94359   0.05641   0.18307   0.00000  Uiso   1.00
C3856  C     0.93658   0.06342   0.17154   0.00000  Uiso   1.00
C3857  C     0.92345   0.07655   0.14908   0.00000  Uiso   1.00
C3858  C     0.91679   0.08321   0.13706   0.00000  Uiso   1.00
C3859  C     0.90414   0.09586   0.11405   0.00000  Uiso   1.00
C3860  C     0.98218   0.01782   0.22313   0.00000  Uiso   1.00
C3861  C     0.97914   0.02086   0.23712   0.00000  Uiso   1.00
C3862  C     0.96938   0.03062   0.25541   0.00000  Uiso   1.00
N3863  N     0.98518   0.01482   0.24832   0.00000  Uiso   1.00
C3864  C     0.02552   0.97448   0.28444   0.00000  Uiso   1.00
C3865  C     0.03967   0.96033   0.30563   0.00000  Uiso   1.00
N3866  N     0.04671   0.95329   0.31664   0.00000  Uiso   1.00
C3867  C     0.04400   0.95600   0.32955   0.00000  Uiso   1.00
C3868  C     0.05137   0.94863   0.34062   0.00000  Uiso   1.00
C3869  C     0.06491   0.93509   0.36260   0.00000  Uiso   1.00
C3870  C     0.07169   0.92831   0.37449   0.00000  Uiso   1.00
C3871  C     0.08454   0.91546   0.39728   0.00000  Uiso   1.00
C3872  C     0.01782   0.98218   0.27351   0.00000  Uiso   1.00
H3873  H     0.96290   0.03710   0.23469   0.00000  Uiso   1.00
H3874  H     0.94088   0.05912   0.19367   0.00000  Uiso   1.00
H3875  H     0.96290   0.03710   0.26195   0.00000  Uiso   1.00
H3876  H     0.03627   0.96373   0.33232   0.00000  Uiso   1.00
C3877  C     0.52086   0.47914   0.25952   0.00000  Uiso   1.00
C3878  C     0.53062   0.46938   0.24123   0.00000  Uiso   1.00
C3879  C     0.52552   0.47448   0.21221   0.00000  Uiso   1.00
C3880  C     0.53991   0.46009   0.19136   0.00000  Uiso   1.00
N3881  N     0.54706   0.45294   0.18049   0.00000  Uiso   1.00
C3882  C     0.55641   0.44359   0.18307   0.00000  Uiso   1.00
C3883  C     0.56342   0.43658   0.17154   0.00000  Uiso   1.00
C3884  C     0.57655   0.42345   0.14908   0.00000  Uiso   1.00
C3885  C     0.58321   0.41679   0.13706   0.00000  Uiso   1.00
C3886  C     0.59586   0.40414   0.11405   0.00000  Uiso   1.00
C3887  C     0.51782   0.48218   0.22313   0.00000  Uiso   1.00
C3888  C     0.52086   0.47914   0.23712   0.00000  Uiso   1.00
C3889  C     0.53062   0.46938   0.25541   0.00000  Uiso   1.00
N3890  N     0.51482   0.48518   0.24832   0.00000  Uiso   1.00
C3891  C     0.47448   0.52552   0.28444   0.00000  Uiso   1.00
C3892  C     0.46033   0.53967   0.30563   0.00000  Uiso   1.00
N3893  N     0.45329   0.54671   0.31664   0.00000  Uiso   1.00
C3894  C     0.45600   0.54400   0.32955   0.00000  Uiso   1.00
C3895  C     0.44863   0.55137   0.34062   0.00000  Uiso   1.00
C3896  C     0.43509   0.56491   0.36260   0.00000  Uiso   1.00
C3897  C     0.42831   0.57169   0.37449   0.00000  Uiso   1.00
C3898  C     0.41546   0.58454   0.39728   0.00000  Uiso   1.00
C3899  C     0.48218   0.51782   0.27351   0.00000  Uiso   1.00
H3900  H     0.53710   0.46290   0.23469   0.00000  Uiso   1.00
H3901  H     0.55912   0.44088   0.19367   0.00000  Uiso   1.00
H3902  H     0.53710   0.46290   0.26195   0.00000  Uiso   1.00
H3903  H     0.46373   0.53627   0.33232   0.00000  Uiso   1.00
C3904  C     0.52086   0.97914   0.75952   0.00000  Uiso   1.00
C3905  C     0.53062   0.96938   0.74123   0.00000  Uiso   1.00
C3906  C     0.52552   0.97448   0.71221   0.00000  Uiso   1.00
C3907  C     0.53991   0.96009   0.69136   0.00000  Uiso   1.00
N3908  N     0.54706   0.95294   0.68049   0.00000  Uiso   1.00
C3909  C     0.55641   0.94359   0.68307   0.00000  Uiso   1.00
C3910  C     0.56342   0.93658   0.67154   0.00000  Uiso   1.00
C3911  C     0.57655   0.92345   0.64908   0.00000  Uiso   1.00
C3912  C     0.58321   0.91679   0.63706   0.00000  Uiso   1.00
C3913  C     0.59586   0.90414   0.61405   0.00000  Uiso   1.00
C3914  C     0.51782   0.98218   0.72313   0.00000  Uiso   1.00
C3915  C     0.52086   0.97914   0.73712   0.00000  Uiso   1.00
C3916  C     0.53062   0.96938   0.75541   0.00000  Uiso   1.00
N3917  N     0.51482   0.98518   0.74832   0.00000  Uiso   1.00
C3918  C     0.47448   0.02552   0.78444   0.00000  Uiso   1.00
C3919  C     0.46033   0.03967   0.80563   0.00000  Uiso   1.00
N3920  N     0.45329   0.04671   0.81664   0.00000  Uiso   1.00
C3921  C     0.45600   0.04400   0.82955   0.00000  Uiso   1.00
C3922  C     0.44863   0.05137   0.84062   0.00000  Uiso   1.00
C3923  C     0.43509   0.06491   0.86260   0.00000  Uiso   1.00
C3924  C     0.42831   0.07169   0.87449   0.00000  Uiso   1.00
C3925  C     0.41546   0.08454   0.89728   0.00000  Uiso   1.00
C3926  C     0.48218   0.01782   0.77351   0.00000  Uiso   1.00
H3927  H     0.53710   0.96290   0.73469   0.00000  Uiso   1.00
H3928  H     0.55912   0.94088   0.69367   0.00000  Uiso   1.00
H3929  H     0.53710   0.96290   0.76195   0.00000  Uiso   1.00
H3930  H     0.46373   0.03627   0.83232   0.00000  Uiso   1.00
C3931  C     0.97914   0.97914   0.74048   0.00000  Uiso   1.00
C3932  C     0.96938   0.96938   0.75877   0.00000  Uiso   1.00
C3933  C     0.97448   0.97448   0.78779   0.00000  Uiso   1.00
C3934  C     0.96009   0.96009   0.80864   0.00000  Uiso   1.00
N3935  N     0.95294   0.95294   0.81951   0.00000  Uiso   1.00
C3936  C     0.94359   0.94359   0.81693   0.00000  Uiso   1.00
C3937  C     0.93658   0.93658   0.82846   0.00000  Uiso   1.00
C3938  C     0.92345   0.92345   0.85092   0.00000  Uiso   1.00
C3939  C     0.91679   0.91679   0.86294   0.00000  Uiso   1.00
C3940  C     0.90414   0.90414   0.88595   0.00000  Uiso   1.00
C3941  C     0.98218   0.98218   0.77687   0.00000  Uiso   1.00
C3942  C     0.97914   0.97914   0.76288   0.00000  Uiso   1.00
C3943  C     0.96938   0.96938   0.74459   0.00000  Uiso   1.00
N3944  N     0.98518   0.98518   0.75168   0.00000  Uiso   1.00
C3945  C     0.02552   0.02552   0.71556   0.00000  Uiso   1.00
C3946  C     0.03967   0.03967   0.69437   0.00000  Uiso   1.00
N3947  N     0.04671   0.04671   0.68336   0.00000  Uiso   1.00
C3948  C     0.04400   0.04400   0.67045   0.00000  Uiso   1.00
C3949  C     0.05137   0.05137   0.65938   0.00000  Uiso   1.00
C3950  C     0.06491   0.06491   0.63740   0.00000  Uiso   1.00
C3951  C     0.07169   0.07169   0.62551   0.00000  Uiso   1.00
C3952  C     0.08454   0.08454   0.60272   0.00000  Uiso   1.00
C3953  C     0.01782   0.01782   0.72649   0.00000  Uiso   1.00
H3954  H     0.96290   0.96290   0.76531   0.00000  Uiso   1.00
H3955  H     0.94088   0.94088   0.80633   0.00000  Uiso   1.00
H3956  H     0.96290   0.96290   0.73805   0.00000  Uiso   1.00
H3957  H     0.03627   0.03627   0.66768   0.00000  Uiso   1.00
C3958  C     0.97914   0.47914   0.24048   0.00000  Uiso   1.00
C3959  C     0.96938   0.46938   0.25877   0.00000  Uiso   1.00
C3960  C     0.97448   0.47448   0.28779   0.00000  Uiso   1.00
C3961  C     0.96009   0.46009   0.30864   0.00000  Uiso   1.00
N3962  N     0.95294   0.45294   0.31951   0.00000  Uiso   1.00
C3963  C     0.94359   0.44359   0.31693   0.00000  Uiso   1.00
C3964  C     0.93658   0.43658   0.32846   0.00000  Uiso   1.00
C3965  C     0.92345   0.42345   0.35092   0.00000  Uiso   1.00
C3966  C     0.91679   0.41679   0.36294   0.00000  Uiso   1.00
C3967  C     0.90414   0.40414   0.38595   0.00000  Uiso   1.00
C3968  C     0.98218   0.48218   0.27687   0.00000  Uiso   1.00
C3969  C     0.97914   0.47914   0.26288   0.00000  Uiso   1.00
C3970  C     0.96938   0.46938   0.24459   0.00000  Uiso   1.00
N3971  N     0.98518   0.48518   0.25168   0.00000  Uiso   1.00
C3972  C     0.02552   0.52552   0.21556   0.00000  Uiso   1.00
C3973  C     0.03967   0.53967   0.19437   0.00000  Uiso   1.00
N3974  N     0.04671   0.54671   0.18336   0.00000  Uiso   1.00
C3975  C     0.04400   0.54400   0.17045   0.00000  Uiso   1.00
C3976  C     0.05137   0.55137   0.15938   0.00000  Uiso   1.00
C3977  C     0.06491   0.56491   0.13740   0.00000  Uiso   1.00
C3978  C     0.07169   0.57169   0.12551   0.00000  Uiso   1.00
C3979  C     0.08454   0.58454   0.10272   0.00000  Uiso   1.00
C3980  C     0.01782   0.51782   0.22649   0.00000  Uiso   1.00
H3981  H     0.96290   0.46290   0.26531   0.00000  Uiso   1.00
H3982  H     0.94088   0.44088   0.30633   0.00000  Uiso   1.00
H3983  H     0.96290   0.46290   0.23805   0.00000  Uiso   1.00
H3984  H     0.03627   0.53627   0.16768   0.00000  Uiso   1.00
C3985  C     0.47914   0.97914   0.24048   0.00000  Uiso   1.00
C3986  C     0.46938   0.96938   0.25877   0.00000  Uiso   1.00
C3987  C     0.47448   0.97448   0.28779   0.00000  Uiso   1.00
C3988  C     0.46009   0.96009   0.30864   0.00000  Uiso   1.00
N3989  N     0.45294   0.95294   0.31951   0.00000  Uiso   1.00
C3990  C     0.44359   0.94359   0.31693   0.00000  Uiso   1.00
C3991  C     0.43658   0.93658   0.32846   0.00000  Uiso   1.00
C3992  C     0.42345   0.92345   0.35092   0.00000  Uiso   1.00
C3993  C     0.41679   0.91679   0.36294   0.00000  Uiso   1.00
C3994  C     0.40414   0.90414   0.38595   0.00000  Uiso   1.00
C3995  C     0.48218   0.98218   0.27687   0.00000  Uiso   1.00
C3996  C     0.47914   0.97914   0.26288   0.00000  Uiso   1.00
C3997  C     0.46938   0.96938   0.24459   0.00000  Uiso   1.00
N3998  N     0.48518   0.98518   0.25168   0.00000  Uiso   1.00
C3999  C     0.52552   0.02552   0.21556   0.00000  Uiso   1.00
C4000  C     0.53967   0.03967   0.19437   0.00000  Uiso   1.00
N4001  N     0.54671   0.04671   0.18336   0.00000  Uiso   1.00
C4002  C     0.54400   0.04400   0.17045   0.00000  Uiso   1.00
C4003  C     0.55137   0.05137   0.15938   0.00000  Uiso   1.00
C4004  C     0.56491   0.06491   0.13740   0.00000  Uiso   1.00
C4005  C     0.57169   0.07169   0.12551   0.00000  Uiso   1.00
C4006  C     0.58454   0.08454   0.10272   0.00000  Uiso   1.00
C4007  C     0.51782   0.01782   0.22649   0.00000  Uiso   1.00
H4008  H     0.46290   0.96290   0.26531   0.00000  Uiso   1.00
H4009  H     0.44088   0.94088   0.30633   0.00000  Uiso   1.00
H4010  H     0.46290   0.96290   0.23805   0.00000  Uiso   1.00
H4011  H     0.53627   0.03627   0.16768   0.00000  Uiso   1.00
C4012  C     0.47914   0.47914   0.74048   0.00000  Uiso   1.00
C4013  C     0.46938   0.46938   0.75877   0.00000  Uiso   1.00
C4014  C     0.47448   0.47448   0.78779   0.00000  Uiso   1.00
C4015  C     0.46009   0.46009   0.80864   0.00000  Uiso   1.00
N4016  N     0.45294   0.45294   0.81951   0.00000  Uiso   1.00
C4017  C     0.44359   0.44359   0.81693   0.00000  Uiso   1.00
C4018  C     0.43658   0.43658   0.82846   0.00000  Uiso   1.00
C4019  C     0.42345   0.42345   0.85092   0.00000  Uiso   1.00
C4020  C     0.41679   0.41679   0.86294   0.00000  Uiso   1.00
C4021  C     0.40414   0.40414   0.88595   0.00000  Uiso   1.00
C4022  C     0.48218   0.48218   0.77687   0.00000  Uiso   1.00
C4023  C     0.47914   0.47914   0.76288   0.00000  Uiso   1.00
C4024  C     0.46938   0.46938   0.74459   0.00000  Uiso   1.00
N4025  N     0.48518   0.48518   0.75168   0.00000  Uiso   1.00
C4026  C     0.52552   0.52552   0.71556   0.00000  Uiso   1.00
C4027  C     0.53967   0.53967   0.69437   0.00000  Uiso   1.00
N4028  N     0.54671   0.54671   0.68336   0.00000  Uiso   1.00
C4029  C     0.54400   0.54400   0.67045   0.00000  Uiso   1.00
C4030  C     0.55137   0.55137   0.65938   0.00000  Uiso   1.00
C4031  C     0.56491   0.56491   0.63740   0.00000  Uiso   1.00
C4032  C     0.57169   0.57169   0.62551   0.00000  Uiso   1.00
C4033  C     0.58454   0.58454   0.60272   0.00000  Uiso   1.00
C4034  C     0.51782   0.51782   0.72649   0.00000  Uiso   1.00
H4035  H     0.46290   0.46290   0.76531   0.00000  Uiso   1.00
H4036  H     0.44088   0.44088   0.80633   0.00000  Uiso   1.00
H4037  H     0.46290   0.46290   0.73805   0.00000  Uiso   1.00
H4038  H     0.53627   0.53627   0.66768   0.00000  Uiso   1.00
C4039  C     0.77086   0.49048   0.22914   0.00000  Uiso   1.00
C4040  C     0.78062   0.50877   0.21938   0.00000  Uiso   1.00
C4041  C     0.77552   0.53779   0.22448   0.00000  Uiso   1.00
C4042  C     0.78991   0.55864   0.21009   0.00000  Uiso   1.00
N4043  N     0.79706   0.56951   0.20294   0.00000  Uiso   1.00
C4044  C     0.80641   0.56693   0.19359   0.00000  Uiso   1.00
C4045  C     0.81342   0.57846   0.18658   0.00000  Uiso   1.00
C4046  C     0.82655   0.60092   0.17345   0.00000  Uiso   1.00
C4047  C     0.83321   0.61294   0.16679   0.00000  Uiso   1.00
C4048  C     0.84586   0.63595   0.15414   0.00000  Uiso   1.00
C4049  C     0.76782   0.52687   0.23218   0.00000  Uiso   1.00
C4050  C     0.77086   0.51288   0.22914   0.00000  Uiso   1.00
C4051  C     0.78062   0.49459   0.21938   0.00000  Uiso   1.00
N4052  N     0.76482   0.50168   0.23518   0.00000  Uiso   1.00
C4053  C     0.72448   0.46556   0.27552   0.00000  Uiso   1.00
C4054  C     0.71033   0.44437   0.28967   0.00000  Uiso   1.00
N4055  N     0.70329   0.43336   0.29671   0.00000  Uiso   1.00
C4056  C     0.70600   0.42045   0.29400   0.00000  Uiso   1.00
C4057  C     0.69863   0.40938   0.30137   0.00000  Uiso   1.00
C4058  C     0.68509   0.38740   0.31491   0.00000  Uiso   1.00
C4059  C     0.67831   0.37551   0.32169   0.00000  Uiso   1.00
C4060  C     0.66546   0.35272   0.33454   0.00000  Uiso   1.00
C4061  C     0.73218   0.47649   0.26782   0.00000  Uiso   1.00
H4062  H     0.78710   0.51531   0.21290   0.00000  Uiso   1.00
H4063  H     0.80912   0.55633   0.19088   0.00000  Uiso   1.00
H4064  H     0.78710   0.48805   0.21290   0.00000  Uiso   1.00
H4065  H     0.71373   0.41768   0.28627   0.00000  Uiso   1.00
C4066  C     0.27086   0.49048   0.72914   0.00000  Uiso   1.00
C4067  C     0.28062   0.50877   0.71938   0.00000  Uiso   1.00
C4068  C     0.27552   0.53779   0.72448   0.00000  Uiso   1.00
C4069  C     0.28991   0.55864   0.71009   0.00000  Uiso   1.00
N4070  N     0.29706   0.56951   0.70294   0.00000  Uiso   1.00
C4071  C     0.30641   0.56693   0.69359   0.00000  Uiso   1.00
C4072  C     0.31342   0.57846   0.68658   0.00000  Uiso   1.00
C4073  C     0.32655   0.60092   0.67345   0.00000  Uiso   1.00
C4074  C     0.33321   0.61294   0.66679   0.00000  Uiso   1.00
C4075  C     0.34586   0.63595   0.65414   0.00000  Uiso   1.00
C4076  C     0.26782   0.52687   0.73218   0.00000  Uiso   1.00
C4077  C     0.27086   0.51288   0.72914   0.00000  Uiso   1.00
C4078  C     0.28062   0.49459   0.71938   0.00000  Uiso   1.00
N4079  N     0.26482   0.50168   0.73518   0.00000  Uiso   1.00
C4080  C     0.22448   0.46556   0.77552   0.00000  Uiso   1.00
C4081  C     0.21033   0.44437   0.78967   0.00000  Uiso   1.00
N4082  N     0.20329   0.43336   0.79671   0.00000  Uiso   1.00
C4083  C     0.20600   0.42045   0.79400   0.00000  Uiso   1.00
C4084  C     0.19863   0.40938   0.80137   0.00000  Uiso   1.00
C4085  C     0.18509   0.38740   0.81491   0.00000  Uiso   1.00
C4086  C     0.17831   0.37551   0.82169   0.00000  Uiso   1.00
C4087  C     0.16546   0.35272   0.83454   0.00000  Uiso   1.00
C4088  C     0.23218   0.47649   0.76782   0.00000  Uiso   1.00
H4089  H     0.28710   0.51531   0.71290   0.00000  Uiso   1.00
H4090  H     0.30912   0.55633   0.69088   0.00000  Uiso   1.00
H4091  H     0.28710   0.48805   0.71290   0.00000  Uiso   1.00
H4092  H     0.21373   0.41768   0.78627   0.00000  Uiso   1.00
C4093  C     0.22914   0.00952   0.72914   0.00000  Uiso   1.00
C4094  C     0.21938   0.99123   0.71938   0.00000  Uiso   1.00
C4095  C     0.22448   0.96221   0.72448   0.00000  Uiso   1.00
C4096  C     0.21009   0.94136   0.71009   0.00000  Uiso   1.00
N4097  N     0.20294   0.93049   0.70294   0.00000  Uiso   1.00
C4098  C     0.19359   0.93307   0.69359   0.00000  Uiso   1.00
C4099  C     0.18658   0.92154   0.68658   0.00000  Uiso   1.00
C4100  C     0.17345   0.89908   0.67345   0.00000  Uiso   1.00
C4101  C     0.16679   0.88706   0.66679   0.00000  Uiso   1.00
C4102  C     0.15414   0.86405   0.65414   0.00000  Uiso   1.00
C4103  C     0.23218   0.97313   0.73218   0.00000  Uiso   1.00
C4104  C     0.22914   0.98712   0.72914   0.00000  Uiso   1.00
C4105  C     0.21938   0.00541   0.71938   0.00000  Uiso   1.00
N4106  N     0.23518   0.99832   0.73518   0.00000  Uiso   1.00
C4107  C     0.27552   0.03444   0.77552   0.00000  Uiso   1.00
C4108  C     0.28967   0.05563   0.78967   0.00000  Uiso   1.00
N4109  N     0.29671   0.06664   0.79671   0.00000  Uiso   1.00
C4110  C     0.29400   0.07955   0.79400   0.00000  Uiso   1.00
C4111  C     0.30137   0.09062   0.80137   0.00000  Uiso   1.00
C4112  C     0.31491   0.11260   0.81491   0.00000  Uiso   1.00
C4113  C     0.32169   0.12449   0.82169   0.00000  Uiso   1.00
C4114  C     0.33454   0.14728   0.83454   0.00000  Uiso   1.00
C4115  C     0.26782   0.02351   0.76782   0.00000  Uiso   1.00
H4116  H     0.21290   0.98469   0.71290   0.00000  Uiso   1.00
H4117  H     0.19088   0.94367   0.69088   0.00000  Uiso   1.00
H4118  H     0.21290   0.01195   0.71290   0.00000  Uiso   1.00
H4119  H     0.28627   0.08232   0.78627   0.00000  Uiso   1.00
C4120  C     0.22914   0.50952   0.22914   0.00000  Uiso   1.00
C4121  C     0.21938   0.49123   0.21938   0.00000  Uiso   1.00
C4122  C     0.22448   0.46221   0.22448   0.00000  Uiso   1.00
C4123  C     0.21009   0.44136   0.21009   0.00000  Uiso   1.00
N4124  N     0.20294   0.43049   0.20294   0.00000  Uiso   1.00
C4125  C     0.19359   0.43307   0.19359   0.00000  Uiso   1.00
C4126  C     0.18658   0.42154   0.18658   0.00000  Uiso   1.00
C4127  C     0.17345   0.39908   0.17345   0.00000  Uiso   1.00
C4128  C     0.16679   0.38706   0.16679   0.00000  Uiso   1.00
C4129  C     0.15414   0.36405   0.15414   0.00000  Uiso   1.00
C4130  C     0.23218   0.47313   0.23218   0.00000  Uiso   1.00
C4131  C     0.22914   0.48712   0.22914   0.00000  Uiso   1.00
C4132  C     0.21938   0.50541   0.21938   0.00000  Uiso   1.00
N4133  N     0.23518   0.49832   0.23518   0.00000  Uiso   1.00
C4134  C     0.27552   0.53444   0.27552   0.00000  Uiso   1.00
C4135  C     0.28967   0.55563   0.28967   0.00000  Uiso   1.00
N4136  N     0.29671   0.56664   0.29671   0.00000  Uiso   1.00
C4137  C     0.29400   0.57955   0.29400   0.00000  Uiso   1.00
C4138  C     0.30137   0.59062   0.30137   0.00000  Uiso   1.00
C4139  C     0.31491   0.61260   0.31491   0.00000  Uiso   1.00
C4140  C     0.32169   0.62449   0.32169   0.00000  Uiso   1.00
C4141  C     0.33454   0.64728   0.33454   0.00000  Uiso   1.00
C4142  C     0.26782   0.52351   0.26782   0.00000  Uiso   1.00
H4143  H     0.21290   0.48469   0.21290   0.00000  Uiso   1.00
H4144  H     0.19088   0.44367   0.19088   0.00000  Uiso   1.00
H4145  H     0.21290   0.51195   0.21290   0.00000  Uiso   1.00
H4146  H     0.28627   0.58232   0.28627   0.00000  Uiso   1.00
C4147  C     0.72914   0.50952   0.72914   0.00000  Uiso   1.00
C4148  C     0.71938   0.49123   0.71938   0.00000  Uiso   1.00
C4149  C     0.72448   0.46221   0.72448   0.00000  Uiso   1.00
C4150  C     0.71009   0.44136   0.71009   0.00000  Uiso   1.00
N4151  N     0.70294   0.43049   0.70294   0.00000  Uiso   1.00
C4152  C     0.69359   0.43307   0.69359   0.00000  Uiso   1.00
C4153  C     0.68658   0.42154   0.68658   0.00000  Uiso   1.00
C4154  C     0.67345   0.39908   0.67345   0.00000  Uiso   1.00
C4155  C     0.66679   0.38706   0.66679   0.00000  Uiso   1.00
C4156  C     0.65414   0.36405   0.65414   0.00000  Uiso   1.00
C4157  C     0.73218   0.47313   0.73218   0.00000  Uiso   1.00
C4158  C     0.72914   0.48712   0.72914   0.00000  Uiso   1.00
C4159  C     0.71938   0.50541   0.71938   0.00000  Uiso   1.00
N4160  N     0.73518   0.49832   0.73518   0.00000  Uiso   1.00
C4161  C     0.77552   0.53444   0.77552   0.00000  Uiso   1.00
C4162  C     0.78967   0.55563   0.78967   0.00000  Uiso   1.00
N4163  N     0.79671   0.56664   0.79671   0.00000  Uiso   1.00
C4164  C     0.79400   0.57955   0.79400   0.00000  Uiso   1.00
C4165  C     0.80137   0.59062   0.80137   0.00000  Uiso   1.00
C4166  C     0.81491   0.61260   0.81491   0.00000  Uiso   1.00
C4167  C     0.82169   0.62449   0.82169   0.00000  Uiso   1.00
C4168  C     0.83454   0.64728   0.83454   0.00000  Uiso   1.00
C4169  C     0.76782   0.52351   0.76782   0.00000  Uiso   1.00
H4170  H     0.71290   0.48469   0.71290   0.00000  Uiso   1.00
H4171  H     0.69088   0.44367   0.69088   0.00000  Uiso   1.00
H4172  H     0.71290   0.51195   0.71290   0.00000  Uiso   1.00
H4173  H     0.78627   0.58232   0.78627   0.00000  Uiso   1.00
C4174  C     0.27086   0.50952   0.27086   0.00000  Uiso   1.00
C4175  C     0.28062   0.49123   0.28062   0.00000  Uiso   1.00
C4176  C     0.27552   0.46221   0.27552   0.00000  Uiso   1.00
C4177  C     0.28991   0.44136   0.28991   0.00000  Uiso   1.00
N4178  N     0.29706   0.43049   0.29706   0.00000  Uiso   1.00
C4179  C     0.30641   0.43307   0.30641   0.00000  Uiso   1.00
C4180  C     0.31342   0.42154   0.31342   0.00000  Uiso   1.00
C4181  C     0.32655   0.39908   0.32655   0.00000  Uiso   1.00
C4182  C     0.33321   0.38706   0.33321   0.00000  Uiso   1.00
C4183  C     0.34586   0.36405   0.34586   0.00000  Uiso   1.00
C4184  C     0.26782   0.47313   0.26782   0.00000  Uiso   1.00
C4185  C     0.27086   0.48712   0.27086   0.00000  Uiso   1.00
C4186  C     0.28062   0.50541   0.28062   0.00000  Uiso   1.00
N4187  N     0.26482   0.49832   0.26482   0.00000  Uiso   1.00
C4188  C     0.22448   0.53444   0.22448   0.00000  Uiso   1.00
C4189  C     0.21033   0.55563   0.21033   0.00000  Uiso   1.00
N4190  N     0.20329   0.56664   0.20329   0.00000  Uiso   1.00
C4191  C     0.20600   0.57955   0.20600   0.00000  Uiso   1.00
C4192  C     0.19863   0.59062   0.19863   0.00000  Uiso   1.00
C4193  C     0.18509   0.61260   0.18509   0.00000  Uiso   1.00
C4194  C     0.17831   0.62449   0.17831   0.00000  Uiso   1.00
C4195  C     0.16546   0.64728   0.16546   0.00000  Uiso   1.00
C4196  C     0.23218   0.52351   0.23218   0.00000  Uiso   1.00
H4197  H     0.28710   0.48469   0.28710   0.00000  Uiso   1.00
H4198  H     0.30912   0.44367   0.30912   0.00000  Uiso   1.00
H4199  H     0.28710   0.51195   0.28710   0.00000  Uiso   1.00
H4200  H     0.21373   0.58232   0.21373   0.00000  Uiso   1.00
C4201  C     0.27086   0.00952   0.77086   0.00000  Uiso   1.00
C4202  C     0.28062   0.99123   0.78062   0.00000  Uiso   1.00
C4203  C     0.27552   0.96221   0.77552   0.00000  Uiso   1.00
C4204  C     0.28991   0.94136   0.78991   0.00000  Uiso   1.00
N4205  N     0.29706   0.93049   0.79706   0.00000  Uiso   1.00
C4206  C     0.30641   0.93307   0.80641   0.00000  Uiso   1.00
C4207  C     0.31342   0.92154   0.81342   0.00000  Uiso   1.00
C4208  C     0.32655   0.89908   0.82655   0.00000  Uiso   1.00
C4209  C     0.33321   0.88706   0.83321   0.00000  Uiso   1.00
C4210  C     0.34586   0.86405   0.84586   0.00000  Uiso   1.00
C4211  C     0.26782   0.97313   0.76782   0.00000  Uiso   1.00
C4212  C     0.27086   0.98712   0.77086   0.00000  Uiso   1.00
C4213  C     0.28062   0.00541   0.78062   0.00000  Uiso   1.00
N4214  N     0.26482   0.99832   0.76482   0.00000  Uiso   1.00
C4215  C     0.22448   0.03444   0.72448   0.00000  Uiso   1.00
C4216  C     0.21033   0.05563   0.71033   0.00000  Uiso   1.00
N4217  N     0.20329   0.06664   0.70329   0.00000  Uiso   1.00
C4218  C     0.20600   0.07955   0.70600   0.00000  Uiso   1.00
C4219  C     0.19863   0.09062   0.69863   0.00000  Uiso   1.00
C4220  C     0.18509   0.11260   0.68509   0.00000  Uiso   1.00
C4221  C     0.17831   0.12449   0.67831   0.00000  Uiso   1.00
C4222  C     0.16546   0.14728   0.66546   0.00000  Uiso   1.00
C4223  C     0.23218   0.02351   0.73218   0.00000  Uiso   1.00
H4224  H     0.28710   0.98469   0.78710   0.00000  Uiso   1.00
H4225  H     0.30912   0.94367   0.80912   0.00000  Uiso   1.00
H4226  H     0.28710   0.01195   0.78710   0.00000  Uiso   1.00
H4227  H     0.21373   0.08232   0.71373   0.00000  Uiso   1.00
C4228  C     0.77086   0.50952   0.77086   0.00000  Uiso   1.00
C4229  C     0.78062   0.49123   0.78062   0.00000  Uiso   1.00
C4230  C     0.77552   0.46221   0.77552   0.00000  Uiso   1.00
C4231  C     0.78991   0.44136   0.78991   0.00000  Uiso   1.00
N4232  N     0.79706   0.43049   0.79706   0.00000  Uiso   1.00
C4233  C     0.80641   0.43307   0.80641   0.00000  Uiso   1.00
C4234  C     0.81342   0.42154   0.81342   0.00000  Uiso   1.00
C4235  C     0.82655   0.39908   0.82655   0.00000  Uiso   1.00
C4236  C     0.83321   0.38706   0.83321   0.00000  Uiso   1.00
C4237  C     0.84586   0.36405   0.84586   0.00000  Uiso   1.00
C4238  C     0.76782   0.47313   0.76782   0.00000  Uiso   1.00
C4239  C     0.77086   0.48712   0.77086   0.00000  Uiso   1.00
C4240  C     0.78062   0.50541   0.78062   0.00000  Uiso   1.00
N4241  N     0.76482   0.49832   0.76482   0.00000  Uiso   1.00
C4242  C     0.72448   0.53444   0.72448   0.00000  Uiso   1.00
C4243  C     0.71033   0.55563   0.71033   0.00000  Uiso   1.00
N4244  N     0.70329   0.56664   0.70329   0.00000  Uiso   1.00
C4245  C     0.70600   0.57955   0.70600   0.00000  Uiso   1.00
C4246  C     0.69863   0.59062   0.69863   0.00000  Uiso   1.00
C4247  C     0.68509   0.61260   0.68509   0.00000  Uiso   1.00
C4248  C     0.67831   0.62449   0.67831   0.00000  Uiso   1.00
C4249  C     0.66546   0.64728   0.66546   0.00000  Uiso   1.00
C4250  C     0.73218   0.52351   0.73218   0.00000  Uiso   1.00
H4251  H     0.78710   0.48469   0.78710   0.00000  Uiso   1.00
H4252  H     0.80912   0.44367   0.80912   0.00000  Uiso   1.00
H4253  H     0.78710   0.51195   0.78710   0.00000  Uiso   1.00
H4254  H     0.71373   0.58232   0.71373   0.00000  Uiso   1.00
C4255  C     0.77086   0.00952   0.27086   0.00000  Uiso   1.00
C4256  C     0.78062   0.99123   0.28062   0.00000  Uiso   1.00
C4257  C     0.77552   0.96221   0.27552   0.00000  Uiso   1.00
C4258  C     0.78991   0.94136   0.28991   0.00000  Uiso   1.00
N4259  N     0.79706   0.93049   0.29706   0.00000  Uiso   1.00
C4260  C     0.80641   0.93307   0.30641   0.00000  Uiso   1.00
C4261  C     0.81342   0.92154   0.31342   0.00000  Uiso   1.00
C4262  C     0.82655   0.89908   0.32655   0.00000  Uiso   1.00
C4263  C     0.83321   0.88706   0.33321   0.00000  Uiso   1.00
C4264  C     0.84586   0.86405   0.34586   0.00000  Uiso   1.00
C4265  C     0.76782   0.97313   0.26782   0.00000  Uiso   1.00
C4266  C     0.77086   0.98712   0.27086   0.00000  Uiso   1.00
C4267  C     0.78062   0.00541   0.28062   0.00000  Uiso   1.00
N4268  N     0.76482   0.99832   0.26482   0.00000  Uiso   1.00
C4269  C     0.72448   0.03444   0.22448   0.00000  Uiso   1.00
C4270  C     0.71033   0.05563   0.21033   0.00000  Uiso   1.00
N4271  N     0.70329   0.06664   0.20329   0.00000  Uiso   1.00
C4272  C     0.70600   0.07955   0.20600   0.00000  Uiso   1.00
C4273  C     0.69863   0.09062   0.19863   0.00000  Uiso   1.00
C4274  C     0.68509   0.11260   0.18509   0.00000  Uiso   1.00
C4275  C     0.67831   0.12449   0.17831   0.00000  Uiso   1.00
C4276  C     0.66546   0.14728   0.16546   0.00000  Uiso   1.00
C4277  C     0.73218   0.02351   0.23218   0.00000  Uiso   1.00
H4278  H     0.78710   0.98469   0.28710   0.00000  Uiso   1.00
H4279  H     0.80912   0.94367   0.30912   0.00000  Uiso   1.00
H4280  H     0.78710   0.01195   0.28710   0.00000  Uiso   1.00
H4281  H     0.71373   0.08232   0.21373   0.00000  Uiso   1.00
C4282  C     0.72914   0.99048   0.77086   0.00000  Uiso   1.00
C4283  C     0.71938   0.00877   0.78062   0.00000  Uiso   1.00
C4284  C     0.72448   0.03779   0.77552   0.00000  Uiso   1.00
C4285  C     0.71009   0.05864   0.78991   0.00000  Uiso   1.00
N4286  N     0.70294   0.06951   0.79706   0.00000  Uiso   1.00
C4287  C     0.69359   0.06693   0.80641   0.00000  Uiso   1.00
C4288  C     0.68658   0.07846   0.81342   0.00000  Uiso   1.00
C4289  C     0.67345   0.10092   0.82655   0.00000  Uiso   1.00
C4290  C     0.66679   0.11294   0.83321   0.00000  Uiso   1.00
C4291  C     0.65414   0.13595   0.84586   0.00000  Uiso   1.00
C4292  C     0.73218   0.02687   0.76782   0.00000  Uiso   1.00
C4293  C     0.72914   0.01288   0.77086   0.00000  Uiso   1.00
C4294  C     0.71938   0.99459   0.78062   0.00000  Uiso   1.00
N4295  N     0.73518   0.00168   0.76482   0.00000  Uiso   1.00
C4296  C     0.77552   0.96556   0.72448   0.00000  Uiso   1.00
C4297  C     0.78967   0.94437   0.71033   0.00000  Uiso   1.00
N4298  N     0.79671   0.93336   0.70329   0.00000  Uiso   1.00
C4299  C     0.79400   0.92045   0.70600   0.00000  Uiso   1.00
C4300  C     0.80137   0.90938   0.69863   0.00000  Uiso   1.00
C4301  C     0.81491   0.88740   0.68509   0.00000  Uiso   1.00
C4302  C     0.82169   0.87551   0.67831   0.00000  Uiso   1.00
C4303  C     0.83454   0.85272   0.66546   0.00000  Uiso   1.00
C4304  C     0.76782   0.97649   0.73218   0.00000  Uiso   1.00
H4305  H     0.71290   0.01531   0.78710   0.00000  Uiso   1.00
H4306  H     0.69088   0.05633   0.80912   0.00000  Uiso   1.00
H4307  H     0.71290   0.98805   0.78710   0.00000  Uiso   1.00
H4308  H     0.78627   0.91768   0.71373   0.00000  Uiso   1.00
C4309  C     0.72914   0.49048   0.27086   0.00000  Uiso   1.00
C4310  C     0.71938   0.50877   0.28062   0.00000  Uiso   1.00
C4311  C     0.72448   0.53779   0.27552   0.00000  Uiso   1.00
C4312  C     0.71009   0.55864   0.28991   0.00000  Uiso   1.00
N4313  N     0.70294   0.56951   0.29706   0.00000  Uiso   1.00
C4314  C     0.69359   0.56693   0.30641   0.00000  Uiso   1.00
C4315  C     0.68658   0.57846   0.31342   0.00000  Uiso   1.00
C4316  C     0.67345   0.60092   0.32655   0.00000  Uiso   1.00
C4317  C     0.66679   0.61294   0.33321   0.00000  Uiso   1.00
C4318  C     0.65414   0.63595   0.34586   0.00000  Uiso   1.00
C4319  C     0.73218   0.52687   0.26782   0.00000  Uiso   1.00
C4320  C     0.72914   0.51288   0.27086   0.00000  Uiso   1.00
C4321  C     0.71938   0.49459   0.28062   0.00000  Uiso   1.00
N4322  N     0.73518   0.50168   0.26482   0.00000  Uiso   1.00
C4323  C     0.77552   0.46556   0.22448   0.00000  Uiso   1.00
C4324  C     0.78967   0.44437   0.21033   0.00000  Uiso   1.00
N4325  N     0.79671   0.43336   0.20329   0.00000  Uiso   1.00
C4326  C     0.79400   0.42045   0.20600   0.00000  Uiso   1.00
C4327  C     0.80137   0.40938   0.19863   0.00000  Uiso   1.00
C4328  C     0.81491   0.38740   0.18509   0.00000  Uiso   1.00
C4329  C     0.82169   0.37551   0.17831   0.00000  Uiso   1.00
C4330  C     0.83454   0.35272   0.16546   0.00000  Uiso   1.00
C4331  C     0.76782   0.47649   0.23218   0.00000  Uiso   1.00
H4332  H     0.71290   0.51531   0.28710   0.00000  Uiso   1.00
H4333  H     0.69088   0.55633   0.30912   0.00000  Uiso   1.00
H4334  H     0.71290   0.48805   0.28710   0.00000  Uiso   1.00
H4335  H     0.78627   0.41768   0.21373   0.00000  Uiso   1.00
C4336  C     0.99048   0.77086   0.72914   0.00000  Uiso   1.00
C4337  C     0.00877   0.78062   0.71938   0.00000  Uiso   1.00
C4338  C     0.03779   0.77552   0.72448   0.00000  Uiso   1.00
C4339  C     0.05864   0.78991   0.71009   0.00000  Uiso   1.00
N4340  N     0.06951   0.79706   0.70294   0.00000  Uiso   1.00
C4341  C     0.06693   0.80641   0.69359   0.00000  Uiso   1.00
C4342  C     0.07846   0.81342   0.68658   0.00000  Uiso   1.00
C4343  C     0.10092   0.82655   0.67345   0.00000  Uiso   1.00
C4344  C     0.11294   0.83321   0.66679   0.00000  Uiso   1.00
C4345  C     0.13595   0.84586   0.65414   0.00000  Uiso   1.00
C4346  C     0.02687   0.76782   0.73218   0.00000  Uiso   1.00
C4347  C     0.01288   0.77086   0.72914   0.00000  Uiso   1.00
C4348  C     0.99459   0.78062   0.71938   0.00000  Uiso   1.00
N4349  N     0.00168   0.76482   0.73518   0.00000  Uiso   1.00
C4350  C     0.96556   0.72448   0.77552   0.00000  Uiso   1.00
C4351  C     0.94437   0.71033   0.78967   0.00000  Uiso   1.00
N4352  N     0.93336   0.70329   0.79671   0.00000  Uiso   1.00
C4353  C     0.92045   0.70600   0.79400   0.00000  Uiso   1.00
C4354  C     0.90938   0.69863   0.80137   0.00000  Uiso   1.00
C4355  C     0.88740   0.68509   0.81491   0.00000  Uiso   1.00
C4356  C     0.87551   0.67831   0.82169   0.00000  Uiso   1.00
C4357  C     0.85272   0.66546   0.83454   0.00000  Uiso   1.00
C4358  C     0.97649   0.73218   0.76782   0.00000  Uiso   1.00
H4359  H     0.01531   0.78710   0.71290   0.00000  Uiso   1.00
H4360  H     0.05633   0.80912   0.69088   0.00000  Uiso   1.00
H4361  H     0.98805   0.78710   0.71290   0.00000  Uiso   1.00
H4362  H     0.91768   0.71373   0.78627   0.00000  Uiso   1.00
C4363  C     0.99048   0.27086   0.22914   0.00000  Uiso   1.00
C4364  C     0.00877   0.28062   0.21938   0.00000  Uiso   1.00
C4365  C     0.03779   0.27552   0.22448   0.00000  Uiso   1.00
C4366  C     0.05864   0.28991   0.21009   0.00000  Uiso   1.00
N4367  N     0.06951   0.29706   0.20294   0.00000  Uiso   1.00
C4368  C     0.06693   0.30641   0.19359   0.00000  Uiso   1.00
C4369  C     0.07846   0.31342   0.18658   0.00000  Uiso   1.00
C4370  C     0.10092   0.32655   0.17345   0.00000  Uiso   1.00
C4371  C     0.11294   0.33321   0.16679   0.00000  Uiso   1.00
C4372  C     0.13595   0.34586   0.15414   0.00000  Uiso   1.00
C4373  C     0.02687   0.26782   0.23218   0.00000  Uiso   1.00
C4374  C     0.01288   0.27086   0.22914   0.00000  Uiso   1.00
C4375  C     0.99459   0.28062   0.21938   0.00000  Uiso   1.00
N4376  N     0.00168   0.26482   0.23518   0.00000  Uiso   1.00
C4377  C     0.96556   0.22448   0.27552   0.00000  Uiso   1.00
C4378  C     0.94437   0.21033   0.28967   0.00000  Uiso   1.00
N4379  N     0.93336   0.20329   0.29671   0.00000  Uiso   1.00
C4380  C     0.92045   0.20600   0.29400   0.00000  Uiso   1.00
C4381  C     0.90938   0.19863   0.30137   0.00000  Uiso   1.00
C4382  C     0.88740   0.18509   0.31491   0.00000  Uiso   1.00
C4383  C     0.87551   0.17831   0.32169   0.00000  Uiso   1.00
C4384  C     0.85272   0.16546   0.33454   0.00000  Uiso   1.00
C4385  C     0.97649   0.23218   0.26782   0.00000  Uiso   1.00
H4386  H     0.01531   0.28710   0.21290   0.00000  Uiso   1.00
H4387  H     0.05633   0.30912   0.19088   0.00000  Uiso   1.00
H4388  H     0.98805   0.28710   0.21290   0.00000  Uiso   1.00
H4389  H     0.91768   0.21373   0.28627   0.00000  Uiso   1.00
C4390  C     0.50952   0.27086   0.27086   0.00000  Uiso   1.00
C4391  C     0.49123   0.28062   0.28062   0.00000  Uiso   1.00
C4392  C     0.46221   0.27552   0.27552   0.00000  Uiso   1.00
C4393  C     0.44136   0.28991   0.28991   0.00000  Uiso   1.00
N4394  N     0.43049   0.29706   0.29706   0.00000  Uiso   1.00
C4395  C     0.43307   0.30641   0.30641   0.00000  Uiso   1.00
C4396  C     0.42154   0.31342   0.31342   0.00000  Uiso   1.00
C4397  C     0.39908   0.32655   0.32655   0.00000  Uiso   1.00
C4398  C     0.38706   0.33321   0.33321   0.00000  Uiso   1.00
C4399  C     0.36405   0.34586   0.34586   0.00000  Uiso   1.00
C4400  C     0.47313   0.26782   0.26782   0.00000  Uiso   1.00
C4401  C     0.48712   0.27086   0.27086   0.00000  Uiso   1.00
C4402  C     0.50541   0.28062   0.28062   0.00000  Uiso   1.00
N4403  N     0.49832   0.26482   0.26482   0.00000  Uiso   1.00
C4404  C     0.53444   0.22448   0.22448   0.00000  Uiso   1.00
C4405  C     0.55563   0.21033   0.21033   0.00000  Uiso   1.00
N4406  N     0.56664   0.20329   0.20329   0.00000  Uiso   1.00
C4407  C     0.57955   0.20600   0.20600   0.00000  Uiso   1.00
C4408  C     0.59062   0.19863   0.19863   0.00000  Uiso   1.00
C4409  C     0.61260   0.18509   0.18509   0.00000  Uiso   1.00
C4410  C     0.62449   0.17831   0.17831   0.00000  Uiso   1.00
C4411  C     0.64728   0.16546   0.16546   0.00000  Uiso   1.00
C4412  C     0.52351   0.23218   0.23218   0.00000  Uiso   1.00
H4413  H     0.48469   0.28710   0.28710   0.00000  Uiso   1.00
H4414  H     0.44367   0.30912   0.30912   0.00000  Uiso   1.00
H4415  H     0.51195   0.28710   0.28710   0.00000  Uiso   1.00
H4416  H     0.58232   0.21373   0.21373   0.00000  Uiso   1.00
C4417  C     0.50952   0.77086   0.77086   0.00000  Uiso   1.00
C4418  C     0.49123   0.78062   0.78062   0.00000  Uiso   1.00
C4419  C     0.46221   0.77552   0.77552   0.00000  Uiso   1.00
C4420  C     0.44136   0.78991   0.78991   0.00000  Uiso   1.00
N4421  N     0.43049   0.79706   0.79706   0.00000  Uiso   1.00
C4422  C     0.43307   0.80641   0.80641   0.00000  Uiso   1.00
C4423  C     0.42154   0.81342   0.81342   0.00000  Uiso   1.00
C4424  C     0.39908   0.82655   0.82655   0.00000  Uiso   1.00
C4425  C     0.38706   0.83321   0.83321   0.00000  Uiso   1.00
C4426  C     0.36405   0.84586   0.84586   0.00000  Uiso   1.00
C4427  C     0.47313   0.76782   0.76782   0.00000  Uiso   1.00
C4428  C     0.48712   0.77086   0.77086   0.00000  Uiso   1.00
C4429  C     0.50541   0.78062   0.78062   0.00000  Uiso   1.00
N4430  N     0.49832   0.76482   0.76482   0.00000  Uiso   1.00
C4431  C     0.53444   0.72448   0.72448   0.00000  Uiso   1.00
C4432  C     0.55563   0.71033   0.71033   0.00000  Uiso   1.00
N4433  N     0.56664   0.70329   0.70329   0.00000  Uiso   1.00
C4434  C     0.57955   0.70600   0.70600   0.00000  Uiso   1.00
C4435  C     0.59062   0.69863   0.69863   0.00000  Uiso   1.00
C4436  C     0.61260   0.68509   0.68509   0.00000  Uiso   1.00
C4437  C     0.62449   0.67831   0.67831   0.00000  Uiso   1.00
C4438  C     0.64728   0.66546   0.66546   0.00000  Uiso   1.00
C4439  C     0.52351   0.73218   0.73218   0.00000  Uiso   1.00
H4440  H     0.48469   0.78710   0.78710   0.00000  Uiso   1.00
H4441  H     0.44367   0.80912   0.80912   0.00000  Uiso   1.00
H4442  H     0.51195   0.78710   0.78710   0.00000  Uiso   1.00
H4443  H     0.58232   0.71373   0.71373   0.00000  Uiso   1.00
C4444  C     0.00952   0.27086   0.77086   0.00000  Uiso   1.00
C4445  C     0.99123   0.28062   0.78062   0.00000  Uiso   1.00
C4446  C     0.96221   0.27552   0.77552   0.00000  Uiso   1.00
C4447  C     0.94136   0.28991   0.78991   0.00000  Uiso   1.00
N4448  N     0.93049   0.29706   0.79706   0.00000  Uiso   1.00
C4449  C     0.93307   0.30641   0.80641   0.00000  Uiso   1.00
C4450  C     0.92154   0.31342   0.81342   0.00000  Uiso   1.00
C4451  C     0.89908   0.32655   0.82655   0.00000  Uiso   1.00
C4452  C     0.88706   0.33321   0.83321   0.00000  Uiso   1.00
C4453  C     0.86405   0.34586   0.84586   0.00000  Uiso   1.00
C4454  C     0.97313   0.26782   0.76782   0.00000  Uiso   1.00
C4455  C     0.98712   0.27086   0.77086   0.00000  Uiso   1.00
C4456  C     0.00541   0.28062   0.78062   0.00000  Uiso   1.00
N4457  N     0.99832   0.26482   0.76482   0.00000  Uiso   1.00
C4458  C     0.03444   0.22448   0.72448   0.00000  Uiso   1.00
C4459  C     0.05563   0.21033   0.71033   0.00000  Uiso   1.00
N4460  N     0.06664   0.20329   0.70329   0.00000  Uiso   1.00
C4461  C     0.07955   0.20600   0.70600   0.00000  Uiso   1.00
C4462  C     0.09062   0.19863   0.69863   0.00000  Uiso   1.00
C4463  C     0.11260   0.18509   0.68509   0.00000  Uiso   1.00
C4464  C     0.12449   0.17831   0.67831   0.00000  Uiso   1.00
C4465  C     0.14728   0.16546   0.66546   0.00000  Uiso   1.00
C4466  C     0.02351   0.23218   0.73218   0.00000  Uiso   1.00
H4467  H     0.98469   0.28710   0.78710   0.00000  Uiso   1.00
H4468  H     0.94367   0.30912   0.80912   0.00000  Uiso   1.00
H4469  H     0.01195   0.28710   0.78710   0.00000  Uiso   1.00
H4470  H     0.08232   0.21373   0.71373   0.00000  Uiso   1.00
C4471  C     0.00952   0.77086   0.27086   0.00000  Uiso   1.00
C4472  C     0.99123   0.78062   0.28062   0.00000  Uiso   1.00
C4473  C     0.96221   0.77552   0.27552   0.00000  Uiso   1.00
C4474  C     0.94136   0.78991   0.28991   0.00000  Uiso   1.00
N4475  N     0.93049   0.79706   0.29706   0.00000  Uiso   1.00
C4476  C     0.93307   0.80641   0.30641   0.00000  Uiso   1.00
C4477  C     0.92154   0.81342   0.31342   0.00000  Uiso   1.00
C4478  C     0.89908   0.82655   0.32655   0.00000  Uiso   1.00
C4479  C     0.88706   0.83321   0.33321   0.00000  Uiso   1.00
C4480  C     0.86405   0.84586   0.34586   0.00000  Uiso   1.00
C4481  C     0.97313   0.76782   0.26782   0.00000  Uiso   1.00
C4482  C     0.98712   0.77086   0.27086   0.00000  Uiso   1.00
C4483  C     0.00541   0.78062   0.28062   0.00000  Uiso   1.00
N4484  N     0.99832   0.76482   0.26482   0.00000  Uiso   1.00
C4485  C     0.03444   0.72448   0.22448   0.00000  Uiso   1.00
C4486  C     0.05563   0.71033   0.21033   0.00000  Uiso   1.00
N4487  N     0.06664   0.70329   0.20329   0.00000  Uiso   1.00
C4488  C     0.07955   0.70600   0.20600   0.00000  Uiso   1.00
C4489  C     0.09062   0.69863   0.19863   0.00000  Uiso   1.00
C4490  C     0.11260   0.68509   0.18509   0.00000  Uiso   1.00
C4491  C     0.12449   0.67831   0.17831   0.00000  Uiso   1.00
C4492  C     0.14728   0.66546   0.16546   0.00000  Uiso   1.00
C4493  C     0.02351   0.73218   0.23218   0.00000  Uiso   1.00
H4494  H     0.98469   0.78710   0.28710   0.00000  Uiso   1.00
H4495  H     0.94367   0.80912   0.30912   0.00000  Uiso   1.00
H4496  H     0.01195   0.78710   0.28710   0.00000  Uiso   1.00
H4497  H     0.08232   0.71373   0.21373   0.00000  Uiso   1.00
C4498  C     0.00952   0.72914   0.22914   0.00000  Uiso   1.00
C4499  C     0.99123   0.71938   0.21938   0.00000  Uiso   1.00
C4500  C     0.96221   0.72448   0.22448   0.00000  Uiso   1.00
C4501  C     0.94136   0.71009   0.21009   0.00000  Uiso   1.00
N4502  N     0.93049   0.70294   0.20294   0.00000  Uiso   1.00
C4503  C     0.93307   0.69359   0.19359   0.00000  Uiso   1.00
C4504  C     0.92154   0.68658   0.18658   0.00000  Uiso   1.00
C4505  C     0.89908   0.67345   0.17345   0.00000  Uiso   1.00
C4506  C     0.88706   0.66679   0.16679   0.00000  Uiso   1.00
C4507  C     0.86405   0.65414   0.15414   0.00000  Uiso   1.00
C4508  C     0.97313   0.73218   0.23218   0.00000  Uiso   1.00
C4509  C     0.98712   0.72914   0.22914   0.00000  Uiso   1.00
C4510  C     0.00541   0.71938   0.21938   0.00000  Uiso   1.00
N4511  N     0.99832   0.73518   0.23518   0.00000  Uiso   1.00
C4512  C     0.03444   0.77552   0.27552   0.00000  Uiso   1.00
C4513  C     0.05563   0.78967   0.28967   0.00000  Uiso   1.00
N4514  N     0.06664   0.79671   0.29671   0.00000  Uiso   1.00
C4515  C     0.07955   0.79400   0.29400   0.00000  Uiso   1.00
C4516  C     0.09062   0.80137   0.30137   0.00000  Uiso   1.00
C4517  C     0.11260   0.81491   0.31491   0.00000  Uiso   1.00
C4518  C     0.12449   0.82169   0.32169   0.00000  Uiso   1.00
C4519  C     0.14728   0.83454   0.33454   0.00000  Uiso   1.00
C4520  C     0.02351   0.76782   0.26782   0.00000  Uiso   1.00
H4521  H     0.98469   0.71290   0.21290   0.00000  Uiso   1.00
H4522  H     0.94367   0.69088   0.19088   0.00000  Uiso   1.00
H4523  H     0.01195   0.71290   0.21290   0.00000  Uiso   1.00
H4524  H     0.08232   0.78627   0.28627   0.00000  Uiso   1.00
C4525  C     0.50952   0.72914   0.72914   0.00000  Uiso   1.00
C4526  C     0.49123   0.71938   0.71938   0.00000  Uiso   1.00
C4527  C     0.46221   0.72448   0.72448   0.00000  Uiso   1.00
C4528  C     0.44136   0.71009   0.71009   0.00000  Uiso   1.00
N4529  N     0.43049   0.70294   0.70294   0.00000  Uiso   1.00
C4530  C     0.43307   0.69359   0.69359   0.00000  Uiso   1.00
C4531  C     0.42154   0.68658   0.68658   0.00000  Uiso   1.00
C4532  C     0.39908   0.67345   0.67345   0.00000  Uiso   1.00
C4533  C     0.38706   0.66679   0.66679   0.00000  Uiso   1.00
C4534  C     0.36405   0.65414   0.65414   0.00000  Uiso   1.00
C4535  C     0.47313   0.73218   0.73218   0.00000  Uiso   1.00
C4536  C     0.48712   0.72914   0.72914   0.00000  Uiso   1.00
C4537  C     0.50541   0.71938   0.71938   0.00000  Uiso   1.00
N4538  N     0.49832   0.73518   0.73518   0.00000  Uiso   1.00
C4539  C     0.53444   0.77552   0.77552   0.00000  Uiso   1.00
C4540  C     0.55563   0.78967   0.78967   0.00000  Uiso   1.00
N4541  N     0.56664   0.79671   0.79671   0.00000  Uiso   1.00
C4542  C     0.57955   0.79400   0.79400   0.00000  Uiso   1.00
C4543  C     0.59062   0.80137   0.80137   0.00000  Uiso   1.00
C4544  C     0.61260   0.81491   0.81491   0.00000  Uiso   1.00
C4545  C     0.62449   0.82169   0.82169   0.00000  Uiso   1.00
C4546  C     0.64728   0.83454   0.83454   0.00000  Uiso   1.00
C4547  C     0.52351   0.76782   0.76782   0.00000  Uiso   1.00
H4548  H     0.48469   0.71290   0.71290   0.00000  Uiso   1.00
H4549  H     0.44367   0.69088   0.69088   0.00000  Uiso   1.00
H4550  H     0.51195   0.71290   0.71290   0.00000  Uiso   1.00
H4551  H     0.58232   0.78627   0.78627   0.00000  Uiso   1.00
C4552  C     0.49048   0.22914   0.77086   0.00000  Uiso   1.00
C4553  C     0.50877   0.21938   0.78062   0.00000  Uiso   1.00
C4554  C     0.53779   0.22448   0.77552   0.00000  Uiso   1.00
C4555  C     0.55864   0.21009   0.78991   0.00000  Uiso   1.00
N4556  N     0.56951   0.20294   0.79706   0.00000  Uiso   1.00
C4557  C     0.56693   0.19359   0.80641   0.00000  Uiso   1.00
C4558  C     0.57846   0.18658   0.81342   0.00000  Uiso   1.00
C4559  C     0.60092   0.17345   0.82655   0.00000  Uiso   1.00
C4560  C     0.61294   0.16679   0.83321   0.00000  Uiso   1.00
C4561  C     0.63595   0.15414   0.84586   0.00000  Uiso   1.00
C4562  C     0.52687   0.23218   0.76782   0.00000  Uiso   1.00
C4563  C     0.51288   0.22914   0.77086   0.00000  Uiso   1.00
C4564  C     0.49459   0.21938   0.78062   0.00000  Uiso   1.00
N4565  N     0.50168   0.23518   0.76482   0.00000  Uiso   1.00
C4566  C     0.46556   0.27552   0.72448   0.00000  Uiso   1.00
C4567  C     0.44437   0.28967   0.71033   0.00000  Uiso   1.00
N4568  N     0.43336   0.29671   0.70329   0.00000  Uiso   1.00
C4569  C     0.42045   0.29400   0.70600   0.00000  Uiso   1.00
C4570  C     0.40938   0.30137   0.69863   0.00000  Uiso   1.00
C4571  C     0.38740   0.31491   0.68509   0.00000  Uiso   1.00
C4572  C     0.37551   0.32169   0.67831   0.00000  Uiso   1.00
C4573  C     0.35272   0.33454   0.66546   0.00000  Uiso   1.00
C4574  C     0.47649   0.26782   0.73218   0.00000  Uiso   1.00
H4575  H     0.51531   0.21290   0.78710   0.00000  Uiso   1.00
H4576  H     0.55633   0.19088   0.80912   0.00000  Uiso   1.00
H4577  H     0.48805   0.21290   0.78710   0.00000  Uiso   1.00
H4578  H     0.41768   0.28627   0.71373   0.00000  Uiso   1.00
C4579  C     0.49048   0.72914   0.27086   0.00000  Uiso   1.00
C4580  C     0.50877   0.71938   0.28062   0.00000  Uiso   1.00
C4581  C     0.53779   0.72448   0.27552   0.00000  Uiso   1.00
C4582  C     0.55864   0.71009   0.28991   0.00000  Uiso   1.00
N4583  N     0.56951   0.70294   0.29706   0.00000  Uiso   1.00
C4584  C     0.56693   0.69359   0.30641   0.00000  Uiso   1.00
C4585  C     0.57846   0.68658   0.31342   0.00000  Uiso   1.00
C4586  C     0.60092   0.67345   0.32655   0.00000  Uiso   1.00
C4587  C     0.61294   0.66679   0.33321   0.00000  Uiso   1.00
C4588  C     0.63595   0.65414   0.34586   0.00000  Uiso   1.00
C4589  C     0.52687   0.73218   0.26782   0.00000  Uiso   1.00
C4590  C     0.51288   0.72914   0.27086   0.00000  Uiso   1.00
C4591  C     0.49459   0.71938   0.28062   0.00000  Uiso   1.00
N4592  N     0.50168   0.73518   0.26482   0.00000  Uiso   1.00
C4593  C     0.46556   0.77552   0.22448   0.00000  Uiso   1.00
C4594  C     0.44437   0.78967   0.21033   0.00000  Uiso   1.00
N4595  N     0.43336   0.79671   0.20329   0.00000  Uiso   1.00
C4596  C     0.42045   0.79400   0.20600   0.00000  Uiso   1.00
C4597  C     0.40938   0.80137   0.19863   0.00000  Uiso   1.00
C4598  C     0.38740   0.81491   0.18509   0.00000  Uiso   1.00
C4599  C     0.37551   0.82169   0.17831   0.00000  Uiso   1.00
C4600  C     0.35272   0.83454   0.16546   0.00000  Uiso   1.00
C4601  C     0.47649   0.76782   0.23218   0.00000  Uiso   1.00
H4602  H     0.51531   0.71290   0.28710   0.00000  Uiso   1.00
H4603  H     0.55633   0.69088   0.30912   0.00000  Uiso   1.00
H4604  H     0.48805   0.71290   0.28710   0.00000  Uiso   1.00
H4605  H     0.41768   0.78627   0.21373   0.00000  Uiso   1.00
C4606  C     0.27086   0.27086   0.50952   0.00000  Uiso   1.00
C4607  C     0.28062   0.28062   0.49123   0.00000  Uiso   1.00
C4608  C     0.27552   0.27552   0.46221   0.00000  Uiso   1.00
C4609  C     0.28991   0.28991   0.44136   0.00000  Uiso   1.00
N4610  N     0.29706   0.29706   0.43049   0.00000  Uiso   1.00
C4611  C     0.30641   0.30641   0.43307   0.00000  Uiso   1.00
C4612  C     0.31342   0.31342   0.42154   0.00000  Uiso   1.00
C4613  C     0.32655   0.32655   0.39908   0.00000  Uiso   1.00
C4614  C     0.33321   0.33321   0.38706   0.00000  Uiso   1.00
C4615  C     0.34586   0.34586   0.36405   0.00000  Uiso   1.00
C4616  C     0.26782   0.26782   0.47313   0.00000  Uiso   1.00
C4617  C     0.27086   0.27086   0.48712   0.00000  Uiso   1.00
C4618  C     0.28062   0.28062   0.50541   0.00000  Uiso   1.00
N4619  N     0.26482   0.26482   0.49832   0.00000  Uiso   1.00
C4620  C     0.22448   0.22448   0.53444   0.00000  Uiso   1.00
C4621  C     0.21033   0.21033   0.55563   0.00000  Uiso   1.00
N4622  N     0.20329   0.20329   0.56664   0.00000  Uiso   1.00
C4623  C     0.20600   0.20600   0.57955   0.00000  Uiso   1.00
C4624  C     0.19863   0.19863   0.59062   0.00000  Uiso   1.00
C4625  C     0.18509   0.18509   0.61260   0.00000  Uiso   1.00
C4626  C     0.17831   0.17831   0.62449   0.00000  Uiso   1.00
C4627  C     0.16546   0.16546   0.64728   0.00000  Uiso   1.00
C4628  C     0.23218   0.23218   0.52351   0.00000  Uiso   1.00
H4629  H     0.28710   0.28710   0.48469   0.00000  Uiso   1.00
H4630  H     0.30912   0.30912   0.44367   0.00000  Uiso   1.00
H4631  H     0.28710   0.28710   0.51195   0.00000  Uiso   1.00
H4632  H     0.21373   0.21373   0.58232   0.00000  Uiso   1.00
C4633  C     0.27086   0.77086   0.00952   0.00000  Uiso   1.00
C4634  C     0.28062   0.78062   0.99123   0.00000  Uiso   1.00
C4635  C     0.27552   0.77552   0.96221   0.00000  Uiso   1.00
C4636  C     0.28991   0.78991   0.94136   0.00000  Uiso   1.00
N4637  N     0.29706   0.79706   0.93049   0.00000  Uiso   1.00
C4638  C     0.30641   0.80641   0.93307   0.00000  Uiso   1.00
C4639  C     0.31342   0.81342   0.92154   0.00000  Uiso   1.00
C4640  C     0.32655   0.82655   0.89908   0.00000  Uiso   1.00
C4641  C     0.33321   0.83321   0.88706   0.00000  Uiso   1.00
C4642  C     0.34586   0.84586   0.86405   0.00000  Uiso   1.00
C4643  C     0.26782   0.76782   0.97313   0.00000  Uiso   1.00
C4644  C     0.27086   0.77086   0.98712   0.00000  Uiso   1.00
C4645  C     0.28062   0.78062   0.00541   0.00000  Uiso   1.00
N4646  N     0.26482   0.76482   0.99832   0.00000  Uiso   1.00
C4647  C     0.22448   0.72448   0.03444   0.00000  Uiso   1.00
C4648  C     0.21033   0.71033   0.05563   0.00000  Uiso   1.00
N4649  N     0.20329   0.70329   0.06664   0.00000  Uiso   1.00
C4650  C     0.20600   0.70600   0.07955   0.00000  Uiso   1.00
C4651  C     0.19863   0.69863   0.09062   0.00000  Uiso   1.00
C4652  C     0.18509   0.68509   0.11260   0.00000  Uiso   1.00
C4653  C     0.17831   0.67831   0.12449   0.00000  Uiso   1.00
C4654  C     0.16546   0.66546   0.14728   0.00000  Uiso   1.00
C4655  C     0.23218   0.73218   0.02351   0.00000  Uiso   1.00
H4656  H     0.28710   0.78710   0.98469   0.00000  Uiso   1.00
H4657  H     0.30912   0.80912   0.94367   0.00000  Uiso   1.00
H4658  H     0.28710   0.78710   0.01195   0.00000  Uiso   1.00
H4659  H     0.21373   0.71373   0.08232   0.00000  Uiso   1.00
C4660  C     0.77086   0.27086   0.00952   0.00000  Uiso   1.00
C4661  C     0.78062   0.28062   0.99123   0.00000  Uiso   1.00
C4662  C     0.77552   0.27552   0.96221   0.00000  Uiso   1.00
C4663  C     0.78991   0.28991   0.94136   0.00000  Uiso   1.00
N4664  N     0.79706   0.29706   0.93049   0.00000  Uiso   1.00
C4665  C     0.80641   0.30641   0.93307   0.00000  Uiso   1.00
C4666  C     0.81342   0.31342   0.92154   0.00000  Uiso   1.00
C4667  C     0.82655   0.32655   0.89908   0.00000  Uiso   1.00
C4668  C     0.83321   0.33321   0.88706   0.00000  Uiso   1.00
C4669  C     0.84586   0.34586   0.86405   0.00000  Uiso   1.00
C4670  C     0.76782   0.26782   0.97313   0.00000  Uiso   1.00
C4671  C     0.77086   0.27086   0.98712   0.00000  Uiso   1.00
C4672  C     0.78062   0.28062   0.00541   0.00000  Uiso   1.00
N4673  N     0.76482   0.26482   0.99832   0.00000  Uiso   1.00
C4674  C     0.72448   0.22448   0.03444   0.00000  Uiso   1.00
C4675  C     0.71033   0.21033   0.05563   0.00000  Uiso   1.00
N4676  N     0.70329   0.20329   0.06664   0.00000  Uiso   1.00
C4677  C     0.70600   0.20600   0.07955   0.00000  Uiso   1.00
C4678  C     0.69863   0.19863   0.09062   0.00000  Uiso   1.00
C4679  C     0.68509   0.18509   0.11260   0.00000  Uiso   1.00
C4680  C     0.67831   0.17831   0.12449   0.00000  Uiso   1.00
C4681  C     0.66546   0.16546   0.14728   0.00000  Uiso   1.00
C4682  C     0.73218   0.23218   0.02351   0.00000  Uiso   1.00
H4683  H     0.78710   0.28710   0.98469   0.00000  Uiso   1.00
H4684  H     0.80912   0.30912   0.94367   0.00000  Uiso   1.00
H4685  H     0.78710   0.28710   0.01195   0.00000  Uiso   1.00
H4686  H     0.71373   0.21373   0.08232   0.00000  Uiso   1.00
C4687  C     0.77086   0.77086   0.50952   0.00000  Uiso   1.00
C4688  C     0.78062   0.78062   0.49123   0.00000  Uiso   1.00
C4689  C     0.77552   0.77552   0.46221   0.00000  Uiso   1.00
C4690  C     0.78991   0.78991   0.44136   0.00000  Uiso   1.00
N4691  N     0.79706   0.79706   0.43049   0.00000  Uiso   1.00
C4692  C     0.80641   0.80641   0.43307   0.00000  Uiso   1.00
C4693  C     0.81342   0.81342   0.42154   0.00000  Uiso   1.00
C4694  C     0.82655   0.82655   0.39908   0.00000  Uiso   1.00
C4695  C     0.83321   0.83321   0.38706   0.00000  Uiso   1.00
C4696  C     0.84586   0.84586   0.36405   0.00000  Uiso   1.00
C4697  C     0.76782   0.76782   0.47313   0.00000  Uiso   1.00
C4698  C     0.77086   0.77086   0.48712   0.00000  Uiso   1.00
C4699  C     0.78062   0.78062   0.50541   0.00000  Uiso   1.00
N4700  N     0.76482   0.76482   0.49832   0.00000  Uiso   1.00
C4701  C     0.72448   0.72448   0.53444   0.00000  Uiso   1.00
C4702  C     0.71033   0.71033   0.55563   0.00000  Uiso   1.00
N4703  N     0.70329   0.70329   0.56664   0.00000  Uiso   1.00
C4704  C     0.70600   0.70600   0.57955   0.00000  Uiso   1.00
C4705  C     0.69863   0.69863   0.59062   0.00000  Uiso   1.00
C4706  C     0.68509   0.68509   0.61260   0.00000  Uiso   1.00
C4707  C     0.67831   0.67831   0.62449   0.00000  Uiso   1.00
C4708  C     0.66546   0.66546   0.64728   0.00000  Uiso   1.00
C4709  C     0.73218   0.73218   0.52351   0.00000  Uiso   1.00
H4710  H     0.78710   0.78710   0.48469   0.00000  Uiso   1.00
H4711  H     0.80912   0.80912   0.44367   0.00000  Uiso   1.00
H4712  H     0.78710   0.78710   0.51195   0.00000  Uiso   1.00
H4713  H     0.71373   0.71373   0.58232   0.00000  Uiso   1.00
C4714  C     0.77086   0.72914   0.99048   0.00000  Uiso   1.00
C4715  C     0.78062   0.71938   0.00877   0.00000  Uiso   1.00
C4716  C     0.77552   0.72448   0.03779   0.00000  Uiso   1.00
C4717  C     0.78991   0.71009   0.05864   0.00000  Uiso   1.00
N4718  N     0.79706   0.70294   0.06951   0.00000  Uiso   1.00
C4719  C     0.80641   0.69359   0.06693   0.00000  Uiso   1.00
C4720  C     0.81342   0.68658   0.07846   0.00000  Uiso   1.00
C4721  C     0.82655   0.67345   0.10092   0.00000  Uiso   1.00
C4722  C     0.83321   0.66679   0.11294   0.00000  Uiso   1.00
C4723  C     0.84586   0.65414   0.13595   0.00000  Uiso   1.00
C4724  C     0.76782   0.73218   0.02687   0.00000  Uiso   1.00
C4725  C     0.77086   0.72914   0.01288   0.00000  Uiso   1.00
C4726  C     0.78062   0.71938   0.99459   0.00000  Uiso   1.00
N4727  N     0.76482   0.73518   0.00168   0.00000  Uiso   1.00
C4728  C     0.72448   0.77552   0.96556   0.00000  Uiso   1.00
C4729  C     0.71033   0.78967   0.94437   0.00000  Uiso   1.00
N4730  N     0.70329   0.79671   0.93336   0.00000  Uiso   1.00
C4731  C     0.70600   0.79400   0.92045   0.00000  Uiso   1.00
C4732  C     0.69863   0.80137   0.90938   0.00000  Uiso   1.00
C4733  C     0.68509   0.81491   0.88740   0.00000  Uiso   1.00
C4734  C     0.67831   0.82169   0.87551   0.00000  Uiso   1.00
C4735  C     0.66546   0.83454   0.85272   0.00000  Uiso   1.00
C4736  C     0.73218   0.76782   0.97649   0.00000  Uiso   1.00
H4737  H     0.78710   0.71290   0.01531   0.00000  Uiso   1.00
H4738  H     0.80912   0.69088   0.05633   0.00000  Uiso   1.00
H4739  H     0.78710   0.71290   0.98805   0.00000  Uiso   1.00
H4740  H     0.71373   0.78627   0.91768   0.00000  Uiso   1.00
C4741  C     0.27086   0.72914   0.49048   0.00000  Uiso   1.00
C4742  C     0.28062   0.71938   0.50877   0.00000  Uiso   1.00
C4743  C     0.27552   0.72448   0.53779   0.00000  Uiso   1.00
C4744  C     0.28991   0.71009   0.55864   0.00000  Uiso   1.00
N4745  N     0.29706   0.70294   0.56951   0.00000  Uiso   1.00
C4746  C     0.30641   0.69359   0.56693   0.00000  Uiso   1.00
C4747  C     0.31342   0.68658   0.57846   0.00000  Uiso   1.00
C4748  C     0.32655   0.67345   0.60092   0.00000  Uiso   1.00
C4749  C     0.33321   0.66679   0.61294   0.00000  Uiso   1.00
C4750  C     0.34586   0.65414   0.63595   0.00000  Uiso   1.00
C4751  C     0.26782   0.73218   0.52687   0.00000  Uiso   1.00
C4752  C     0.27086   0.72914   0.51288   0.00000  Uiso   1.00
C4753  C     0.28062   0.71938   0.49459   0.00000  Uiso   1.00
N4754  N     0.26482   0.73518   0.50168   0.00000  Uiso   1.00
C4755  C     0.22448   0.77552   0.46556   0.00000  Uiso   1.00
C4756  C     0.21033   0.78967   0.44437   0.00000  Uiso   1.00
N4757  N     0.20329   0.79671   0.43336   0.00000  Uiso   1.00
C4758  C     0.20600   0.79400   0.42045   0.00000  Uiso   1.00
C4759  C     0.19863   0.80137   0.40938   0.00000  Uiso   1.00
C4760  C     0.18509   0.81491   0.38740   0.00000  Uiso   1.00
C4761  C     0.17831   0.82169   0.37551   0.00000  Uiso   1.00
C4762  C     0.16546   0.83454   0.35272   0.00000  Uiso   1.00
C4763  C     0.23218   0.76782   0.47649   0.00000  Uiso   1.00
H4764  H     0.28710   0.71290   0.51531   0.00000  Uiso   1.00
H4765  H     0.30912   0.69088   0.55633   0.00000  Uiso   1.00
H4766  H     0.28710   0.71290   0.48805   0.00000  Uiso   1.00
H4767  H     0.21373   0.78627   0.41768   0.00000  Uiso   1.00
C4768  C     0.22914   0.77086   0.49048   0.00000  Uiso   1.00
C4769  C     0.21938   0.78062   0.50877   0.00000  Uiso   1.00
C4770  C     0.22448   0.77552   0.53779   0.00000  Uiso   1.00
C4771  C     0.21009   0.78991   0.55864   0.00000  Uiso   1.00
N4772  N     0.20294   0.79706   0.56951   0.00000  Uiso   1.00
C4773  C     0.19359   0.80641   0.56693   0.00000  Uiso   1.00
C4774  C     0.18658   0.81342   0.57846   0.00000  Uiso   1.00
C4775  C     0.17345   0.82655   0.60092   0.00000  Uiso   1.00
C4776  C     0.16679   0.83321   0.61294   0.00000  Uiso   1.00
C4777  C     0.15414   0.84586   0.63595   0.00000  Uiso   1.00
C4778  C     0.23218   0.76782   0.52687   0.00000  Uiso   1.00
C4779  C     0.22914   0.77086   0.51288   0.00000  Uiso   1.00
C4780  C     0.21938   0.78062   0.49459   0.00000  Uiso   1.00
N4781  N     0.23518   0.76482   0.50168   0.00000  Uiso   1.00
C4782  C     0.27552   0.72448   0.46556   0.00000  Uiso   1.00
C4783  C     0.28967   0.71033   0.44437   0.00000  Uiso   1.00
N4784  N     0.29671   0.70329   0.43336   0.00000  Uiso   1.00
C4785  C     0.29400   0.70600   0.42045   0.00000  Uiso   1.00
C4786  C     0.30137   0.69863   0.40938   0.00000  Uiso   1.00
C4787  C     0.31491   0.68509   0.38740   0.00000  Uiso   1.00
C4788  C     0.32169   0.67831   0.37551   0.00000  Uiso   1.00
C4789  C     0.33454   0.66546   0.35272   0.00000  Uiso   1.00
C4790  C     0.26782   0.73218   0.47649   0.00000  Uiso   1.00
H4791  H     0.21290   0.78710   0.51531   0.00000  Uiso   1.00
H4792  H     0.19088   0.80912   0.55633   0.00000  Uiso   1.00
H4793  H     0.21290   0.78710   0.48805   0.00000  Uiso   1.00
H4794  H     0.28627   0.71373   0.41768   0.00000  Uiso   1.00
C4795  C     0.22914   0.27086   0.99048   0.00000  Uiso   1.00
C4796  C     0.21938   0.28062   0.00877   0.00000  Uiso   1.00
C4797  C     0.22448   0.27552   0.03779   0.00000  Uiso   1.00
C4798  C     0.21009   0.28991   0.05864   0.00000  Uiso   1.00
N4799  N     0.20294   0.29706   0.06951   0.00000  Uiso   1.00
C4800  C     0.19359   0.30641   0.06693   0.00000  Uiso   1.00
C4801  C     0.18658   0.31342   0.07846   0.00000  Uiso   1.00
C4802  C     0.17345   0.32655   0.10092   0.00000  Uiso   1.00
C4803  C     0.16679   0.33321   0.11294   0.00000  Uiso   1.00
C4804  C     0.15414   0.34586   0.13595   0.00000  Uiso   1.00
C4805  C     0.23218   0.26782   0.02687   0.00000  Uiso   1.00
C4806  C     0.22914   0.27086   0.01288   0.00000  Uiso   1.00
C4807  C     0.21938   0.28062   0.99459   0.00000  Uiso   1.00
N4808  N     0.23518   0.26482   0.00168   0.00000  Uiso   1.00
C4809  C     0.27552   0.22448   0.96556   0.00000  Uiso   1.00
C4810  C     0.28967   0.21033   0.94437   0.00000  Uiso   1.00
N4811  N     0.29671   0.20329   0.93336   0.00000  Uiso   1.00
C4812  C     0.29400   0.20600   0.92045   0.00000  Uiso   1.00
C4813  C     0.30137   0.19863   0.90938   0.00000  Uiso   1.00
C4814  C     0.31491   0.18509   0.88740   0.00000  Uiso   1.00
C4815  C     0.32169   0.17831   0.87551   0.00000  Uiso   1.00
C4816  C     0.33454   0.16546   0.85272   0.00000  Uiso   1.00
C4817  C     0.26782   0.23218   0.97649   0.00000  Uiso   1.00
H4818  H     0.21290   0.28710   0.01531   0.00000  Uiso   1.00
H4819  H     0.19088   0.30912   0.05633   0.00000  Uiso   1.00
H4820  H     0.21290   0.28710   0.98805   0.00000  Uiso   1.00
H4821  H     0.28627   0.21373   0.91768   0.00000  Uiso   1.00
C4822  C     0.72914   0.22914   0.00952   0.00000  Uiso   1.00
C4823  C     0.71938   0.21938   0.99123   0.00000  Uiso   1.00
C4824  C     0.72448   0.22448   0.96221   0.00000  Uiso   1.00
C4825  C     0.71009   0.21009   0.94136   0.00000  Uiso   1.00
N4826  N     0.70294   0.20294   0.93049   0.00000  Uiso   1.00
C4827  C     0.69359   0.19359   0.93307   0.00000  Uiso   1.00
C4828  C     0.68658   0.18658   0.92154   0.00000  Uiso   1.00
C4829  C     0.67345   0.17345   0.89908   0.00000  Uiso   1.00
C4830  C     0.66679   0.16679   0.88706   0.00000  Uiso   1.00
C4831  C     0.65414   0.15414   0.86405   0.00000  Uiso   1.00
C4832  C     0.73218   0.23218   0.97313   0.00000  Uiso   1.00
C4833  C     0.72914   0.22914   0.98712   0.00000  Uiso   1.00
C4834  C     0.71938   0.21938   0.00541   0.00000  Uiso   1.00
N4835  N     0.73518   0.23518   0.99832   0.00000  Uiso   1.00
C4836  C     0.77552   0.27552   0.03444   0.00000  Uiso   1.00
C4837  C     0.78967   0.28967   0.05563   0.00000  Uiso   1.00
N4838  N     0.79671   0.29671   0.06664   0.00000  Uiso   1.00
C4839  C     0.79400   0.29400   0.07955   0.00000  Uiso   1.00
C4840  C     0.80137   0.30137   0.09062   0.00000  Uiso   1.00
C4841  C     0.81491   0.31491   0.11260   0.00000  Uiso   1.00
C4842  C     0.82169   0.32169   0.12449   0.00000  Uiso   1.00
C4843  C     0.83454   0.33454   0.14728   0.00000  Uiso   1.00
C4844  C     0.76782   0.26782   0.02351   0.00000  Uiso   1.00
H4845  H     0.71290   0.21290   0.98469   0.00000  Uiso   1.00
H4846  H     0.69088   0.19088   0.94367   0.00000  Uiso   1.00
H4847  H     0.71290   0.21290   0.01195   0.00000  Uiso   1.00
H4848  H     0.78627   0.28627   0.08232   0.00000  Uiso   1.00
C4849  C     0.72914   0.72914   0.50952   0.00000  Uiso   1.00
C4850  C     0.71938   0.71938   0.49123   0.00000  Uiso   1.00
C4851  C     0.72448   0.72448   0.46221   0.00000  Uiso   1.00
C4852  C     0.71009   0.71009   0.44136   0.00000  Uiso   1.00
N4853  N     0.70294   0.70294   0.43049   0.00000  Uiso   1.00
C4854  C     0.69359   0.69359   0.43307   0.00000  Uiso   1.00
C4855  C     0.68658   0.68658   0.42154   0.00000  Uiso   1.00
C4856  C     0.67345   0.67345   0.39908   0.00000  Uiso   1.00
C4857  C     0.66679   0.66679   0.38706   0.00000  Uiso   1.00
C4858  C     0.65414   0.65414   0.36405   0.00000  Uiso   1.00
C4859  C     0.73218   0.73218   0.47313   0.00000  Uiso   1.00
C4860  C     0.72914   0.72914   0.48712   0.00000  Uiso   1.00
C4861  C     0.71938   0.71938   0.50541   0.00000  Uiso   1.00
N4862  N     0.73518   0.73518   0.49832   0.00000  Uiso   1.00
C4863  C     0.77552   0.77552   0.53444   0.00000  Uiso   1.00
C4864  C     0.78967   0.78967   0.55563   0.00000  Uiso   1.00
N4865  N     0.79671   0.79671   0.56664   0.00000  Uiso   1.00
C4866  C     0.79400   0.79400   0.57955   0.00000  Uiso   1.00
C4867  C     0.80137   0.80137   0.59062   0.00000  Uiso   1.00
C4868  C     0.81491   0.81491   0.61260   0.00000  Uiso   1.00
C4869  C     0.82169   0.82169   0.62449   0.00000  Uiso   1.00
C4870  C     0.83454   0.83454   0.64728   0.00000  Uiso   1.00
C4871  C     0.76782   0.76782   0.52351   0.00000  Uiso   1.00
H4872  H     0.71290   0.71290   0.48469   0.00000  Uiso   1.00
H4873  H     0.69088   0.69088   0.44367   0.00000  Uiso   1.00
H4874  H     0.71290   0.71290   0.51195   0.00000  Uiso   1.00
H4875  H     0.78627   0.78627   0.58232   0.00000  Uiso   1.00
C4876  C     0.00952   0.22914   0.72914   0.00000  Uiso   1.00
C4877  C     0.99123   0.21938   0.71938   0.00000  Uiso   1.00
C4878  C     0.96221   0.22448   0.72448   0.00000  Uiso   1.00
C4879  C     0.94136   0.21009   0.71009   0.00000  Uiso   1.00
N4880  N     0.93049   0.20294   0.70294   0.00000  Uiso   1.00
C4881  C     0.93307   0.19359   0.69359   0.00000  Uiso   1.00
C4882  C     0.92154   0.18658   0.68658   0.00000  Uiso   1.00
C4883  C     0.89908   0.17345   0.67345   0.00000  Uiso   1.00
C4884  C     0.88706   0.16679   0.66679   0.00000  Uiso   1.00
C4885  C     0.86405   0.15414   0.65414   0.00000  Uiso   1.00
C4886  C     0.97313   0.23218   0.73218   0.00000  Uiso   1.00
C4887  C     0.98712   0.22914   0.72914   0.00000  Uiso   1.00
C4888  C     0.00541   0.21938   0.71938   0.00000  Uiso   1.00
N4889  N     0.99832   0.23518   0.73518   0.00000  Uiso   1.00
C4890  C     0.03444   0.27552   0.77552   0.00000  Uiso   1.00
C4891  C     0.05563   0.28967   0.78967   0.00000  Uiso   1.00
N4892  N     0.06664   0.29671   0.79671   0.00000  Uiso   1.00
C4893  C     0.07955   0.29400   0.79400   0.00000  Uiso   1.00
C4894  C     0.09062   0.30137   0.80137   0.00000  Uiso   1.00
C4895  C     0.11260   0.31491   0.81491   0.00000  Uiso   1.00
C4896  C     0.12449   0.32169   0.82169   0.00000  Uiso   1.00
C4897  C     0.14728   0.33454   0.83454   0.00000  Uiso   1.00
C4898  C     0.02351   0.26782   0.76782   0.00000  Uiso   1.00
H4899  H     0.98469   0.21290   0.71290   0.00000  Uiso   1.00
H4900  H     0.94367   0.19088   0.69088   0.00000  Uiso   1.00
H4901  H     0.01195   0.21290   0.71290   0.00000  Uiso   1.00
H4902  H     0.08232   0.28627   0.78627   0.00000  Uiso   1.00
C4903  C     0.50952   0.22914   0.22914   0.00000  Uiso   1.00
C4904  C     0.49123   0.21938   0.21938   0.00000  Uiso   1.00
C4905  C     0.46221   0.22448   0.22448   0.00000  Uiso   1.00
C4906  C     0.44136   0.21009   0.21009   0.00000  Uiso   1.00
N4907  N     0.43049   0.20294   0.20294   0.00000  Uiso   1.00
C4908  C     0.43307   0.19359   0.19359   0.00000  Uiso   1.00
C4909  C     0.42154   0.18658   0.18658   0.00000  Uiso   1.00
C4910  C     0.39908   0.17345   0.17345   0.00000  Uiso   1.00
C4911  C     0.38706   0.16679   0.16679   0.00000  Uiso   1.00
C4912  C     0.36405   0.15414   0.15414   0.00000  Uiso   1.00
C4913  C     0.47313   0.23218   0.23218   0.00000  Uiso   1.00
C4914  C     0.48712   0.22914   0.22914   0.00000  Uiso   1.00
C4915  C     0.50541   0.21938   0.21938   0.00000  Uiso   1.00
N4916  N     0.49832   0.23518   0.23518   0.00000  Uiso   1.00
C4917  C     0.53444   0.27552   0.27552   0.00000  Uiso   1.00
C4918  C     0.55563   0.28967   0.28967   0.00000  Uiso   1.00
N4919  N     0.56664   0.29671   0.29671   0.00000  Uiso   1.00
C4920  C     0.57955   0.29400   0.29400   0.00000  Uiso   1.00
C4921  C     0.59062   0.30137   0.30137   0.00000  Uiso   1.00
C4922  C     0.61260   0.31491   0.31491   0.00000  Uiso   1.00
C4923  C     0.62449   0.32169   0.32169   0.00000  Uiso   1.00
C4924  C     0.64728   0.33454   0.33454   0.00000  Uiso   1.00
C4925  C     0.52351   0.26782   0.26782   0.00000  Uiso   1.00
H4926  H     0.48469   0.21290   0.21290   0.00000  Uiso   1.00
H4927  H     0.44367   0.19088   0.19088   0.00000  Uiso   1.00
H4928  H     0.51195   0.21290   0.21290   0.00000  Uiso   1.00
H4929  H     0.58232   0.28627   0.28627   0.00000  Uiso   1.00
C4930  C     0.49048   0.77086   0.22914   0.00000  Uiso   1.00
C4931  C     0.50877   0.78062   0.21938   0.00000  Uiso   1.00
C4932  C     0.53779   0.77552   0.22448   0.00000  Uiso   1.00
C4933  C     0.55864   0.78991   0.21009   0.00000  Uiso   1.00
N4934  N     0.56951   0.79706   0.20294   0.00000  Uiso   1.00
C4935  C     0.56693   0.80641   0.19359   0.00000  Uiso   1.00
C4936  C     0.57846   0.81342   0.18658   0.00000  Uiso   1.00
C4937  C     0.60092   0.82655   0.17345   0.00000  Uiso   1.00
C4938  C     0.61294   0.83321   0.16679   0.00000  Uiso   1.00
C4939  C     0.63595   0.84586   0.15414   0.00000  Uiso   1.00
C4940  C     0.52687   0.76782   0.23218   0.00000  Uiso   1.00
C4941  C     0.51288   0.77086   0.22914   0.00000  Uiso   1.00
C4942  C     0.49459   0.78062   0.21938   0.00000  Uiso   1.00
N4943  N     0.50168   0.76482   0.23518   0.00000  Uiso   1.00
C4944  C     0.46556   0.72448   0.27552   0.00000  Uiso   1.00
C4945  C     0.44437   0.71033   0.28967   0.00000  Uiso   1.00
N4946  N     0.43336   0.70329   0.29671   0.00000  Uiso   1.00
C4947  C     0.42045   0.70600   0.29400   0.00000  Uiso   1.00
C4948  C     0.40938   0.69863   0.30137   0.00000  Uiso   1.00
C4949  C     0.38740   0.68509   0.31491   0.00000  Uiso   1.00
C4950  C     0.37551   0.67831   0.32169   0.00000  Uiso   1.00
C4951  C     0.35272   0.66546   0.33454   0.00000  Uiso   1.00
C4952  C     0.47649   0.73218   0.26782   0.00000  Uiso   1.00
H4953  H     0.51531   0.78710   0.21290   0.00000  Uiso   1.00
H4954  H     0.55633   0.80912   0.19088   0.00000  Uiso   1.00
H4955  H     0.48805   0.78710   0.21290   0.00000  Uiso   1.00
H4956  H     0.41768   0.71373   0.28627   0.00000  Uiso   1.00
C4957  C     0.49048   0.27086   0.72914   0.00000  Uiso   1.00
C4958  C     0.50877   0.28062   0.71938   0.00000  Uiso   1.00
C4959  C     0.53779   0.27552   0.72448   0.00000  Uiso   1.00
C4960  C     0.55864   0.28991   0.71009   0.00000  Uiso   1.00
N4961  N     0.56951   0.29706   0.70294   0.00000  Uiso   1.00
C4962  C     0.56693   0.30641   0.69359   0.00000  Uiso   1.00
C4963  C     0.57846   0.31342   0.68658   0.00000  Uiso   1.00
C4964  C     0.60092   0.32655   0.67345   0.00000  Uiso   1.00
C4965  C     0.61294   0.33321   0.66679   0.00000  Uiso   1.00
C4966  C     0.63595   0.34586   0.65414   0.00000  Uiso   1.00
C4967  C     0.52687   0.26782   0.73218   0.00000  Uiso   1.00
C4968  C     0.51288   0.27086   0.72914   0.00000  Uiso   1.00
C4969  C     0.49459   0.28062   0.71938   0.00000  Uiso   1.00
N4970  N     0.50168   0.26482   0.73518   0.00000  Uiso   1.00
C4971  C     0.46556   0.22448   0.77552   0.00000  Uiso   1.00
C4972  C     0.44437   0.21033   0.78967   0.00000  Uiso   1.00
N4973  N     0.43336   0.20329   0.79671   0.00000  Uiso   1.00
C4974  C     0.42045   0.20600   0.79400   0.00000  Uiso   1.00
C4975  C     0.40938   0.19863   0.80137   0.00000  Uiso   1.00
C4976  C     0.38740   0.18509   0.81491   0.00000  Uiso   1.00
C4977  C     0.37551   0.17831   0.82169   0.00000  Uiso   1.00
C4978  C     0.35272   0.16546   0.83454   0.00000  Uiso   1.00
C4979  C     0.47649   0.23218   0.76782   0.00000  Uiso   1.00
H4980  H     0.51531   0.28710   0.71290   0.00000  Uiso   1.00
H4981  H     0.55633   0.30912   0.69088   0.00000  Uiso   1.00
H4982  H     0.48805   0.28710   0.71290   0.00000  Uiso   1.00
H4983  H     0.41768   0.21373   0.78627   0.00000  Uiso   1.00
C4984  C     0.99048   0.72914   0.77086   0.00000  Uiso   1.00
C4985  C     0.00877   0.71938   0.78062   0.00000  Uiso   1.00
C4986  C     0.03779   0.72448   0.77552   0.00000  Uiso   1.00
C4987  C     0.05864   0.71009   0.78991   0.00000  Uiso   1.00
N4988  N     0.06951   0.70294   0.79706   0.00000  Uiso   1.00
C4989  C     0.06693   0.69359   0.80641   0.00000  Uiso   1.00
C4990  C     0.07846   0.68658   0.81342   0.00000  Uiso   1.00
C4991  C     0.10092   0.67345   0.82655   0.00000  Uiso   1.00
C4992  C     0.11294   0.66679   0.83321   0.00000  Uiso   1.00
C4993  C     0.13595   0.65414   0.84586   0.00000  Uiso   1.00
C4994  C     0.02687   0.73218   0.76782   0.00000  Uiso   1.00
C4995  C     0.01288   0.72914   0.77086   0.00000  Uiso   1.00
C4996  C     0.99459   0.71938   0.78062   0.00000  Uiso   1.00
N4997  N     0.00168   0.73518   0.76482   0.00000  Uiso   1.00
C4998  C     0.96556   0.77552   0.72448   0.00000  Uiso   1.00
C4999  C     0.94437   0.78967   0.71033   0.00000  Uiso   1.00
N5000  N     0.93336   0.79671   0.70329   0.00000  Uiso   1.00
C5001  C     0.92045   0.79400   0.70600   0.00000  Uiso   1.00
C5002  C     0.90938   0.80137   0.69863   0.00000  Uiso   1.00
C5003  C     0.88740   0.81491   0.68509   0.00000  Uiso   1.00
C5004  C     0.87551   0.82169   0.67831   0.00000  Uiso   1.00
C5005  C     0.85272   0.83454   0.66546   0.00000  Uiso   1.00
C5006  C     0.97649   0.76782   0.73218   0.00000  Uiso   1.00
H5007  H     0.01531   0.71290   0.78710   0.00000  Uiso   1.00
H5008  H     0.05633   0.69088   0.80912   0.00000  Uiso   1.00
H5009  H     0.98805   0.71290   0.78710   0.00000  Uiso   1.00
H5010  H     0.91768   0.78627   0.71373   0.00000  Uiso   1.00
C5011  C     0.99048   0.22914   0.27086   0.00000  Uiso   1.00
C5012  C     0.00877   0.21938   0.28062   0.00000  Uiso   1.00
C5013  C     0.03779   0.22448   0.27552   0.00000  Uiso   1.00
C5014  C     0.05864   0.21009   0.28991   0.00000  Uiso   1.00
N5015  N     0.06951   0.20294   0.29706   0.00000  Uiso   1.00
C5016  C     0.06693   0.19359   0.30641   0.00000  Uiso   1.00
C5017  C     0.07846   0.18658   0.31342   0.00000  Uiso   1.00
C5018  C     0.10092   0.17345   0.32655   0.00000  Uiso   1.00
C5019  C     0.11294   0.16679   0.33321   0.00000  Uiso   1.00
C5020  C     0.13595   0.15414   0.34586   0.00000  Uiso   1.00
C5021  C     0.02687   0.23218   0.26782   0.00000  Uiso   1.00
C5022  C     0.01288   0.22914   0.27086   0.00000  Uiso   1.00
C5023  C     0.99459   0.21938   0.28062   0.00000  Uiso   1.00
N5024  N     0.00168   0.23518   0.26482   0.00000  Uiso   1.00
C5025  C     0.96556   0.27552   0.22448   0.00000  Uiso   1.00
C5026  C     0.94437   0.28967   0.21033   0.00000  Uiso   1.00
N5027  N     0.93336   0.29671   0.20329   0.00000  Uiso   1.00
C5028  C     0.92045   0.29400   0.20600   0.00000  Uiso   1.00
C5029  C     0.90938   0.30137   0.19863   0.00000  Uiso   1.00
C5030  C     0.88740   0.31491   0.18509   0.00000  Uiso   1.00
C5031  C     0.87551   0.32169   0.17831   0.00000  Uiso   1.00
C5032  C     0.85272   0.33454   0.16546   0.00000  Uiso   1.00
C5033  C     0.97649   0.26782   0.23218   0.00000  Uiso   1.00
H5034  H     0.01531   0.21290   0.28710   0.00000  Uiso   1.00
H5035  H     0.05633   0.19088   0.30912   0.00000  Uiso   1.00
H5036  H     0.98805   0.21290   0.28710   0.00000  Uiso   1.00
H5037  H     0.91768   0.28627   0.21373   0.00000  Uiso   1.00
C5038  C     0.72914   0.00952   0.22914   0.00000  Uiso   1.00
C5039  C     0.71938   0.99123   0.21938   0.00000  Uiso   1.00
C5040  C     0.72448   0.96221   0.22448   0.00000  Uiso   1.00
C5041  C     0.71009   0.94136   0.21009   0.00000  Uiso   1.00
N5042  N     0.70294   0.93049   0.20294   0.00000  Uiso   1.00
C5043  C     0.69359   0.93307   0.19359   0.00000  Uiso   1.00
C5044  C     0.68658   0.92154   0.18658   0.00000  Uiso   1.00
C5045  C     0.67345   0.89908   0.17345   0.00000  Uiso   1.00
C5046  C     0.66679   0.88706   0.16679   0.00000  Uiso   1.00
C5047  C     0.65414   0.86405   0.15414   0.00000  Uiso   1.00
C5048  C     0.73218   0.97313   0.23218   0.00000  Uiso   1.00
C5049  C     0.72914   0.98712   0.22914   0.00000  Uiso   1.00
C5050  C     0.71938   0.00541   0.21938   0.00000  Uiso   1.00
N5051  N     0.73518   0.99832   0.23518   0.00000  Uiso   1.00
C5052  C     0.77552   0.03444   0.27552   0.00000  Uiso   1.00
C5053  C     0.78967   0.05563   0.28967   0.00000  Uiso   1.00
N5054  N     0.79671   0.06664   0.29671   0.00000  Uiso   1.00
C5055  C     0.79400   0.07955   0.29400   0.00000  Uiso   1.00
C5056  C     0.80137   0.09062   0.30137   0.00000  Uiso   1.00
C5057  C     0.81491   0.11260   0.31491   0.00000  Uiso   1.00
C5058  C     0.82169   0.12449   0.32169   0.00000  Uiso   1.00
C5059  C     0.83454   0.14728   0.33454   0.00000  Uiso   1.00
C5060  C     0.76782   0.02351   0.26782   0.00000  Uiso   1.00
H5061  H     0.71290   0.98469   0.21290   0.00000  Uiso   1.00
H5062  H     0.69088   0.94367   0.19088   0.00000  Uiso   1.00
H5063  H     0.71290   0.01195   0.21290   0.00000  Uiso   1.00
H5064  H     0.78627   0.08232   0.28627   0.00000  Uiso   1.00
C5065  C     0.22914   0.49048   0.77086   0.00000  Uiso   1.00
C5066  C     0.21938   0.50877   0.78062   0.00000  Uiso   1.00
C5067  C     0.22448   0.53779   0.77552   0.00000  Uiso   1.00
C5068  C     0.21009   0.55864   0.78991   0.00000  Uiso   1.00
N5069  N     0.20294   0.56951   0.79706   0.00000  Uiso   1.00
C5070  C     0.19359   0.56693   0.80641   0.00000  Uiso   1.00
C5071  C     0.18658   0.57846   0.81342   0.00000  Uiso   1.00
C5072  C     0.17345   0.60092   0.82655   0.00000  Uiso   1.00
C5073  C     0.16679   0.61294   0.83321   0.00000  Uiso   1.00
C5074  C     0.15414   0.63595   0.84586   0.00000  Uiso   1.00
C5075  C     0.23218   0.52687   0.76782   0.00000  Uiso   1.00
C5076  C     0.22914   0.51288   0.77086   0.00000  Uiso   1.00
C5077  C     0.21938   0.49459   0.78062   0.00000  Uiso   1.00
N5078  N     0.23518   0.50168   0.76482   0.00000  Uiso   1.00
C5079  C     0.27552   0.46556   0.72448   0.00000  Uiso   1.00
C5080  C     0.28967   0.44437   0.71033   0.00000  Uiso   1.00
N5081  N     0.29671   0.43336   0.70329   0.00000  Uiso   1.00
C5082  C     0.29400   0.42045   0.70600   0.00000  Uiso   1.00
C5083  C     0.30137   0.40938   0.69863   0.00000  Uiso   1.00
C5084  C     0.31491   0.38740   0.68509   0.00000  Uiso   1.00
C5085  C     0.32169   0.37551   0.67831   0.00000  Uiso   1.00
C5086  C     0.33454   0.35272   0.66546   0.00000  Uiso   1.00
C5087  C     0.26782   0.47649   0.73218   0.00000  Uiso   1.00
H5088  H     0.21290   0.51531   0.78710   0.00000  Uiso   1.00
H5089  H     0.19088   0.55633   0.80912   0.00000  Uiso   1.00
H5090  H     0.21290   0.48805   0.78710   0.00000  Uiso   1.00
H5091  H     0.28627   0.41768   0.71373   0.00000  Uiso   1.00
C5092  C     0.22914   0.99048   0.27086   0.00000  Uiso   1.00
C5093  C     0.21938   0.00877   0.28062   0.00000  Uiso   1.00
C5094  C     0.22448   0.03779   0.27552   0.00000  Uiso   1.00
C5095  C     0.21009   0.05864   0.28991   0.00000  Uiso   1.00
N5096  N     0.20294   0.06951   0.29706   0.00000  Uiso   1.00
C5097  C     0.19359   0.06693   0.30641   0.00000  Uiso   1.00
C5098  C     0.18658   0.07846   0.31342   0.00000  Uiso   1.00
C5099  C     0.17345   0.10092   0.32655   0.00000  Uiso   1.00
C5100  C     0.16679   0.11294   0.33321   0.00000  Uiso   1.00
C5101  C     0.15414   0.13595   0.34586   0.00000  Uiso   1.00
C5102  C     0.23218   0.02687   0.26782   0.00000  Uiso   1.00
C5103  C     0.22914   0.01288   0.27086   0.00000  Uiso   1.00
C5104  C     0.21938   0.99459   0.28062   0.00000  Uiso   1.00
N5105  N     0.23518   0.00168   0.26482   0.00000  Uiso   1.00
C5106  C     0.27552   0.96556   0.22448   0.00000  Uiso   1.00
C5107  C     0.28967   0.94437   0.21033   0.00000  Uiso   1.00
N5108  N     0.29671   0.93336   0.20329   0.00000  Uiso   1.00
C5109  C     0.29400   0.92045   0.20600   0.00000  Uiso   1.00
C5110  C     0.30137   0.90938   0.19863   0.00000  Uiso   1.00
C5111  C     0.31491   0.88740   0.18509   0.00000  Uiso   1.00
C5112  C     0.32169   0.87551   0.17831   0.00000  Uiso   1.00
C5113  C     0.33454   0.85272   0.16546   0.00000  Uiso   1.00
C5114  C     0.26782   0.97649   0.23218   0.00000  Uiso   1.00
H5115  H     0.21290   0.01531   0.28710   0.00000  Uiso   1.00
H5116  H     0.19088   0.05633   0.30912   0.00000  Uiso   1.00
H5117  H     0.21290   0.98805   0.28710   0.00000  Uiso   1.00
H5118  H     0.28627   0.91768   0.21373   0.00000  Uiso   1.00
C5119  C     0.77086   0.99048   0.72914   0.00000  Uiso   1.00
C5120  C     0.78062   0.00877   0.71938   0.00000  Uiso   1.00
C5121  C     0.77552   0.03779   0.72448   0.00000  Uiso   1.00
C5122  C     0.78991   0.05864   0.71009   0.00000  Uiso   1.00
N5123  N     0.79706   0.06951   0.70294   0.00000  Uiso   1.00
C5124  C     0.80641   0.06693   0.69359   0.00000  Uiso   1.00
C5125  C     0.81342   0.07846   0.68658   0.00000  Uiso   1.00
C5126  C     0.82655   0.10092   0.67345   0.00000  Uiso   1.00
C5127  C     0.83321   0.11294   0.66679   0.00000  Uiso   1.00
C5128  C     0.84586   0.13595   0.65414   0.00000  Uiso   1.00
C5129  C     0.76782   0.02687   0.73218   0.00000  Uiso   1.00
C5130  C     0.77086   0.01288   0.72914   0.00000  Uiso   1.00
C5131  C     0.78062   0.99459   0.71938   0.00000  Uiso   1.00
N5132  N     0.76482   0.00168   0.73518   0.00000  Uiso   1.00
C5133  C     0.72448   0.96556   0.77552   0.00000  Uiso   1.00
C5134  C     0.71033   0.94437   0.78967   0.00000  Uiso   1.00
N5135  N     0.70329   0.93336   0.79671   0.00000  Uiso   1.00
C5136  C     0.70600   0.92045   0.79400   0.00000  Uiso   1.00
C5137  C     0.69863   0.90938   0.80137   0.00000  Uiso   1.00
C5138  C     0.68509   0.88740   0.81491   0.00000  Uiso   1.00
C5139  C     0.67831   0.87551   0.82169   0.00000  Uiso   1.00
C5140  C     0.66546   0.85272   0.83454   0.00000  Uiso   1.00
C5141  C     0.73218   0.97649   0.76782   0.00000  Uiso   1.00
H5142  H     0.78710   0.01531   0.71290   0.00000  Uiso   1.00
H5143  H     0.80912   0.05633   0.69088   0.00000  Uiso   1.00
H5144  H     0.78710   0.98805   0.71290   0.00000  Uiso   1.00
H5145  H     0.71373   0.91768   0.78627   0.00000  Uiso   1.00
C5146  C     0.27086   0.99048   0.22914   0.00000  Uiso   1.00
C5147  C     0.28062   0.00877   0.21938   0.00000  Uiso   1.00
C5148  C     0.27552   0.03779   0.22448   0.00000  Uiso   1.00
C5149  C     0.28991   0.05864   0.21009   0.00000  Uiso   1.00
N5150  N     0.29706   0.06951   0.20294   0.00000  Uiso   1.00
C5151  C     0.30641   0.06693   0.19359   0.00000  Uiso   1.00
C5152  C     0.31342   0.07846   0.18658   0.00000  Uiso   1.00
C5153  C     0.32655   0.10092   0.17345   0.00000  Uiso   1.00
C5154  C     0.33321   0.11294   0.16679   0.00000  Uiso   1.00
C5155  C     0.34586   0.13595   0.15414   0.00000  Uiso   1.00
C5156  C     0.26782   0.02687   0.23218   0.00000  Uiso   1.00
C5157  C     0.27086   0.01288   0.22914   0.00000  Uiso   1.00
C5158  C     0.28062   0.99459   0.21938   0.00000  Uiso   1.00
N5159  N     0.26482   0.00168   0.23518   0.00000  Uiso   1.00
C5160  C     0.22448   0.96556   0.27552   0.00000  Uiso   1.00
C5161  C     0.21033   0.94437   0.28967   0.00000  Uiso   1.00
N5162  N     0.20329   0.93336   0.29671   0.00000  Uiso   1.00
C5163  C     0.20600   0.92045   0.29400   0.00000  Uiso   1.00
C5164  C     0.19863   0.90938   0.30137   0.00000  Uiso   1.00
C5165  C     0.18509   0.88740   0.31491   0.00000  Uiso   1.00
C5166  C     0.17831   0.87551   0.32169   0.00000  Uiso   1.00
C5167  C     0.16546   0.85272   0.33454   0.00000  Uiso   1.00
C5168  C     0.23218   0.97649   0.26782   0.00000  Uiso   1.00
H5169  H     0.28710   0.01531   0.21290   0.00000  Uiso   1.00
H5170  H     0.30912   0.05633   0.19088   0.00000  Uiso   1.00
H5171  H     0.28710   0.98805   0.21290   0.00000  Uiso   1.00
H5172  H     0.21373   0.91768   0.28627   0.00000  Uiso   1.00
C5173  C     0.22914   0.72914   0.00952   0.00000  Uiso   1.00
C5174  C     0.21938   0.71938   0.99123   0.00000  Uiso   1.00
C5175  C     0.22448   0.72448   0.96221   0.00000  Uiso   1.00
C5176  C     0.21009   0.71009   0.94136   0.00000  Uiso   1.00
N5177  N     0.20294   0.70294   0.93049   0.00000  Uiso   1.00
C5178  C     0.19359   0.69359   0.93307   0.00000  Uiso   1.00
C5179  C     0.18658   0.68658   0.92154   0.00000  Uiso   1.00
C5180  C     0.17345   0.67345   0.89908   0.00000  Uiso   1.00
C5181  C     0.16679   0.66679   0.88706   0.00000  Uiso   1.00
C5182  C     0.15414   0.65414   0.86405   0.00000  Uiso   1.00
C5183  C     0.23218   0.73218   0.97313   0.00000  Uiso   1.00
C5184  C     0.22914   0.72914   0.98712   0.00000  Uiso   1.00
C5185  C     0.21938   0.71938   0.00541   0.00000  Uiso   1.00
N5186  N     0.23518   0.73518   0.99832   0.00000  Uiso   1.00
C5187  C     0.27552   0.77552   0.03444   0.00000  Uiso   1.00
C5188  C     0.28967   0.78967   0.05563   0.00000  Uiso   1.00
N5189  N     0.29671   0.79671   0.06664   0.00000  Uiso   1.00
C5190  C     0.29400   0.79400   0.07955   0.00000  Uiso   1.00
C5191  C     0.30137   0.80137   0.09062   0.00000  Uiso   1.00
C5192  C     0.31491   0.81491   0.11260   0.00000  Uiso   1.00
C5193  C     0.32169   0.82169   0.12449   0.00000  Uiso   1.00
C5194  C     0.33454   0.83454   0.14728   0.00000  Uiso   1.00
C5195  C     0.26782   0.76782   0.02351   0.00000  Uiso   1.00
H5196  H     0.21290   0.71290   0.98469   0.00000  Uiso   1.00
H5197  H     0.19088   0.69088   0.94367   0.00000  Uiso   1.00
H5198  H     0.21290   0.71290   0.01195   0.00000  Uiso   1.00
H5199  H     0.28627   0.78627   0.08232   0.00000  Uiso   1.00
C5200  C     0.22914   0.22914   0.50952   0.00000  Uiso   1.00
C5201  C     0.21938   0.21938   0.49123   0.00000  Uiso   1.00
C5202  C     0.22448   0.22448   0.46221   0.00000  Uiso   1.00
C5203  C     0.21009   0.21009   0.44136   0.00000  Uiso   1.00
N5204  N     0.20294   0.20294   0.43049   0.00000  Uiso   1.00
C5205  C     0.19359   0.19359   0.43307   0.00000  Uiso   1.00
C5206  C     0.18658   0.18658   0.42154   0.00000  Uiso   1.00
C5207  C     0.17345   0.17345   0.39908   0.00000  Uiso   1.00
C5208  C     0.16679   0.16679   0.38706   0.00000  Uiso   1.00
C5209  C     0.15414   0.15414   0.36405   0.00000  Uiso   1.00
C5210  C     0.23218   0.23218   0.47313   0.00000  Uiso   1.00
C5211  C     0.22914   0.22914   0.48712   0.00000  Uiso   1.00
C5212  C     0.21938   0.21938   0.50541   0.00000  Uiso   1.00
N5213  N     0.23518   0.23518   0.49832   0.00000  Uiso   1.00
C5214  C     0.27552   0.27552   0.53444   0.00000  Uiso   1.00
C5215  C     0.28967   0.28967   0.55563   0.00000  Uiso   1.00
N5216  N     0.29671   0.29671   0.56664   0.00000  Uiso   1.00
C5217  C     0.29400   0.29400   0.57955   0.00000  Uiso   1.00
C5218  C     0.30137   0.30137   0.59062   0.00000  Uiso   1.00
C5219  C     0.31491   0.31491   0.61260   0.00000  Uiso   1.00
C5220  C     0.32169   0.32169   0.62449   0.00000  Uiso   1.00
C5221  C     0.33454   0.33454   0.64728   0.00000  Uiso   1.00
C5222  C     0.26782   0.26782   0.52351   0.00000  Uiso   1.00
H5223  H     0.21290   0.21290   0.48469   0.00000  Uiso   1.00
H5224  H     0.19088   0.19088   0.44367   0.00000  Uiso   1.00
H5225  H     0.21290   0.21290   0.51195   0.00000  Uiso   1.00
H5226  H     0.28627   0.28627   0.58232   0.00000  Uiso   1.00
C5227  C     0.77086   0.22914   0.49048   0.00000  Uiso   1.00
C5228  C     0.78062   0.21938   0.50877   0.00000  Uiso   1.00
C5229  C     0.77552   0.22448   0.53779   0.00000  Uiso   1.00
C5230  C     0.78991   0.21009   0.55864   0.00000  Uiso   1.00
N5231  N     0.79706   0.20294   0.56951   0.00000  Uiso   1.00
C5232  C     0.80641   0.19359   0.56693   0.00000  Uiso   1.00
C5233  C     0.81342   0.18658   0.57846   0.00000  Uiso   1.00
C5234  C     0.82655   0.17345   0.60092   0.00000  Uiso   1.00
C5235  C     0.83321   0.16679   0.61294   0.00000  Uiso   1.00
C5236  C     0.84586   0.15414   0.63595   0.00000  Uiso   1.00
C5237  C     0.76782   0.23218   0.52687   0.00000  Uiso   1.00
C5238  C     0.77086   0.22914   0.51288   0.00000  Uiso   1.00
C5239  C     0.78062   0.21938   0.49459   0.00000  Uiso   1.00
N5240  N     0.76482   0.23518   0.50168   0.00000  Uiso   1.00
C5241  C     0.72448   0.27552   0.46556   0.00000  Uiso   1.00
C5242  C     0.71033   0.28967   0.44437   0.00000  Uiso   1.00
N5243  N     0.70329   0.29671   0.43336   0.00000  Uiso   1.00
C5244  C     0.70600   0.29400   0.42045   0.00000  Uiso   1.00
C5245  C     0.69863   0.30137   0.40938   0.00000  Uiso   1.00
C5246  C     0.68509   0.31491   0.38740   0.00000  Uiso   1.00
C5247  C     0.67831   0.32169   0.37551   0.00000  Uiso   1.00
C5248  C     0.66546   0.33454   0.35272   0.00000  Uiso   1.00
C5249  C     0.73218   0.26782   0.47649   0.00000  Uiso   1.00
H5250  H     0.78710   0.21290   0.51531   0.00000  Uiso   1.00
H5251  H     0.80912   0.19088   0.55633   0.00000  Uiso   1.00
H5252  H     0.78710   0.21290   0.48805   0.00000  Uiso   1.00
H5253  H     0.71373   0.28627   0.41768   0.00000  Uiso   1.00
C5254  C     0.27086   0.22914   0.99048   0.00000  Uiso   1.00
C5255  C     0.28062   0.21938   0.00877   0.00000  Uiso   1.00
C5256  C     0.27552   0.22448   0.03779   0.00000  Uiso   1.00
C5257  C     0.28991   0.21009   0.05864   0.00000  Uiso   1.00
N5258  N     0.29706   0.20294   0.06951   0.00000  Uiso   1.00
C5259  C     0.30641   0.19359   0.06693   0.00000  Uiso   1.00
C5260  C     0.31342   0.18658   0.07846   0.00000  Uiso   1.00
C5261  C     0.32655   0.17345   0.10092   0.00000  Uiso   1.00
C5262  C     0.33321   0.16679   0.11294   0.00000  Uiso   1.00
C5263  C     0.34586   0.15414   0.13595   0.00000  Uiso   1.00
C5264  C     0.26782   0.23218   0.02687   0.00000  Uiso   1.00
C5265  C     0.27086   0.22914   0.01288   0.00000  Uiso   1.00
C5266  C     0.28062   0.21938   0.99459   0.00000  Uiso   1.00
N5267  N     0.26482   0.23518   0.00168   0.00000  Uiso   1.00
C5268  C     0.22448   0.27552   0.96556   0.00000  Uiso   1.00
C5269  C     0.21033   0.28967   0.94437   0.00000  Uiso   1.00
N5270  N     0.20329   0.29671   0.93336   0.00000  Uiso   1.00
C5271  C     0.20600   0.29400   0.92045   0.00000  Uiso   1.00
C5272  C     0.19863   0.30137   0.90938   0.00000  Uiso   1.00
C5273  C     0.18509   0.31491   0.88740   0.00000  Uiso   1.00
C5274  C     0.17831   0.32169   0.87551   0.00000  Uiso   1.00
C5275  C     0.16546   0.33454   0.85272   0.00000  Uiso   1.00
C5276  C     0.23218   0.26782   0.97649   0.00000  Uiso   1.00
H5277  H     0.28710   0.21290   0.01531   0.00000  Uiso   1.00
H5278  H     0.30912   0.19088   0.05633   0.00000  Uiso   1.00
H5279  H     0.28710   0.21290   0.98805   0.00000  Uiso   1.00
H5280  H     0.21373   0.28627   0.91768   0.00000  Uiso   1.00
C5281  C     0.72914   0.77086   0.99048   0.00000  Uiso   1.00
C5282  C     0.71938   0.78062   0.00877   0.00000  Uiso   1.00
C5283  C     0.72448   0.77552   0.03779   0.00000  Uiso   1.00
C5284  C     0.71009   0.78991   0.05864   0.00000  Uiso   1.00
N5285  N     0.70294   0.79706   0.06951   0.00000  Uiso   1.00
C5286  C     0.69359   0.80641   0.06693   0.00000  Uiso   1.00
C5287  C     0.68658   0.81342   0.07846   0.00000  Uiso   1.00
C5288  C     0.67345   0.82655   0.10092   0.00000  Uiso   1.00
C5289  C     0.66679   0.83321   0.11294   0.00000  Uiso   1.00
C5290  C     0.65414   0.84586   0.13595   0.00000  Uiso   1.00
C5291  C     0.73218   0.76782   0.02687   0.00000  Uiso   1.00
C5292  C     0.72914   0.77086   0.01288   0.00000  Uiso   1.00
C5293  C     0.71938   0.78062   0.99459   0.00000  Uiso   1.00
N5294  N     0.73518   0.76482   0.00168   0.00000  Uiso   1.00
C5295  C     0.77552   0.72448   0.96556   0.00000  Uiso   1.00
C5296  C     0.78967   0.71033   0.94437   0.00000  Uiso   1.00
N5297  N     0.79671   0.70329   0.93336   0.00000  Uiso   1.00
C5298  C     0.79400   0.70600   0.92045   0.00000  Uiso   1.00
C5299  C     0.80137   0.69863   0.90938   0.00000  Uiso   1.00
C5300  C     0.81491   0.68509   0.88740   0.00000  Uiso   1.00
C5301  C     0.82169   0.67831   0.87551   0.00000  Uiso   1.00
C5302  C     0.83454   0.66546   0.85272   0.00000  Uiso   1.00
C5303  C     0.76782   0.73218   0.97649   0.00000  Uiso   1.00
H5304  H     0.71290   0.78710   0.01531   0.00000  Uiso   1.00
H5305  H     0.69088   0.80912   0.05633   0.00000  Uiso   1.00
H5306  H     0.71290   0.78710   0.98805   0.00000  Uiso   1.00
H5307  H     0.78627   0.71373   0.91768   0.00000  Uiso   1.00
C5308  C     0.72914   0.27086   0.49048   0.00000  Uiso   1.00
C5309  C     0.71938   0.28062   0.50877   0.00000  Uiso   1.00
C5310  C     0.72448   0.27552   0.53779   0.00000  Uiso   1.00
C5311  C     0.71009   0.28991   0.55864   0.00000  Uiso   1.00
N5312  N     0.70294   0.29706   0.56951   0.00000  Uiso   1.00
C5313  C     0.69359   0.30641   0.56693   0.00000  Uiso   1.00
C5314  C     0.68658   0.31342   0.57846   0.00000  Uiso   1.00
C5315  C     0.67345   0.32655   0.60092   0.00000  Uiso   1.00
C5316  C     0.66679   0.33321   0.61294   0.00000  Uiso   1.00
C5317  C     0.65414   0.34586   0.63595   0.00000  Uiso   1.00
C5318  C     0.73218   0.26782   0.52687   0.00000  Uiso   1.00
C5319  C     0.72914   0.27086   0.51288   0.00000  Uiso   1.00
C5320  C     0.71938   0.28062   0.49459   0.00000  Uiso   1.00
N5321  N     0.73518   0.26482   0.50168   0.00000  Uiso   1.00
C5322  C     0.77552   0.22448   0.46556   0.00000  Uiso   1.00
C5323  C     0.78967   0.21033   0.44437   0.00000  Uiso   1.00
N5324  N     0.79671   0.20329   0.43336   0.00000  Uiso   1.00
C5325  C     0.79400   0.20600   0.42045   0.00000  Uiso   1.00
C5326  C     0.80137   0.19863   0.40938   0.00000  Uiso   1.00
C5327  C     0.81491   0.18509   0.38740   0.00000  Uiso   1.00
C5328  C     0.82169   0.17831   0.37551   0.00000  Uiso   1.00
C5329  C     0.83454   0.16546   0.35272   0.00000  Uiso   1.00
C5330  C     0.76782   0.23218   0.47649   0.00000  Uiso   1.00
H5331  H     0.71290   0.28710   0.51531   0.00000  Uiso   1.00
H5332  H     0.69088   0.30912   0.55633   0.00000  Uiso   1.00
H5333  H     0.71290   0.28710   0.48805   0.00000  Uiso   1.00
H5334  H     0.78627   0.21373   0.41768   0.00000  Uiso   1.00
C5335  C     0.47914   0.75952   0.02086   0.00000  Uiso   1.00
C5336  C     0.46938   0.74123   0.03062   0.00000  Uiso   1.00
C5337  C     0.47448   0.71221   0.02552   0.00000  Uiso   1.00
C5338  C     0.46009   0.69136   0.03991   0.00000  Uiso   1.00
N5339  N     0.45294   0.68049   0.04706   0.00000  Uiso   1.00
C5340  C     0.44359   0.68307   0.05641   0.00000  Uiso   1.00
C5341  C     0.43658   0.67154   0.06342   0.00000  Uiso   1.00
C5342  C     0.42345   0.64908   0.07655   0.00000  Uiso   1.00
C5343  C     0.41679   0.63706   0.08321   0.00000  Uiso   1.00
C5344  C     0.40414   0.61405   0.09586   0.00000  Uiso   1.00
C5345  C     0.48218   0.72313   0.01782   0.00000  Uiso   1.00
C5346  C     0.47914   0.73712   0.02086   0.00000  Uiso   1.00
C5347  C     0.46938   0.75541   0.03062   0.00000  Uiso   1.00
N5348  N     0.48518   0.74832   0.01482   0.00000  Uiso   1.00
C5349  C     0.52552   0.78444   0.97448   0.00000  Uiso   1.00
C5350  C     0.53967   0.80563   0.96033   0.00000  Uiso   1.00
N5351  N     0.54671   0.81664   0.95329   0.00000  Uiso   1.00
C5352  C     0.54400   0.82955   0.95600   0.00000  Uiso   1.00
C5353  C     0.55137   0.84062   0.94863   0.00000  Uiso   1.00
C5354  C     0.56491   0.86260   0.93509   0.00000  Uiso   1.00
C5355  C     0.57169   0.87449   0.92831   0.00000  Uiso   1.00
C5356  C     0.58454   0.89728   0.91546   0.00000  Uiso   1.00
C5357  C     0.51782   0.77351   0.98218   0.00000  Uiso   1.00
H5358  H     0.46290   0.73469   0.03710   0.00000  Uiso   1.00
H5359  H     0.44088   0.69367   0.05912   0.00000  Uiso   1.00
H5360  H     0.46290   0.76195   0.03710   0.00000  Uiso   1.00
H5361  H     0.53627   0.83232   0.96373   0.00000  Uiso   1.00
C5362  C     0.97914   0.75952   0.52086   0.00000  Uiso   1.00
C5363  C     0.96938   0.74123   0.53062   0.00000  Uiso   1.00
C5364  C     0.97448   0.71221   0.52552   0.00000  Uiso   1.00
C5365  C     0.96009   0.69136   0.53991   0.00000  Uiso   1.00
N5366  N     0.95294   0.68049   0.54706   0.00000  Uiso   1.00
C5367  C     0.94359   0.68307   0.55641   0.00000  Uiso   1.00
C5368  C     0.93658   0.67154   0.56342   0.00000  Uiso   1.00
C5369  C     0.92345   0.64908   0.57655   0.00000  Uiso   1.00
C5370  C     0.91679   0.63706   0.58321   0.00000  Uiso   1.00
C5371  C     0.90414   0.61405   0.59586   0.00000  Uiso   1.00
C5372  C     0.98218   0.72313   0.51782   0.00000  Uiso   1.00
C5373  C     0.97914   0.73712   0.52086   0.00000  Uiso   1.00
C5374  C     0.96938   0.75541   0.53062   0.00000  Uiso   1.00
N5375  N     0.98518   0.74832   0.51482   0.00000  Uiso   1.00
C5376  C     0.02552   0.78444   0.47448   0.00000  Uiso   1.00
C5377  C     0.03967   0.80563   0.46033   0.00000  Uiso   1.00
N5378  N     0.04671   0.81664   0.45329   0.00000  Uiso   1.00
C5379  C     0.04400   0.82955   0.45600   0.00000  Uiso   1.00
C5380  C     0.05137   0.84062   0.44863   0.00000  Uiso   1.00
C5381  C     0.06491   0.86260   0.43509   0.00000  Uiso   1.00
C5382  C     0.07169   0.87449   0.42831   0.00000  Uiso   1.00
C5383  C     0.08454   0.89728   0.41546   0.00000  Uiso   1.00
C5384  C     0.01782   0.77351   0.48218   0.00000  Uiso   1.00
H5385  H     0.96290   0.73469   0.53710   0.00000  Uiso   1.00
H5386  H     0.94088   0.69367   0.55912   0.00000  Uiso   1.00
H5387  H     0.96290   0.76195   0.53710   0.00000  Uiso   1.00
H5388  H     0.03627   0.83232   0.46373   0.00000  Uiso   1.00
C5389  C     0.02086   0.24048   0.52086   0.00000  Uiso   1.00
C5390  C     0.03062   0.25877   0.53062   0.00000  Uiso   1.00
C5391  C     0.02552   0.28779   0.52552   0.00000  Uiso   1.00
C5392  C     0.03991   0.30864   0.53991   0.00000  Uiso   1.00
N5393  N     0.04706   0.31951   0.54706   0.00000  Uiso   1.00
C5394  C     0.05641   0.31693   0.55641   0.00000  Uiso   1.00
C5395  C     0.06342   0.32846   0.56342   0.00000  Uiso   1.00
C5396  C     0.07655   0.35092   0.57655   0.00000  Uiso   1.00
C5397  C     0.08321   0.36294   0.58321   0.00000  Uiso   1.00
C5398  C     0.09586   0.38595   0.59586   0.00000  Uiso   1.00
C5399  C     0.01782   0.27687   0.51782   0.00000  Uiso   1.00
C5400  C     0.02086   0.26288   0.52086   0.00000  Uiso   1.00
C5401  C     0.03062   0.24459   0.53062   0.00000  Uiso   1.00
N5402  N     0.01482   0.25168   0.51482   0.00000  Uiso   1.00
C5403  C     0.97448   0.21556   0.47448   0.00000  Uiso   1.00
C5404  C     0.96033   0.19437   0.46033   0.00000  Uiso   1.00
N5405  N     0.95329   0.18336   0.45329   0.00000  Uiso   1.00
C5406  C     0.95600   0.17045   0.45600   0.00000  Uiso   1.00
C5407  C     0.94863   0.15938   0.44863   0.00000  Uiso   1.00
C5408  C     0.93509   0.13740   0.43509   0.00000  Uiso   1.00
C5409  C     0.92831   0.12551   0.42831   0.00000  Uiso   1.00
C5410  C     0.91546   0.10272   0.41546   0.00000  Uiso   1.00
C5411  C     0.98218   0.22649   0.48218   0.00000  Uiso   1.00
H5412  H     0.03710   0.26531   0.53710   0.00000  Uiso   1.00
H5413  H     0.05912   0.30633   0.55912   0.00000  Uiso   1.00
H5414  H     0.03710   0.23805   0.53710   0.00000  Uiso   1.00
H5415  H     0.96373   0.16768   0.46373   0.00000  Uiso   1.00
C5416  C     0.52086   0.75952   0.97914   0.00000  Uiso   1.00
C5417  C     0.53062   0.74123   0.96938   0.00000  Uiso   1.00
C5418  C     0.52552   0.71221   0.97448   0.00000  Uiso   1.00
C5419  C     0.53991   0.69136   0.96009   0.00000  Uiso   1.00
N5420  N     0.54706   0.68049   0.95294   0.00000  Uiso   1.00
C5421  C     0.55641   0.68307   0.94359   0.00000  Uiso   1.00
C5422  C     0.56342   0.67154   0.93658   0.00000  Uiso   1.00
C5423  C     0.57655   0.64908   0.92345   0.00000  Uiso   1.00
C5424  C     0.58321   0.63706   0.91679   0.00000  Uiso   1.00
C5425  C     0.59586   0.61405   0.90414   0.00000  Uiso   1.00
C5426  C     0.51782   0.72313   0.98218   0.00000  Uiso   1.00
C5427  C     0.52086   0.73712   0.97914   0.00000  Uiso   1.00
C5428  C     0.53062   0.75541   0.96938   0.00000  Uiso   1.00
N5429  N     0.51482   0.74832   0.98518   0.00000  Uiso   1.00
C5430  C     0.47448   0.78444   0.02552   0.00000  Uiso   1.00
C5431  C     0.46033   0.80563   0.03967   0.00000  Uiso   1.00
N5432  N     0.45329   0.81664   0.04671   0.00000  Uiso   1.00
C5433  C     0.45600   0.82955   0.04400   0.00000  Uiso   1.00
C5434  C     0.44863   0.84062   0.05137   0.00000  Uiso   1.00
C5435  C     0.43509   0.86260   0.06491   0.00000  Uiso   1.00
C5436  C     0.42831   0.87449   0.07169   0.00000  Uiso   1.00
C5437  C     0.41546   0.89728   0.08454   0.00000  Uiso   1.00
C5438  C     0.48218   0.77351   0.01782   0.00000  Uiso   1.00
H5439  H     0.53710   0.73469   0.96290   0.00000  Uiso   1.00
H5440  H     0.55912   0.69367   0.94088   0.00000  Uiso   1.00
H5441  H     0.53710   0.76195   0.96290   0.00000  Uiso   1.00
H5442  H     0.46373   0.83232   0.03627   0.00000  Uiso   1.00
C5443  C     0.25952   0.97914   0.02086   0.00000  Uiso   1.00
C5444  C     0.24123   0.96938   0.03062   0.00000  Uiso   1.00
C5445  C     0.21221   0.97448   0.02552   0.00000  Uiso   1.00
C5446  C     0.19136   0.96009   0.03991   0.00000  Uiso   1.00
N5447  N     0.18049   0.95294   0.04706   0.00000  Uiso   1.00
C5448  C     0.18307   0.94359   0.05641   0.00000  Uiso   1.00
C5449  C     0.17154   0.93658   0.06342   0.00000  Uiso   1.00
C5450  C     0.14908   0.92345   0.07655   0.00000  Uiso   1.00
C5451  C     0.13706   0.91679   0.08321   0.00000  Uiso   1.00
C5452  C     0.11405   0.90414   0.09586   0.00000  Uiso   1.00
C5453  C     0.22313   0.98218   0.01782   0.00000  Uiso   1.00
C5454  C     0.23712   0.97914   0.02086   0.00000  Uiso   1.00
C5455  C     0.25541   0.96938   0.03062   0.00000  Uiso   1.00
N5456  N     0.24832   0.98518   0.01482   0.00000  Uiso   1.00
C5457  C     0.28444   0.02552   0.97448   0.00000  Uiso   1.00
C5458  C     0.30563   0.03967   0.96033   0.00000  Uiso   1.00
N5459  N     0.31664   0.04671   0.95329   0.00000  Uiso   1.00
C5460  C     0.32955   0.04400   0.95600   0.00000  Uiso   1.00
C5461  C     0.34062   0.05137   0.94863   0.00000  Uiso   1.00
C5462  C     0.36260   0.06491   0.93509   0.00000  Uiso   1.00
C5463  C     0.37449   0.07169   0.92831   0.00000  Uiso   1.00
C5464  C     0.39728   0.08454   0.91546   0.00000  Uiso   1.00
C5465  C     0.27351   0.01782   0.98218   0.00000  Uiso   1.00
H5466  H     0.23469   0.96290   0.03710   0.00000  Uiso   1.00
H5467  H     0.19367   0.94088   0.05912   0.00000  Uiso   1.00
H5468  H     0.26195   0.96290   0.03710   0.00000  Uiso   1.00
H5469  H     0.33232   0.03627   0.96373   0.00000  Uiso   1.00
C5470  C     0.24048   0.52086   0.02086   0.00000  Uiso   1.00
C5471  C     0.25877   0.53062   0.03062   0.00000  Uiso   1.00
C5472  C     0.28779   0.52552   0.02552   0.00000  Uiso   1.00
C5473  C     0.30864   0.53991   0.03991   0.00000  Uiso   1.00
N5474  N     0.31951   0.54706   0.04706   0.00000  Uiso   1.00
C5475  C     0.31693   0.55641   0.05641   0.00000  Uiso   1.00
C5476  C     0.32846   0.56342   0.06342   0.00000  Uiso   1.00
C5477  C     0.35092   0.57655   0.07655   0.00000  Uiso   1.00
C5478  C     0.36294   0.58321   0.08321   0.00000  Uiso   1.00
C5479  C     0.38595   0.59586   0.09586   0.00000  Uiso   1.00
C5480  C     0.27687   0.51782   0.01782   0.00000  Uiso   1.00
C5481  C     0.26288   0.52086   0.02086   0.00000  Uiso   1.00
C5482  C     0.24459   0.53062   0.03062   0.00000  Uiso   1.00
N5483  N     0.25168   0.51482   0.01482   0.00000  Uiso   1.00
C5484  C     0.21556   0.47448   0.97448   0.00000  Uiso   1.00
C5485  C     0.19437   0.46033   0.96033   0.00000  Uiso   1.00
N5486  N     0.18336   0.45329   0.95329   0.00000  Uiso   1.00
C5487  C     0.17045   0.45600   0.95600   0.00000  Uiso   1.00
C5488  C     0.15938   0.44863   0.94863   0.00000  Uiso   1.00
C5489  C     0.13740   0.43509   0.93509   0.00000  Uiso   1.00
C5490  C     0.12551   0.42831   0.92831   0.00000  Uiso   1.00
C5491  C     0.10272   0.41546   0.91546   0.00000  Uiso   1.00
C5492  C     0.22649   0.48218   0.98218   0.00000  Uiso   1.00
H5493  H     0.26531   0.53710   0.03710   0.00000  Uiso   1.00
H5494  H     0.30633   0.55912   0.05912   0.00000  Uiso   1.00
H5495  H     0.23805   0.53710   0.03710   0.00000  Uiso   1.00
H5496  H     0.16768   0.46373   0.96373   0.00000  Uiso   1.00
C5497  C     0.74048   0.52086   0.52086   0.00000  Uiso   1.00
C5498  C     0.75877   0.53062   0.53062   0.00000  Uiso   1.00
C5499  C     0.78779   0.52552   0.52552   0.00000  Uiso   1.00
C5500  C     0.80864   0.53991   0.53991   0.00000  Uiso   1.00
N5501  N     0.81951   0.54706   0.54706   0.00000  Uiso   1.00
C5502  C     0.81693   0.55641   0.55641   0.00000  Uiso   1.00
C5503  C     0.82846   0.56342   0.56342   0.00000  Uiso   1.00
C5504  C     0.85092   0.57655   0.57655   0.00000  Uiso   1.00
C5505  C     0.86294   0.58321   0.58321   0.00000  Uiso   1.00
C5506  C     0.88595   0.59586   0.59586   0.00000  Uiso   1.00
C5507  C     0.77687   0.51782   0.51782   0.00000  Uiso   1.00
C5508  C     0.76288   0.52086   0.52086   0.00000  Uiso   1.00
C5509  C     0.74459   0.53062   0.53062   0.00000  Uiso   1.00
N5510  N     0.75168   0.51482   0.51482   0.00000  Uiso   1.00
C5511  C     0.71556   0.47448   0.47448   0.00000  Uiso   1.00
C5512  C     0.69437   0.46033   0.46033   0.00000  Uiso   1.00
N5513  N     0.68336   0.45329   0.45329   0.00000  Uiso   1.00
C5514  C     0.67045   0.45600   0.45600   0.00000  Uiso   1.00
C5515  C     0.65938   0.44863   0.44863   0.00000  Uiso   1.00
C5516  C     0.63740   0.43509   0.43509   0.00000  Uiso   1.00
C5517  C     0.62551   0.42831   0.42831   0.00000  Uiso   1.00
C5518  C     0.60272   0.41546   0.41546   0.00000  Uiso   1.00
C5519  C     0.72649   0.48218   0.48218   0.00000  Uiso   1.00
H5520  H     0.76531   0.53710   0.53710   0.00000  Uiso   1.00
H5521  H     0.80633   0.55912   0.55912   0.00000  Uiso   1.00
H5522  H     0.73805   0.53710   0.53710   0.00000  Uiso   1.00
H5523  H     0.66768   0.46373   0.46373   0.00000  Uiso   1.00
C5524  C     0.75952   0.02086   0.47914   0.00000  Uiso   1.00
C5525  C     0.74123   0.03062   0.46938   0.00000  Uiso   1.00
C5526  C     0.71221   0.02552   0.47448   0.00000  Uiso   1.00
C5527  C     0.69136   0.03991   0.46009   0.00000  Uiso   1.00
N5528  N     0.68049   0.04706   0.45294   0.00000  Uiso   1.00
C5529  C     0.68307   0.05641   0.44359   0.00000  Uiso   1.00
C5530  C     0.67154   0.06342   0.43658   0.00000  Uiso   1.00
C5531  C     0.64908   0.07655   0.42345   0.00000  Uiso   1.00
C5532  C     0.63706   0.08321   0.41679   0.00000  Uiso   1.00
C5533  C     0.61405   0.09586   0.40414   0.00000  Uiso   1.00
C5534  C     0.72313   0.01782   0.48218   0.00000  Uiso   1.00
C5535  C     0.73712   0.02086   0.47914   0.00000  Uiso   1.00
C5536  C     0.75541   0.03062   0.46938   0.00000  Uiso   1.00
N5537  N     0.74832   0.01482   0.48518   0.00000  Uiso   1.00
C5538  C     0.78444   0.97448   0.52552   0.00000  Uiso   1.00
C5539  C     0.80563   0.96033   0.53967   0.00000  Uiso   1.00
N5540  N     0.81664   0.95329   0.54671   0.00000  Uiso   1.00
C5541  C     0.82955   0.95600   0.54400   0.00000  Uiso   1.00
C5542  C     0.84062   0.94863   0.55137   0.00000  Uiso   1.00
C5543  C     0.86260   0.93509   0.56491   0.00000  Uiso   1.00
C5544  C     0.87449   0.92831   0.57169   0.00000  Uiso   1.00
C5545  C     0.89728   0.91546   0.58454   0.00000  Uiso   1.00
C5546  C     0.77351   0.98218   0.51782   0.00000  Uiso   1.00
H5547  H     0.73469   0.03710   0.46290   0.00000  Uiso   1.00
H5548  H     0.69367   0.05912   0.44088   0.00000  Uiso   1.00
H5549  H     0.76195   0.03710   0.46290   0.00000  Uiso   1.00
H5550  H     0.83232   0.96373   0.53627   0.00000  Uiso   1.00
C5551  C     0.75952   0.52086   0.97914   0.00000  Uiso   1.00
C5552  C     0.74123   0.53062   0.96938   0.00000  Uiso   1.00
C5553  C     0.71221   0.52552   0.97448   0.00000  Uiso   1.00
C5554  C     0.69136   0.53991   0.96009   0.00000  Uiso   1.00
N5555  N     0.68049   0.54706   0.95294   0.00000  Uiso   1.00
C5556  C     0.68307   0.55641   0.94359   0.00000  Uiso   1.00
C5557  C     0.67154   0.56342   0.93658   0.00000  Uiso   1.00
C5558  C     0.64908   0.57655   0.92345   0.00000  Uiso   1.00
C5559  C     0.63706   0.58321   0.91679   0.00000  Uiso   1.00
C5560  C     0.61405   0.59586   0.90414   0.00000  Uiso   1.00
C5561  C     0.72313   0.51782   0.98218   0.00000  Uiso   1.00
C5562  C     0.73712   0.52086   0.97914   0.00000  Uiso   1.00
C5563  C     0.75541   0.53062   0.96938   0.00000  Uiso   1.00
N5564  N     0.74832   0.51482   0.98518   0.00000  Uiso   1.00
C5565  C     0.78444   0.47448   0.02552   0.00000  Uiso   1.00
C5566  C     0.80563   0.46033   0.03967   0.00000  Uiso   1.00
N5567  N     0.81664   0.45329   0.04671   0.00000  Uiso   1.00
C5568  C     0.82955   0.45600   0.04400   0.00000  Uiso   1.00
C5569  C     0.84062   0.44863   0.05137   0.00000  Uiso   1.00
C5570  C     0.86260   0.43509   0.06491   0.00000  Uiso   1.00
C5571  C     0.87449   0.42831   0.07169   0.00000  Uiso   1.00
C5572  C     0.89728   0.41546   0.08454   0.00000  Uiso   1.00
C5573  C     0.77351   0.48218   0.01782   0.00000  Uiso   1.00
H5574  H     0.73469   0.53710   0.96290   0.00000  Uiso   1.00
H5575  H     0.69367   0.55912   0.94088   0.00000  Uiso   1.00
H5576  H     0.76195   0.53710   0.96290   0.00000  Uiso   1.00
H5577  H     0.83232   0.46373   0.03627   0.00000  Uiso   1.00
C5578  C     0.97914   0.52086   0.75952   0.00000  Uiso   1.00
C5579  C     0.96938   0.53062   0.74123   0.00000  Uiso   1.00
C5580  C     0.97448   0.52552   0.71221   0.00000  Uiso   1.00
C5581  C     0.96009   0.53991   0.69136   0.00000  Uiso   1.00
N5582  N     0.95294   0.54706   0.68049   0.00000  Uiso   1.00
C5583  C     0.94359   0.55641   0.68307   0.00000  Uiso   1.00
C5584  C     0.93658   0.56342   0.67154   0.00000  Uiso   1.00
C5585  C     0.92345   0.57655   0.64908   0.00000  Uiso   1.00
C5586  C     0.91679   0.58321   0.63706   0.00000  Uiso   1.00
C5587  C     0.90414   0.59586   0.61405   0.00000  Uiso   1.00
C5588  C     0.98218   0.51782   0.72313   0.00000  Uiso   1.00
C5589  C     0.97914   0.52086   0.73712   0.00000  Uiso   1.00
C5590  C     0.96938   0.53062   0.75541   0.00000  Uiso   1.00
N5591  N     0.98518   0.51482   0.74832   0.00000  Uiso   1.00
C5592  C     0.02552   0.47448   0.78444   0.00000  Uiso   1.00
C5593  C     0.03967   0.46033   0.80563   0.00000  Uiso   1.00
N5594  N     0.04671   0.45329   0.81664   0.00000  Uiso   1.00
C5595  C     0.04400   0.45600   0.82955   0.00000  Uiso   1.00
C5596  C     0.05137   0.44863   0.84062   0.00000  Uiso   1.00
C5597  C     0.06491   0.43509   0.86260   0.00000  Uiso   1.00
C5598  C     0.07169   0.42831   0.87449   0.00000  Uiso   1.00
C5599  C     0.08454   0.41546   0.89728   0.00000  Uiso   1.00
C5600  C     0.01782   0.48218   0.77351   0.00000  Uiso   1.00
H5601  H     0.96290   0.53710   0.73469   0.00000  Uiso   1.00
H5602  H     0.94088   0.55912   0.69367   0.00000  Uiso   1.00
H5603  H     0.96290   0.53710   0.76195   0.00000  Uiso   1.00
H5604  H     0.03627   0.46373   0.83232   0.00000  Uiso   1.00
C5605  C     0.02086   0.47914   0.75952   0.00000  Uiso   1.00
C5606  C     0.03062   0.46938   0.74123   0.00000  Uiso   1.00
C5607  C     0.02552   0.47448   0.71221   0.00000  Uiso   1.00
C5608  C     0.03991   0.46009   0.69136   0.00000  Uiso   1.00
N5609  N     0.04706   0.45294   0.68049   0.00000  Uiso   1.00
C5610  C     0.05641   0.44359   0.68307   0.00000  Uiso   1.00
C5611  C     0.06342   0.43658   0.67154   0.00000  Uiso   1.00
C5612  C     0.07655   0.42345   0.64908   0.00000  Uiso   1.00
C5613  C     0.08321   0.41679   0.63706   0.00000  Uiso   1.00
C5614  C     0.09586   0.40414   0.61405   0.00000  Uiso   1.00
C5615  C     0.01782   0.48218   0.72313   0.00000  Uiso   1.00
C5616  C     0.02086   0.47914   0.73712   0.00000  Uiso   1.00
C5617  C     0.03062   0.46938   0.75541   0.00000  Uiso   1.00
N5618  N     0.01482   0.48518   0.74832   0.00000  Uiso   1.00
C5619  C     0.97448   0.52552   0.78444   0.00000  Uiso   1.00
C5620  C     0.96033   0.53967   0.80563   0.00000  Uiso   1.00
N5621  N     0.95329   0.54671   0.81664   0.00000  Uiso   1.00
C5622  C     0.95600   0.54400   0.82955   0.00000  Uiso   1.00
C5623  C     0.94863   0.55137   0.84062   0.00000  Uiso   1.00
C5624  C     0.93509   0.56491   0.86260   0.00000  Uiso   1.00
C5625  C     0.92831   0.57169   0.87449   0.00000  Uiso   1.00
C5626  C     0.91546   0.58454   0.89728   0.00000  Uiso   1.00
C5627  C     0.98218   0.51782   0.77351   0.00000  Uiso   1.00
H5628  H     0.03710   0.46290   0.73469   0.00000  Uiso   1.00
H5629  H     0.05912   0.44088   0.69367   0.00000  Uiso   1.00
H5630  H     0.03710   0.46290   0.76195   0.00000  Uiso   1.00
H5631  H     0.96373   0.53627   0.83232   0.00000  Uiso   1.00
C5632  C     0.02086   0.97914   0.25952   0.00000  Uiso   1.00
C5633  C     0.03062   0.96938   0.24123   0.00000  Uiso   1.00
C5634  C     0.02552   0.97448   0.21221   0.00000  Uiso   1.00
C5635  C     0.03991   0.96009   0.19136   0.00000  Uiso   1.00
N5636  N     0.04706   0.95294   0.18049   0.00000  Uiso   1.00
C5637  C     0.05641   0.94359   0.18307   0.00000  Uiso   1.00
C5638  C     0.06342   0.93658   0.17154   0.00000  Uiso   1.00
C5639  C     0.07655   0.92345   0.14908   0.00000  Uiso   1.00
C5640  C     0.08321   0.91679   0.13706   0.00000  Uiso   1.00
C5641  C     0.09586   0.90414   0.11405   0.00000  Uiso   1.00
C5642  C     0.01782   0.98218   0.22313   0.00000  Uiso   1.00
C5643  C     0.02086   0.97914   0.23712   0.00000  Uiso   1.00
C5644  C     0.03062   0.96938   0.25541   0.00000  Uiso   1.00
N5645  N     0.01482   0.98518   0.24832   0.00000  Uiso   1.00
C5646  C     0.97448   0.02552   0.28444   0.00000  Uiso   1.00
C5647  C     0.96033   0.03967   0.30563   0.00000  Uiso   1.00
N5648  N     0.95329   0.04671   0.31664   0.00000  Uiso   1.00
C5649  C     0.95600   0.04400   0.32955   0.00000  Uiso   1.00
C5650  C     0.94863   0.05137   0.34062   0.00000  Uiso   1.00
C5651  C     0.93509   0.06491   0.36260   0.00000  Uiso   1.00
C5652  C     0.92831   0.07169   0.37449   0.00000  Uiso   1.00
C5653  C     0.91546   0.08454   0.39728   0.00000  Uiso   1.00
C5654  C     0.98218   0.01782   0.27351   0.00000  Uiso   1.00
H5655  H     0.03710   0.96290   0.23469   0.00000  Uiso   1.00
H5656  H     0.05912   0.94088   0.19367   0.00000  Uiso   1.00
H5657  H     0.03710   0.96290   0.26195   0.00000  Uiso   1.00
H5658  H     0.96373   0.03627   0.33232   0.00000  Uiso   1.00
C5659  C     0.52086   0.02086   0.24048   0.00000  Uiso   1.00
C5660  C     0.53062   0.03062   0.25877   0.00000  Uiso   1.00
C5661  C     0.52552   0.02552   0.28779   0.00000  Uiso   1.00
C5662  C     0.53991   0.03991   0.30864   0.00000  Uiso   1.00
N5663  N     0.54706   0.04706   0.31951   0.00000  Uiso   1.00
C5664  C     0.55641   0.05641   0.31693   0.00000  Uiso   1.00
C5665  C     0.56342   0.06342   0.32846   0.00000  Uiso   1.00
C5666  C     0.57655   0.07655   0.35092   0.00000  Uiso   1.00
C5667  C     0.58321   0.08321   0.36294   0.00000  Uiso   1.00
C5668  C     0.59586   0.09586   0.38595   0.00000  Uiso   1.00
C5669  C     0.51782   0.01782   0.27687   0.00000  Uiso   1.00
C5670  C     0.52086   0.02086   0.26288   0.00000  Uiso   1.00
C5671  C     0.53062   0.03062   0.24459   0.00000  Uiso   1.00
N5672  N     0.51482   0.01482   0.25168   0.00000  Uiso   1.00
C5673  C     0.47448   0.97448   0.21556   0.00000  Uiso   1.00
C5674  C     0.46033   0.96033   0.19437   0.00000  Uiso   1.00
N5675  N     0.45329   0.95329   0.18336   0.00000  Uiso   1.00
C5676  C     0.45600   0.95600   0.17045   0.00000  Uiso   1.00
C5677  C     0.44863   0.94863   0.15938   0.00000  Uiso   1.00
C5678  C     0.43509   0.93509   0.13740   0.00000  Uiso   1.00
C5679  C     0.42831   0.92831   0.12551   0.00000  Uiso   1.00
C5680  C     0.41546   0.91546   0.10272   0.00000  Uiso   1.00
C5681  C     0.48218   0.98218   0.22649   0.00000  Uiso   1.00
H5682  H     0.53710   0.03710   0.26531   0.00000  Uiso   1.00
H5683  H     0.55912   0.05912   0.30633   0.00000  Uiso   1.00
H5684  H     0.53710   0.03710   0.23805   0.00000  Uiso   1.00
H5685  H     0.46373   0.96373   0.16768   0.00000  Uiso   1.00
C5686  C     0.52086   0.52086   0.74048   0.00000  Uiso   1.00
C5687  C     0.53062   0.53062   0.75877   0.00000  Uiso   1.00
C5688  C     0.52552   0.52552   0.78779   0.00000  Uiso   1.00
C5689  C     0.53991   0.53991   0.80864   0.00000  Uiso   1.00
N5690  N     0.54706   0.54706   0.81951   0.00000  Uiso   1.00
C5691  C     0.55641   0.55641   0.81693   0.00000  Uiso   1.00
C5692  C     0.56342   0.56342   0.82846   0.00000  Uiso   1.00
C5693  C     0.57655   0.57655   0.85092   0.00000  Uiso   1.00
C5694  C     0.58321   0.58321   0.86294   0.00000  Uiso   1.00
C5695  C     0.59586   0.59586   0.88595   0.00000  Uiso   1.00
C5696  C     0.51782   0.51782   0.77687   0.00000  Uiso   1.00
C5697  C     0.52086   0.52086   0.76288   0.00000  Uiso   1.00
C5698  C     0.53062   0.53062   0.74459   0.00000  Uiso   1.00
N5699  N     0.51482   0.51482   0.75168   0.00000  Uiso   1.00
C5700  C     0.47448   0.47448   0.71556   0.00000  Uiso   1.00
C5701  C     0.46033   0.46033   0.69437   0.00000  Uiso   1.00
N5702  N     0.45329   0.45329   0.68336   0.00000  Uiso   1.00
C5703  C     0.45600   0.45600   0.67045   0.00000  Uiso   1.00
C5704  C     0.44863   0.44863   0.65938   0.00000  Uiso   1.00
C5705  C     0.43509   0.43509   0.63740   0.00000  Uiso   1.00
C5706  C     0.42831   0.42831   0.62551   0.00000  Uiso   1.00
C5707  C     0.41546   0.41546   0.60272   0.00000  Uiso   1.00
C5708  C     0.48218   0.48218   0.72649   0.00000  Uiso   1.00
H5709  H     0.53710   0.53710   0.76531   0.00000  Uiso   1.00
H5710  H     0.55912   0.55912   0.80633   0.00000  Uiso   1.00
H5711  H     0.53710   0.53710   0.73805   0.00000  Uiso   1.00
H5712  H     0.46373   0.46373   0.66768   0.00000  Uiso   1.00
N5713  N     0.39767   0.10233   0.60233   0.00000  Uiso   1.00
N5714  N     0.89767   0.10233   0.10233   0.00000  Uiso   1.00
N5715  N     0.60233   0.39767   0.10233   0.00000  Uiso   1.00
N5716  N     0.60233   0.89767   0.60233   0.00000  Uiso   1.00
N5717  N     0.10233   0.60233   0.39767   0.00000  Uiso   1.00
N5718  N     0.10233   0.10233   0.89767   0.00000  Uiso   1.00
N5719  N     0.89767   0.89767   0.89767   0.00000  Uiso   1.00
N5720  N     0.89767   0.39767   0.39767   0.00000  Uiso   1.00
N5721  N     0.39767   0.89767   0.39767   0.00000  Uiso   1.00
N5722  N     0.39767   0.39767   0.89767   0.00000  Uiso   1.00
N5723  N     0.10233   0.89767   0.10233   0.00000  Uiso   1.00
N5724  N     0.60233   0.10233   0.39767   0.00000  Uiso   1.00
N5725  N     0.85233   0.64767   0.14767   0.00000  Uiso   1.00
N5726  N     0.35233   0.64767   0.64767   0.00000  Uiso   1.00
N5727  N     0.14767   0.85233   0.64767   0.00000  Uiso   1.00
N5728  N     0.14767   0.35233   0.14767   0.00000  Uiso   1.00
N5729  N     0.35233   0.35233   0.35233   0.00000  Uiso   1.00
N5730  N     0.35233   0.85233   0.85233   0.00000  Uiso   1.00
N5731  N     0.85233   0.35233   0.85233   0.00000  Uiso   1.00
N5732  N     0.85233   0.85233   0.35233   0.00000  Uiso   1.00
N5733  N     0.64767   0.14767   0.85233   0.00000  Uiso   1.00
N5734  N     0.64767   0.64767   0.35233   0.00000  Uiso   1.00
N5735  N     0.64767   0.35233   0.64767   0.00000  Uiso   1.00
N5736  N     0.85233   0.14767   0.64767   0.00000  Uiso   1.00
N5737  N     0.35233   0.14767   0.14767   0.00000  Uiso   1.00
N5738  N     0.64767   0.85233   0.14767   0.00000  Uiso   1.00
N5739  N     0.14767   0.64767   0.85233   0.00000  Uiso   1.00
N5740  N     0.14767   0.14767   0.35233   0.00000  Uiso   1.00
N5741  N     0.39767   0.60233   0.10233   0.00000  Uiso   1.00
N5742  N     0.89767   0.60233   0.60233   0.00000  Uiso   1.00
N5743  N     0.10233   0.39767   0.60233   0.00000  Uiso   1.00
N5744  N     0.60233   0.60233   0.89767   0.00000  Uiso   1.00
N5745  N     0.09111   0.90889   0.40889   0.00000  Uiso   1.00
N5746  N     0.90889   0.59111   0.90889   0.00000  Uiso   1.00
N5747  N     0.40889   0.09111   0.90889   0.00000  Uiso   1.00
N5748  N     0.40889   0.40889   0.59111   0.00000  Uiso   1.00
N5749  N     0.59111   0.09111   0.09111   0.00000  Uiso   1.00
N5750  N     0.59111   0.59111   0.59111   0.00000  Uiso   1.00
N5751  N     0.90889   0.90889   0.59111   0.00000  Uiso   1.00
N5752  N     0.90889   0.40889   0.09111   0.00000  Uiso   1.00
N5753  N     0.59111   0.40889   0.40889   0.00000  Uiso   1.00
N5754  N     0.09111   0.59111   0.09111   0.00000  Uiso   1.00
N5755  N     0.59111   0.90889   0.90889   0.00000  Uiso   1.00
N5756  N     0.40889   0.59111   0.40889   0.00000  Uiso   1.00
N5757  N     0.09111   0.09111   0.59111   0.00000  Uiso   1.00
N5758  N     0.65889   0.34111   0.34111   0.00000  Uiso   1.00
N5759  N     0.34111   0.15889   0.84111   0.00000  Uiso   1.00
N5760  N     0.15889   0.65889   0.15889   0.00000  Uiso   1.00
N5761  N     0.84111   0.84111   0.65889   0.00000  Uiso   1.00
N5762  N     0.84111   0.65889   0.84111   0.00000  Uiso   1.00
N5763  N     0.65889   0.15889   0.15889   0.00000  Uiso   1.00
N5764  N     0.65889   0.65889   0.65889   0.00000  Uiso   1.00
N5765  N     0.15889   0.84111   0.34111   0.00000  Uiso   1.00
N5766  N     0.34111   0.34111   0.65889   0.00000  Uiso   1.00
N5767  N     0.15889   0.15889   0.65889   0.00000  Uiso   1.00
N5768  N     0.65889   0.84111   0.84111   0.00000  Uiso   1.00
N5769  N     0.34111   0.65889   0.34111   0.00000  Uiso   1.00
N5770  N     0.84111   0.34111   0.15889   0.00000  Uiso   1.00
N5771  N     0.15889   0.34111   0.84111   0.00000  Uiso   1.00
N5772  N     0.84111   0.15889   0.34111   0.00000  Uiso   1.00
N5773  N     0.34111   0.84111   0.15889   0.00000  Uiso   1.00
N5774  N     0.09111   0.40889   0.90889   0.00000  Uiso   1.00
N5775  N     0.90889   0.09111   0.40889   0.00000  Uiso   1.00
N5776  N     0.40889   0.90889   0.09111   0.00000  Uiso   1.00
C5777  C     0.63903   0.09342   0.40658   0.00000  Uiso   1.00
C5778  C     0.62755   0.09973   0.40027   0.00000  Uiso   1.00
C5779  C     0.62355   0.07935   0.42065   0.00000  Uiso   1.00
C5780  C     0.61209   0.08566   0.41434   0.00000  Uiso   1.00
C5781  C     0.04496   0.24499   0.25501   0.00000  Uiso   1.00
H5782  H     0.64942   0.09648   0.40352   0.00000  Uiso   1.00
H5783  H     0.62913   0.10761   0.39239   0.00000  Uiso   1.00
H5784  H     0.62191   0.07147   0.42853   0.00000  Uiso   1.00
H5785  H     0.60170   0.08261   0.41739   0.00000  Uiso   1.00
H5786  H     0.05412   0.24037   0.25963   0.00000  Uiso   1.00
C5787  C     0.63903   0.59342   0.90658   0.00000  Uiso   1.00
C5788  C     0.62755   0.59973   0.90027   0.00000  Uiso   1.00
C5789  C     0.62355   0.57935   0.92065   0.00000  Uiso   1.00
C5790  C     0.61209   0.58566   0.91434   0.00000  Uiso   1.00
C5791  C     0.04496   0.74499   0.75501   0.00000  Uiso   1.00
H5792  H     0.64942   0.59648   0.90352   0.00000  Uiso   1.00
H5793  H     0.62913   0.60761   0.89239   0.00000  Uiso   1.00
H5794  H     0.62191   0.57147   0.92853   0.00000  Uiso   1.00
H5795  H     0.60170   0.58261   0.91739   0.00000  Uiso   1.00
H5796  H     0.05412   0.74037   0.75963   0.00000  Uiso   1.00
C5797  C     0.36097   0.40658   0.90658   0.00000  Uiso   1.00
C5798  C     0.37245   0.40027   0.90027   0.00000  Uiso   1.00
C5799  C     0.37645   0.42065   0.92065   0.00000  Uiso   1.00
C5800  C     0.38791   0.41434   0.91434   0.00000  Uiso   1.00
C5801  C     0.95504   0.25501   0.75501   0.00000  Uiso   1.00
H5802  H     0.35058   0.40352   0.90352   0.00000  Uiso   1.00
H5803  H     0.37087   0.39239   0.89239   0.00000  Uiso   1.00
H5804  H     0.37809   0.42853   0.92853   0.00000  Uiso   1.00
H5805  H     0.39830   0.41739   0.91739   0.00000  Uiso   1.00
H5806  H     0.94588   0.25963   0.75963   0.00000  Uiso   1.00
C5807  C     0.86097   0.40658   0.40658   0.00000  Uiso   1.00
C5808  C     0.87245   0.40027   0.40027   0.00000  Uiso   1.00
C5809  C     0.87645   0.42065   0.42065   0.00000  Uiso   1.00
C5810  C     0.88791   0.41434   0.41434   0.00000  Uiso   1.00
C5811  C     0.45504   0.25501   0.25501   0.00000  Uiso   1.00
H5812  H     0.85058   0.40352   0.40352   0.00000  Uiso   1.00
H5813  H     0.87087   0.39239   0.39239   0.00000  Uiso   1.00
H5814  H     0.87809   0.42853   0.42853   0.00000  Uiso   1.00
H5815  H     0.89830   0.41739   0.41739   0.00000  Uiso   1.00
H5816  H     0.44588   0.25963   0.25963   0.00000  Uiso   1.00
C5817  C     0.86097   0.59342   0.59342   0.00000  Uiso   1.00
C5818  C     0.87245   0.59973   0.59973   0.00000  Uiso   1.00
C5819  C     0.87645   0.57935   0.57935   0.00000  Uiso   1.00
C5820  C     0.88791   0.58566   0.58566   0.00000  Uiso   1.00
C5821  C     0.45504   0.74499   0.74499   0.00000  Uiso   1.00
H5822  H     0.85058   0.59648   0.59648   0.00000  Uiso   1.00
H5823  H     0.87087   0.60761   0.60761   0.00000  Uiso   1.00
H5824  H     0.87809   0.57147   0.57147   0.00000  Uiso   1.00
H5825  H     0.89830   0.58261   0.58261   0.00000  Uiso   1.00
H5826  H     0.44588   0.74037   0.74037   0.00000  Uiso   1.00
C5827  C     0.86097   0.09342   0.09342   0.00000  Uiso   1.00
C5828  C     0.87245   0.09973   0.09973   0.00000  Uiso   1.00
C5829  C     0.87645   0.07935   0.07935   0.00000  Uiso   1.00
C5830  C     0.88791   0.08566   0.08566   0.00000  Uiso   1.00
C5831  C     0.45504   0.24499   0.24499   0.00000  Uiso   1.00
H5832  H     0.85058   0.09648   0.09648   0.00000  Uiso   1.00
H5833  H     0.87087   0.10761   0.10761   0.00000  Uiso   1.00
H5834  H     0.87809   0.07147   0.07147   0.00000  Uiso   1.00
H5835  H     0.89830   0.08261   0.08261   0.00000  Uiso   1.00
H5836  H     0.44588   0.24037   0.24037   0.00000  Uiso   1.00
C5837  C     0.36097   0.59342   0.09342   0.00000  Uiso   1.00
C5838  C     0.37245   0.59973   0.09973   0.00000  Uiso   1.00
C5839  C     0.37645   0.57935   0.07935   0.00000  Uiso   1.00
C5840  C     0.38791   0.58566   0.08566   0.00000  Uiso   1.00
C5841  C     0.95504   0.74499   0.24499   0.00000  Uiso   1.00
H5842  H     0.35058   0.59648   0.09648   0.00000  Uiso   1.00
H5843  H     0.37087   0.60761   0.10761   0.00000  Uiso   1.00
H5844  H     0.37809   0.57147   0.07147   0.00000  Uiso   1.00
H5845  H     0.39830   0.58261   0.08261   0.00000  Uiso   1.00
H5846  H     0.94588   0.74037   0.24037   0.00000  Uiso   1.00
C5847  C     0.36097   0.09342   0.59342   0.00000  Uiso   1.00
C5848  C     0.37245   0.09973   0.59973   0.00000  Uiso   1.00
C5849  C     0.37645   0.07935   0.57935   0.00000  Uiso   1.00
C5850  C     0.38791   0.08566   0.58566   0.00000  Uiso   1.00
C5851  C     0.95504   0.24499   0.74499   0.00000  Uiso   1.00
H5852  H     0.35058   0.09648   0.59648   0.00000  Uiso   1.00
H5853  H     0.37087   0.10761   0.60761   0.00000  Uiso   1.00
H5854  H     0.37809   0.07147   0.57147   0.00000  Uiso   1.00
H5855  H     0.39830   0.08261   0.58261   0.00000  Uiso   1.00
H5856  H     0.94588   0.24037   0.74037   0.00000  Uiso   1.00
C5857  C     0.13903   0.90658   0.09342   0.00000  Uiso   1.00
C5858  C     0.12755   0.90027   0.09973   0.00000  Uiso   1.00
C5859  C     0.12355   0.92065   0.07935   0.00000  Uiso   1.00
C5860  C     0.11209   0.91434   0.08566   0.00000  Uiso   1.00
C5861  C     0.54496   0.75501   0.24499   0.00000  Uiso   1.00
H5862  H     0.14942   0.90352   0.09648   0.00000  Uiso   1.00
H5863  H     0.12913   0.89239   0.10761   0.00000  Uiso   1.00
H5864  H     0.12191   0.92853   0.07147   0.00000  Uiso   1.00
H5865  H     0.10170   0.91739   0.08261   0.00000  Uiso   1.00
H5866  H     0.55412   0.75963   0.24037   0.00000  Uiso   1.00
C5867  C     0.13903   0.40658   0.59342   0.00000  Uiso   1.00
C5868  C     0.12755   0.40027   0.59973   0.00000  Uiso   1.00
C5869  C     0.12355   0.42065   0.57935   0.00000  Uiso   1.00
C5870  C     0.11209   0.41434   0.58566   0.00000  Uiso   1.00
C5871  C     0.54496   0.25501   0.74499   0.00000  Uiso   1.00
H5872  H     0.14942   0.40352   0.59648   0.00000  Uiso   1.00
H5873  H     0.12913   0.39239   0.60761   0.00000  Uiso   1.00
H5874  H     0.12191   0.42853   0.57147   0.00000  Uiso   1.00
H5875  H     0.10170   0.41739   0.58261   0.00000  Uiso   1.00
H5876  H     0.55412   0.25963   0.74037   0.00000  Uiso   1.00
C5877  C     0.40658   0.63903   0.09342   0.00000  Uiso   1.00
C5878  C     0.40027   0.62755   0.09973   0.00000  Uiso   1.00
C5879  C     0.42065   0.62355   0.07935   0.00000  Uiso   1.00
C5880  C     0.41434   0.61209   0.08566   0.00000  Uiso   1.00
C5881  C     0.25501   0.04496   0.24499   0.00000  Uiso   1.00
H5882  H     0.40352   0.64942   0.09648   0.00000  Uiso   1.00
H5883  H     0.39239   0.62913   0.10761   0.00000  Uiso   1.00
H5884  H     0.42853   0.62191   0.07147   0.00000  Uiso   1.00
H5885  H     0.41739   0.60170   0.08261   0.00000  Uiso   1.00
H5886  H     0.25963   0.05412   0.24037   0.00000  Uiso   1.00
C5887  C     0.40658   0.13903   0.59342   0.00000  Uiso   1.00
C5888  C     0.40027   0.12755   0.59973   0.00000  Uiso   1.00
C5889  C     0.42065   0.12355   0.57935   0.00000  Uiso   1.00
C5890  C     0.41434   0.11209   0.58566   0.00000  Uiso   1.00
C5891  C     0.25501   0.54496   0.74499   0.00000  Uiso   1.00
H5892  H     0.40352   0.14942   0.59648   0.00000  Uiso   1.00
H5893  H     0.39239   0.12913   0.60761   0.00000  Uiso   1.00
H5894  H     0.42853   0.12191   0.57147   0.00000  Uiso   1.00
H5895  H     0.41739   0.10170   0.58261   0.00000  Uiso   1.00
H5896  H     0.25963   0.55412   0.74037   0.00000  Uiso   1.00
C5897  C     0.90658   0.36097   0.40658   0.00000  Uiso   1.00
C5898  C     0.90027   0.37245   0.40027   0.00000  Uiso   1.00
C5899  C     0.92065   0.37645   0.42065   0.00000  Uiso   1.00
C5900  C     0.91434   0.38791   0.41434   0.00000  Uiso   1.00
C5901  C     0.75501   0.95504   0.25501   0.00000  Uiso   1.00
H5902  H     0.90352   0.35058   0.40352   0.00000  Uiso   1.00
H5903  H     0.89239   0.37087   0.39239   0.00000  Uiso   1.00
H5904  H     0.92853   0.37809   0.42853   0.00000  Uiso   1.00
H5905  H     0.91739   0.39830   0.41739   0.00000  Uiso   1.00
H5906  H     0.75963   0.94588   0.25963   0.00000  Uiso   1.00
C5907  C     0.90658   0.86097   0.90658   0.00000  Uiso   1.00
C5908  C     0.90027   0.87245   0.90027   0.00000  Uiso   1.00
C5909  C     0.92065   0.87645   0.92065   0.00000  Uiso   1.00
C5910  C     0.91434   0.88791   0.91434   0.00000  Uiso   1.00
C5911  C     0.75501   0.45504   0.75501   0.00000  Uiso   1.00
H5912  H     0.90352   0.85058   0.90352   0.00000  Uiso   1.00
H5913  H     0.89239   0.87087   0.89239   0.00000  Uiso   1.00
H5914  H     0.92853   0.87809   0.92853   0.00000  Uiso   1.00
H5915  H     0.91739   0.89830   0.91739   0.00000  Uiso   1.00
H5916  H     0.75963   0.44588   0.75963   0.00000  Uiso   1.00
C5917  C     0.59342   0.86097   0.59342   0.00000  Uiso   1.00
C5918  C     0.59973   0.87245   0.59973   0.00000  Uiso   1.00
C5919  C     0.57935   0.87645   0.57935   0.00000  Uiso   1.00
C5920  C     0.58566   0.88791   0.58566   0.00000  Uiso   1.00
C5921  C     0.74499   0.45504   0.74499   0.00000  Uiso   1.00
H5922  H     0.59648   0.85058   0.59648   0.00000  Uiso   1.00
H5923  H     0.60761   0.87087   0.60761   0.00000  Uiso   1.00
H5924  H     0.57147   0.87809   0.57147   0.00000  Uiso   1.00
H5925  H     0.58261   0.89830   0.58261   0.00000  Uiso   1.00
H5926  H     0.74037   0.44588   0.74037   0.00000  Uiso   1.00
C5927  C     0.59342   0.36097   0.09342   0.00000  Uiso   1.00
C5928  C     0.59973   0.37245   0.09973   0.00000  Uiso   1.00
C5929  C     0.57935   0.37645   0.07935   0.00000  Uiso   1.00
C5930  C     0.58566   0.38791   0.08566   0.00000  Uiso   1.00
C5931  C     0.74499   0.95504   0.24499   0.00000  Uiso   1.00
H5932  H     0.59648   0.35058   0.09648   0.00000  Uiso   1.00
H5933  H     0.60761   0.37087   0.10761   0.00000  Uiso   1.00
H5934  H     0.57147   0.37809   0.07147   0.00000  Uiso   1.00
H5935  H     0.58261   0.39830   0.08261   0.00000  Uiso   1.00
H5936  H     0.74037   0.94588   0.24037   0.00000  Uiso   1.00
C5937  C     0.09342   0.86097   0.09342   0.00000  Uiso   1.00
C5938  C     0.09973   0.87245   0.09973   0.00000  Uiso   1.00
C5939  C     0.07935   0.87645   0.07935   0.00000  Uiso   1.00
C5940  C     0.08566   0.88791   0.08566   0.00000  Uiso   1.00
C5941  C     0.24499   0.45504   0.24499   0.00000  Uiso   1.00
H5942  H     0.09648   0.85058   0.09648   0.00000  Uiso   1.00
H5943  H     0.10761   0.87087   0.10761   0.00000  Uiso   1.00
H5944  H     0.07147   0.87809   0.07147   0.00000  Uiso   1.00
H5945  H     0.08261   0.89830   0.08261   0.00000  Uiso   1.00
H5946  H     0.24037   0.44588   0.24037   0.00000  Uiso   1.00
C5947  C     0.09342   0.36097   0.59342   0.00000  Uiso   1.00
C5948  C     0.09973   0.37245   0.59973   0.00000  Uiso   1.00
C5949  C     0.07935   0.37645   0.57935   0.00000  Uiso   1.00
C5950  C     0.08566   0.38791   0.58566   0.00000  Uiso   1.00
C5951  C     0.24499   0.95504   0.74499   0.00000  Uiso   1.00
H5952  H     0.09648   0.35058   0.59648   0.00000  Uiso   1.00
H5953  H     0.10761   0.37087   0.60761   0.00000  Uiso   1.00
H5954  H     0.07147   0.37809   0.57147   0.00000  Uiso   1.00
H5955  H     0.08261   0.39830   0.58261   0.00000  Uiso   1.00
H5956  H     0.24037   0.94588   0.74037   0.00000  Uiso   1.00
C5957  C     0.09342   0.13903   0.90658   0.00000  Uiso   1.00
C5958  C     0.09973   0.12755   0.90027   0.00000  Uiso   1.00
C5959  C     0.07935   0.12355   0.92065   0.00000  Uiso   1.00
C5960  C     0.08566   0.11209   0.91434   0.00000  Uiso   1.00
C5961  C     0.24499   0.54496   0.75501   0.00000  Uiso   1.00
H5962  H     0.09648   0.14942   0.90352   0.00000  Uiso   1.00
H5963  H     0.10761   0.12913   0.89239   0.00000  Uiso   1.00
H5964  H     0.07147   0.12191   0.92853   0.00000  Uiso   1.00
H5965  H     0.08261   0.10170   0.91739   0.00000  Uiso   1.00
H5966  H     0.24037   0.55412   0.75963   0.00000  Uiso   1.00
C5967  C     0.59342   0.13903   0.40658   0.00000  Uiso   1.00
C5968  C     0.59973   0.12755   0.40027   0.00000  Uiso   1.00
C5969  C     0.57935   0.12355   0.42065   0.00000  Uiso   1.00
C5970  C     0.58566   0.11209   0.41434   0.00000  Uiso   1.00
C5971  C     0.74499   0.54496   0.25501   0.00000  Uiso   1.00
H5972  H     0.59648   0.14942   0.40352   0.00000  Uiso   1.00
H5973  H     0.60761   0.12913   0.39239   0.00000  Uiso   1.00
H5974  H     0.57147   0.12191   0.42853   0.00000  Uiso   1.00
H5975  H     0.58261   0.10170   0.41739   0.00000  Uiso   1.00
H5976  H     0.74037   0.55412   0.25963   0.00000  Uiso   1.00
C5977  C     0.09342   0.40658   0.63903   0.00000  Uiso   1.00
C5978  C     0.09973   0.40027   0.62755   0.00000  Uiso   1.00
C5979  C     0.07935   0.42065   0.62355   0.00000  Uiso   1.00
C5980  C     0.08566   0.41434   0.61209   0.00000  Uiso   1.00
C5981  C     0.24499   0.25501   0.04496   0.00000  Uiso   1.00
H5982  H     0.09648   0.40352   0.64942   0.00000  Uiso   1.00
H5983  H     0.10761   0.39239   0.62913   0.00000  Uiso   1.00
H5984  H     0.07147   0.42853   0.62191   0.00000  Uiso   1.00
H5985  H     0.08261   0.41739   0.60170   0.00000  Uiso   1.00
H5986  H     0.24037   0.25963   0.05412   0.00000  Uiso   1.00
C5987  C     0.59342   0.40658   0.13903   0.00000  Uiso   1.00
C5988  C     0.59973   0.40027   0.12755   0.00000  Uiso   1.00
C5989  C     0.57935   0.42065   0.12355   0.00000  Uiso   1.00
C5990  C     0.58566   0.41434   0.11209   0.00000  Uiso   1.00
C5991  C     0.74499   0.25501   0.54496   0.00000  Uiso   1.00
H5992  H     0.59648   0.40352   0.14942   0.00000  Uiso   1.00
H5993  H     0.60761   0.39239   0.12913   0.00000  Uiso   1.00
H5994  H     0.57147   0.42853   0.12191   0.00000  Uiso   1.00
H5995  H     0.58261   0.41739   0.10170   0.00000  Uiso   1.00
H5996  H     0.74037   0.25963   0.55412   0.00000  Uiso   1.00
C5997  C     0.40658   0.90658   0.36097   0.00000  Uiso   1.00
C5998  C     0.40027   0.90027   0.37245   0.00000  Uiso   1.00
C5999  C     0.42065   0.92065   0.37645   0.00000  Uiso   1.00
C6000  C     0.41434   0.91434   0.38791   0.00000  Uiso   1.00
C6001  C     0.25501   0.75501   0.95504   0.00000  Uiso   1.00
H6002  H     0.40352   0.90352   0.35058   0.00000  Uiso   1.00
H6003  H     0.39239   0.89239   0.37087   0.00000  Uiso   1.00
H6004  H     0.42853   0.92853   0.37809   0.00000  Uiso   1.00
H6005  H     0.41739   0.91739   0.39830   0.00000  Uiso   1.00
H6006  H     0.25963   0.75963   0.94588   0.00000  Uiso   1.00
C6007  C     0.40658   0.40658   0.86097   0.00000  Uiso   1.00
C6008  C     0.40027   0.40027   0.87245   0.00000  Uiso   1.00
C6009  C     0.42065   0.42065   0.87645   0.00000  Uiso   1.00
C6010  C     0.41434   0.41434   0.88791   0.00000  Uiso   1.00
C6011  C     0.25501   0.25501   0.45504   0.00000  Uiso   1.00
H6012  H     0.40352   0.40352   0.85058   0.00000  Uiso   1.00
H6013  H     0.39239   0.39239   0.87087   0.00000  Uiso   1.00
H6014  H     0.42853   0.42853   0.87809   0.00000  Uiso   1.00
H6015  H     0.41739   0.41739   0.89830   0.00000  Uiso   1.00
H6016  H     0.25963   0.25963   0.44588   0.00000  Uiso   1.00
C6017  C     0.59342   0.59342   0.86097   0.00000  Uiso   1.00
C6018  C     0.59973   0.59973   0.87245   0.00000  Uiso   1.00
C6019  C     0.57935   0.57935   0.87645   0.00000  Uiso   1.00
C6020  C     0.58566   0.58566   0.88791   0.00000  Uiso   1.00
C6021  C     0.74499   0.74499   0.45504   0.00000  Uiso   1.00
H6022  H     0.59648   0.59648   0.85058   0.00000  Uiso   1.00
H6023  H     0.60761   0.60761   0.87087   0.00000  Uiso   1.00
H6024  H     0.57147   0.57147   0.87809   0.00000  Uiso   1.00
H6025  H     0.58261   0.58261   0.89830   0.00000  Uiso   1.00
H6026  H     0.74037   0.74037   0.44588   0.00000  Uiso   1.00
C6027  C     0.59342   0.09342   0.36097   0.00000  Uiso   1.00
C6028  C     0.59973   0.09973   0.37245   0.00000  Uiso   1.00
C6029  C     0.57935   0.07935   0.37645   0.00000  Uiso   1.00
C6030  C     0.58566   0.08566   0.38791   0.00000  Uiso   1.00
C6031  C     0.74499   0.24499   0.95504   0.00000  Uiso   1.00
H6032  H     0.59648   0.09648   0.35058   0.00000  Uiso   1.00
H6033  H     0.60761   0.10761   0.37087   0.00000  Uiso   1.00
H6034  H     0.57147   0.07147   0.37809   0.00000  Uiso   1.00
H6035  H     0.58261   0.08261   0.39830   0.00000  Uiso   1.00
H6036  H     0.74037   0.24037   0.94588   0.00000  Uiso   1.00
C6037  C     0.09342   0.59342   0.36097   0.00000  Uiso   1.00
C6038  C     0.09973   0.59973   0.37245   0.00000  Uiso   1.00
C6039  C     0.07935   0.57935   0.37645   0.00000  Uiso   1.00
C6040  C     0.08566   0.58566   0.38791   0.00000  Uiso   1.00
C6041  C     0.24499   0.74499   0.95504   0.00000  Uiso   1.00
H6042  H     0.09648   0.59648   0.35058   0.00000  Uiso   1.00
H6043  H     0.10761   0.60761   0.37087   0.00000  Uiso   1.00
H6044  H     0.07147   0.57147   0.37809   0.00000  Uiso   1.00
H6045  H     0.08261   0.58261   0.39830   0.00000  Uiso   1.00
H6046  H     0.24037   0.74037   0.94588   0.00000  Uiso   1.00
C6047  C     0.09342   0.09342   0.86097   0.00000  Uiso   1.00
C6048  C     0.09973   0.09973   0.87245   0.00000  Uiso   1.00
C6049  C     0.07935   0.07935   0.87645   0.00000  Uiso   1.00
C6050  C     0.08566   0.08566   0.88791   0.00000  Uiso   1.00
C6051  C     0.24499   0.24499   0.45504   0.00000  Uiso   1.00
H6052  H     0.09648   0.09648   0.85058   0.00000  Uiso   1.00
H6053  H     0.10761   0.10761   0.87087   0.00000  Uiso   1.00
H6054  H     0.07147   0.07147   0.87809   0.00000  Uiso   1.00
H6055  H     0.08261   0.08261   0.89830   0.00000  Uiso   1.00
H6056  H     0.24037   0.24037   0.44588   0.00000  Uiso   1.00
C6057  C     0.90658   0.09342   0.13903   0.00000  Uiso   1.00
C6058  C     0.90027   0.09973   0.12755   0.00000  Uiso   1.00
C6059  C     0.92065   0.07935   0.12355   0.00000  Uiso   1.00
C6060  C     0.91434   0.08566   0.11209   0.00000  Uiso   1.00
C6061  C     0.75501   0.24499   0.54496   0.00000  Uiso   1.00
H6062  H     0.90352   0.09648   0.14942   0.00000  Uiso   1.00
H6063  H     0.89239   0.10761   0.12913   0.00000  Uiso   1.00
H6064  H     0.92853   0.07147   0.12191   0.00000  Uiso   1.00
H6065  H     0.91739   0.08261   0.10170   0.00000  Uiso   1.00
H6066  H     0.75963   0.24037   0.55412   0.00000  Uiso   1.00
C6067  C     0.90658   0.59342   0.63903   0.00000  Uiso   1.00
C6068  C     0.90027   0.59973   0.62755   0.00000  Uiso   1.00
C6069  C     0.92065   0.57935   0.62355   0.00000  Uiso   1.00
C6070  C     0.91434   0.58566   0.61209   0.00000  Uiso   1.00
C6071  C     0.75501   0.74499   0.04496   0.00000  Uiso   1.00
H6072  H     0.90352   0.59648   0.64942   0.00000  Uiso   1.00
H6073  H     0.89239   0.60761   0.62913   0.00000  Uiso   1.00
H6074  H     0.92853   0.57147   0.62191   0.00000  Uiso   1.00
H6075  H     0.91739   0.58261   0.60170   0.00000  Uiso   1.00
H6076  H     0.75963   0.74037   0.05412   0.00000  Uiso   1.00
C6077  C     0.84342   0.88903   0.34342   0.00000  Uiso   1.00
C6078  C     0.84973   0.87755   0.34973   0.00000  Uiso   1.00
C6079  C     0.82935   0.87355   0.32935   0.00000  Uiso   1.00
C6080  C     0.83566   0.86209   0.33566   0.00000  Uiso   1.00
C6081  C     0.99499   0.29496   0.49499   0.00000  Uiso   1.00
H6082  H     0.84648   0.89942   0.34648   0.00000  Uiso   1.00
H6083  H     0.85761   0.87913   0.35761   0.00000  Uiso   1.00
H6084  H     0.82147   0.87191   0.32147   0.00000  Uiso   1.00
H6085  H     0.83261   0.85170   0.33261   0.00000  Uiso   1.00
H6086  H     0.99037   0.30412   0.49037   0.00000  Uiso   1.00
C6087  C     0.84342   0.38903   0.84342   0.00000  Uiso   1.00
C6088  C     0.84973   0.37755   0.84973   0.00000  Uiso   1.00
C6089  C     0.82935   0.37355   0.82935   0.00000  Uiso   1.00
C6090  C     0.83566   0.36209   0.83566   0.00000  Uiso   1.00
C6091  C     0.99499   0.79496   0.99499   0.00000  Uiso   1.00
H6092  H     0.84648   0.39942   0.84648   0.00000  Uiso   1.00
H6093  H     0.85761   0.37913   0.85761   0.00000  Uiso   1.00
H6094  H     0.82147   0.37191   0.82147   0.00000  Uiso   1.00
H6095  H     0.83261   0.35170   0.83261   0.00000  Uiso   1.00
H6096  H     0.99037   0.80412   0.99037   0.00000  Uiso   1.00
C6097  C     0.15658   0.61097   0.84342   0.00000  Uiso   1.00
C6098  C     0.15027   0.62245   0.84973   0.00000  Uiso   1.00
C6099  C     0.17065   0.62645   0.82935   0.00000  Uiso   1.00
C6100  C     0.16434   0.63791   0.83566   0.00000  Uiso   1.00
C6101  C     0.00501   0.20504   0.99499   0.00000  Uiso   1.00
H6102  H     0.15352   0.60058   0.84648   0.00000  Uiso   1.00
H6103  H     0.14239   0.62087   0.85761   0.00000  Uiso   1.00
H6104  H     0.17853   0.62809   0.82147   0.00000  Uiso   1.00
H6105  H     0.16739   0.64830   0.83261   0.00000  Uiso   1.00
H6106  H     0.00963   0.19588   0.99037   0.00000  Uiso   1.00
C6107  C     0.65658   0.61097   0.34342   0.00000  Uiso   1.00
C6108  C     0.65027   0.62245   0.34973   0.00000  Uiso   1.00
C6109  C     0.67065   0.62645   0.32935   0.00000  Uiso   1.00
C6110  C     0.66434   0.63791   0.33566   0.00000  Uiso   1.00
C6111  C     0.50501   0.20504   0.49499   0.00000  Uiso   1.00
H6112  H     0.65352   0.60058   0.34648   0.00000  Uiso   1.00
H6113  H     0.64239   0.62087   0.35761   0.00000  Uiso   1.00
H6114  H     0.67853   0.62809   0.32147   0.00000  Uiso   1.00
H6115  H     0.66739   0.64830   0.33261   0.00000  Uiso   1.00
H6116  H     0.50963   0.19588   0.49037   0.00000  Uiso   1.00
C6117  C     0.34342   0.11097   0.15658   0.00000  Uiso   1.00
C6118  C     0.34973   0.12245   0.15027   0.00000  Uiso   1.00
C6119  C     0.32935   0.12645   0.17065   0.00000  Uiso   1.00
C6120  C     0.33566   0.13791   0.16434   0.00000  Uiso   1.00
C6121  C     0.49499   0.70504   0.00501   0.00000  Uiso   1.00
H6122  H     0.34648   0.10058   0.15352   0.00000  Uiso   1.00
H6123  H     0.35761   0.12087   0.14239   0.00000  Uiso   1.00
H6124  H     0.32147   0.12809   0.17853   0.00000  Uiso   1.00
H6125  H     0.33261   0.14830   0.16739   0.00000  Uiso   1.00
H6126  H     0.49037   0.69588   0.00963   0.00000  Uiso   1.00
C6127  C     0.34342   0.61097   0.65658   0.00000  Uiso   1.00
C6128  C     0.34973   0.62245   0.65027   0.00000  Uiso   1.00
C6129  C     0.32935   0.62645   0.67065   0.00000  Uiso   1.00
C6130  C     0.33566   0.63791   0.66434   0.00000  Uiso   1.00
C6131  C     0.49499   0.20504   0.50501   0.00000  Uiso   1.00
H6132  H     0.34648   0.60058   0.65352   0.00000  Uiso   1.00
H6133  H     0.35761   0.62087   0.64239   0.00000  Uiso   1.00
H6134  H     0.32147   0.62809   0.67853   0.00000  Uiso   1.00
H6135  H     0.33261   0.64830   0.66739   0.00000  Uiso   1.00
H6136  H     0.49037   0.19588   0.50963   0.00000  Uiso   1.00
C6137  C     0.65658   0.38903   0.65658   0.00000  Uiso   1.00
C6138  C     0.65027   0.37755   0.65027   0.00000  Uiso   1.00
C6139  C     0.67065   0.37355   0.67065   0.00000  Uiso   1.00
C6140  C     0.66434   0.36209   0.66434   0.00000  Uiso   1.00
C6141  C     0.50501   0.79496   0.50501   0.00000  Uiso   1.00
H6142  H     0.65352   0.39942   0.65352   0.00000  Uiso   1.00
H6143  H     0.64239   0.37913   0.64239   0.00000  Uiso   1.00
H6144  H     0.67853   0.37191   0.67853   0.00000  Uiso   1.00
H6145  H     0.66739   0.35170   0.66739   0.00000  Uiso   1.00
H6146  H     0.50963   0.80412   0.50963   0.00000  Uiso   1.00
C6147  C     0.65658   0.88903   0.15658   0.00000  Uiso   1.00
C6148  C     0.65027   0.87755   0.15027   0.00000  Uiso   1.00
C6149  C     0.67065   0.87355   0.17065   0.00000  Uiso   1.00
C6150  C     0.66434   0.86209   0.16434   0.00000  Uiso   1.00
C6151  C     0.50501   0.29496   0.00501   0.00000  Uiso   1.00
H6152  H     0.65352   0.89942   0.15352   0.00000  Uiso   1.00
H6153  H     0.64239   0.87913   0.14239   0.00000  Uiso   1.00
H6154  H     0.67853   0.87191   0.17853   0.00000  Uiso   1.00
H6155  H     0.66739   0.85170   0.16739   0.00000  Uiso   1.00
H6156  H     0.50963   0.30412   0.00963   0.00000  Uiso   1.00
C6157  C     0.15658   0.38903   0.15658   0.00000  Uiso   1.00
C6158  C     0.15027   0.37755   0.15027   0.00000  Uiso   1.00
C6159  C     0.17065   0.37355   0.17065   0.00000  Uiso   1.00
C6160  C     0.16434   0.36209   0.16434   0.00000  Uiso   1.00
C6161  C     0.00501   0.79496   0.00501   0.00000  Uiso   1.00
H6162  H     0.15352   0.39942   0.15352   0.00000  Uiso   1.00
H6163  H     0.14239   0.37913   0.14239   0.00000  Uiso   1.00
H6164  H     0.17853   0.37191   0.17853   0.00000  Uiso   1.00
H6165  H     0.16739   0.35170   0.16739   0.00000  Uiso   1.00
H6166  H     0.00963   0.80412   0.00963   0.00000  Uiso   1.00
C6167  C     0.15658   0.88903   0.65658   0.00000  Uiso   1.00
C6168  C     0.15027   0.87755   0.65027   0.00000  Uiso   1.00
C6169  C     0.17065   0.87355   0.67065   0.00000  Uiso   1.00
C6170  C     0.16434   0.86209   0.66434   0.00000  Uiso   1.00
C6171  C     0.00501   0.29496   0.50501   0.00000  Uiso   1.00
H6172  H     0.15352   0.89942   0.65352   0.00000  Uiso   1.00
H6173  H     0.14239   0.87913   0.64239   0.00000  Uiso   1.00
H6174  H     0.17853   0.87191   0.67853   0.00000  Uiso   1.00
H6175  H     0.16739   0.85170   0.66739   0.00000  Uiso   1.00
H6176  H     0.00963   0.30412   0.50963   0.00000  Uiso   1.00
C6177  C     0.38903   0.65658   0.65658   0.00000  Uiso   1.00
C6178  C     0.37755   0.65027   0.65027   0.00000  Uiso   1.00
C6179  C     0.37355   0.67065   0.67065   0.00000  Uiso   1.00
C6180  C     0.36209   0.66434   0.66434   0.00000  Uiso   1.00
C6181  C     0.79496   0.50501   0.50501   0.00000  Uiso   1.00
H6182  H     0.39942   0.65352   0.65352   0.00000  Uiso   1.00
H6183  H     0.37913   0.64239   0.64239   0.00000  Uiso   1.00
H6184  H     0.37191   0.67853   0.67853   0.00000  Uiso   1.00
H6185  H     0.35170   0.66739   0.66739   0.00000  Uiso   1.00
H6186  H     0.80412   0.50963   0.50963   0.00000  Uiso   1.00
C6187  C     0.38903   0.15658   0.15658   0.00000  Uiso   1.00
C6188  C     0.37755   0.15027   0.15027   0.00000  Uiso   1.00
C6189  C     0.37355   0.17065   0.17065   0.00000  Uiso   1.00
C6190  C     0.36209   0.16434   0.16434   0.00000  Uiso   1.00
C6191  C     0.79496   0.00501   0.00501   0.00000  Uiso   1.00
H6192  H     0.39942   0.15352   0.15352   0.00000  Uiso   1.00
H6193  H     0.37913   0.14239   0.14239   0.00000  Uiso   1.00
H6194  H     0.37191   0.17853   0.17853   0.00000  Uiso   1.00
H6195  H     0.35170   0.16739   0.16739   0.00000  Uiso   1.00
H6196  H     0.80412   0.00963   0.00963   0.00000  Uiso   1.00
C6197  C     0.88903   0.65658   0.15658   0.00000  Uiso   1.00
C6198  C     0.87755   0.65027   0.15027   0.00000  Uiso   1.00
C6199  C     0.87355   0.67065   0.17065   0.00000  Uiso   1.00
C6200  C     0.86209   0.66434   0.16434   0.00000  Uiso   1.00
C6201  C     0.29496   0.50501   0.00501   0.00000  Uiso   1.00
H6202  H     0.89942   0.65352   0.15352   0.00000  Uiso   1.00
H6203  H     0.87913   0.64239   0.14239   0.00000  Uiso   1.00
H6204  H     0.87191   0.67853   0.17853   0.00000  Uiso   1.00
H6205  H     0.85170   0.66739   0.16739   0.00000  Uiso   1.00
H6206  H     0.30412   0.50963   0.00963   0.00000  Uiso   1.00
C6207  C     0.88903   0.15658   0.65658   0.00000  Uiso   1.00
C6208  C     0.87755   0.15027   0.65027   0.00000  Uiso   1.00
C6209  C     0.87355   0.17065   0.67065   0.00000  Uiso   1.00
C6210  C     0.86209   0.16434   0.66434   0.00000  Uiso   1.00
C6211  C     0.29496   0.00501   0.50501   0.00000  Uiso   1.00
H6212  H     0.89942   0.15352   0.65352   0.00000  Uiso   1.00
H6213  H     0.87913   0.14239   0.64239   0.00000  Uiso   1.00
H6214  H     0.87191   0.17853   0.67853   0.00000  Uiso   1.00
H6215  H     0.85170   0.16739   0.66739   0.00000  Uiso   1.00
H6216  H     0.30412   0.00963   0.50963   0.00000  Uiso   1.00
C6217  C     0.11097   0.15658   0.34342   0.00000  Uiso   1.00
C6218  C     0.12245   0.15027   0.34973   0.00000  Uiso   1.00
C6219  C     0.12645   0.17065   0.32935   0.00000  Uiso   1.00
C6220  C     0.13791   0.16434   0.33566   0.00000  Uiso   1.00
C6221  C     0.70504   0.00501   0.49499   0.00000  Uiso   1.00
H6222  H     0.10058   0.15352   0.34648   0.00000  Uiso   1.00
H6223  H     0.12087   0.14239   0.35761   0.00000  Uiso   1.00
H6224  H     0.12809   0.17853   0.32147   0.00000  Uiso   1.00
H6225  H     0.14830   0.16739   0.33261   0.00000  Uiso   1.00
H6226  H     0.69588   0.00963   0.49037   0.00000  Uiso   1.00
C6227  C     0.11097   0.65658   0.84342   0.00000  Uiso   1.00
C6228  C     0.12245   0.65027   0.84973   0.00000  Uiso   1.00
C6229  C     0.12645   0.67065   0.82935   0.00000  Uiso   1.00
C6230  C     0.13791   0.66434   0.83566   0.00000  Uiso   1.00
C6231  C     0.70504   0.50501   0.99499   0.00000  Uiso   1.00
H6232  H     0.10058   0.65352   0.84648   0.00000  Uiso   1.00
H6233  H     0.12087   0.64239   0.85761   0.00000  Uiso   1.00
H6234  H     0.12809   0.67853   0.82147   0.00000  Uiso   1.00
H6235  H     0.14830   0.66739   0.83261   0.00000  Uiso   1.00
H6236  H     0.69588   0.50963   0.99037   0.00000  Uiso   1.00
C6237  C     0.61097   0.84342   0.15658   0.00000  Uiso   1.00
C6238  C     0.62245   0.84973   0.15027   0.00000  Uiso   1.00
C6239  C     0.62645   0.82935   0.17065   0.00000  Uiso   1.00
C6240  C     0.63791   0.83566   0.16434   0.00000  Uiso   1.00
C6241  C     0.20504   0.99499   0.00501   0.00000  Uiso   1.00
H6242  H     0.60058   0.84648   0.15352   0.00000  Uiso   1.00
H6243  H     0.62087   0.85761   0.14239   0.00000  Uiso   1.00
H6244  H     0.62809   0.82147   0.17853   0.00000  Uiso   1.00
H6245  H     0.64830   0.83261   0.16739   0.00000  Uiso   1.00
H6246  H     0.19588   0.99037   0.00963   0.00000  Uiso   1.00
C6247  C     0.61097   0.34342   0.65658   0.00000  Uiso   1.00
C6248  C     0.62245   0.34973   0.65027   0.00000  Uiso   1.00
C6249  C     0.62645   0.32935   0.67065   0.00000  Uiso   1.00
C6250  C     0.63791   0.33566   0.66434   0.00000  Uiso   1.00
C6251  C     0.20504   0.49499   0.50501   0.00000  Uiso   1.00
H6252  H     0.60058   0.34648   0.65352   0.00000  Uiso   1.00
H6253  H     0.62087   0.35761   0.64239   0.00000  Uiso   1.00
H6254  H     0.62809   0.32147   0.67853   0.00000  Uiso   1.00
H6255  H     0.64830   0.33261   0.66739   0.00000  Uiso   1.00
H6256  H     0.19588   0.49037   0.50963   0.00000  Uiso   1.00
C6257  C     0.88903   0.34342   0.84342   0.00000  Uiso   1.00
C6258  C     0.87755   0.34973   0.84973   0.00000  Uiso   1.00
C6259  C     0.87355   0.32935   0.82935   0.00000  Uiso   1.00
C6260  C     0.86209   0.33566   0.83566   0.00000  Uiso   1.00
C6261  C     0.29496   0.49499   0.99499   0.00000  Uiso   1.00
H6262  H     0.89942   0.34648   0.84648   0.00000  Uiso   1.00
H6263  H     0.87913   0.35761   0.85761   0.00000  Uiso   1.00
H6264  H     0.87191   0.32147   0.82147   0.00000  Uiso   1.00
H6265  H     0.85170   0.33261   0.83261   0.00000  Uiso   1.00
H6266  H     0.30412   0.49037   0.99037   0.00000  Uiso   1.00
C6267  C     0.38903   0.34342   0.34342   0.00000  Uiso   1.00
C6268  C     0.37755   0.34973   0.34973   0.00000  Uiso   1.00
C6269  C     0.37355   0.32935   0.32935   0.00000  Uiso   1.00
C6270  C     0.36209   0.33566   0.33566   0.00000  Uiso   1.00
C6271  C     0.79496   0.49499   0.49499   0.00000  Uiso   1.00
H6272  H     0.39942   0.34648   0.34648   0.00000  Uiso   1.00
H6273  H     0.37913   0.35761   0.35761   0.00000  Uiso   1.00
H6274  H     0.37191   0.32147   0.32147   0.00000  Uiso   1.00
H6275  H     0.35170   0.33261   0.33261   0.00000  Uiso   1.00
H6276  H     0.80412   0.49037   0.49037   0.00000  Uiso   1.00
C6277  C     0.15658   0.34342   0.11097   0.00000  Uiso   1.00
C6278  C     0.15027   0.34973   0.12245   0.00000  Uiso   1.00
C6279  C     0.17065   0.32935   0.12645   0.00000  Uiso   1.00
C6280  C     0.16434   0.33566   0.13791   0.00000  Uiso   1.00
C6281  C     0.00501   0.49499   0.70504   0.00000  Uiso   1.00
H6282  H     0.15352   0.34648   0.10058   0.00000  Uiso   1.00
H6283  H     0.14239   0.35761   0.12087   0.00000  Uiso   1.00
H6284  H     0.17853   0.32147   0.12809   0.00000  Uiso   1.00
H6285  H     0.16739   0.33261   0.14830   0.00000  Uiso   1.00
H6286  H     0.00963   0.49037   0.69588   0.00000  Uiso   1.00
C6287  C     0.65658   0.34342   0.61097   0.00000  Uiso   1.00
C6288  C     0.65027   0.34973   0.62245   0.00000  Uiso   1.00
C6289  C     0.67065   0.32935   0.62645   0.00000  Uiso   1.00
C6290  C     0.66434   0.33566   0.63791   0.00000  Uiso   1.00
C6291  C     0.50501   0.49499   0.20504   0.00000  Uiso   1.00
H6292  H     0.65352   0.34648   0.60058   0.00000  Uiso   1.00
H6293  H     0.64239   0.35761   0.62087   0.00000  Uiso   1.00
H6294  H     0.67853   0.32147   0.62809   0.00000  Uiso   1.00
H6295  H     0.66739   0.33261   0.64830   0.00000  Uiso   1.00
H6296  H     0.50963   0.49037   0.19588   0.00000  Uiso   1.00
C6297  C     0.65658   0.65658   0.38903   0.00000  Uiso   1.00
C6298  C     0.65027   0.65027   0.37755   0.00000  Uiso   1.00
C6299  C     0.67065   0.67065   0.37355   0.00000  Uiso   1.00
C6300  C     0.66434   0.66434   0.36209   0.00000  Uiso   1.00
C6301  C     0.50501   0.50501   0.79496   0.00000  Uiso   1.00
H6302  H     0.65352   0.65352   0.39942   0.00000  Uiso   1.00
H6303  H     0.64239   0.64239   0.37913   0.00000  Uiso   1.00
H6304  H     0.67853   0.67853   0.37191   0.00000  Uiso   1.00
H6305  H     0.66739   0.66739   0.35170   0.00000  Uiso   1.00
H6306  H     0.50963   0.50963   0.80412   0.00000  Uiso   1.00
C6307  C     0.65658   0.15658   0.88903   0.00000  Uiso   1.00
C6308  C     0.65027   0.15027   0.87755   0.00000  Uiso   1.00
C6309  C     0.67065   0.17065   0.87355   0.00000  Uiso   1.00
C6310  C     0.66434   0.16434   0.86209   0.00000  Uiso   1.00
C6311  C     0.50501   0.00501   0.29496   0.00000  Uiso   1.00
H6312  H     0.65352   0.15352   0.89942   0.00000  Uiso   1.00
H6313  H     0.64239   0.14239   0.87913   0.00000  Uiso   1.00
H6314  H     0.67853   0.17853   0.87191   0.00000  Uiso   1.00
H6315  H     0.66739   0.16739   0.85170   0.00000  Uiso   1.00
H6316  H     0.50963   0.00963   0.30412   0.00000  Uiso   1.00
C6317  C     0.15658   0.65658   0.88903   0.00000  Uiso   1.00
C6318  C     0.15027   0.65027   0.87755   0.00000  Uiso   1.00
C6319  C     0.17065   0.67065   0.87355   0.00000  Uiso   1.00
C6320  C     0.16434   0.66434   0.86209   0.00000  Uiso   1.00
C6321  C     0.00501   0.50501   0.29496   0.00000  Uiso   1.00
H6322  H     0.15352   0.65352   0.89942   0.00000  Uiso   1.00
H6323  H     0.14239   0.64239   0.87913   0.00000  Uiso   1.00
H6324  H     0.17853   0.67853   0.87191   0.00000  Uiso   1.00
H6325  H     0.16739   0.66739   0.85170   0.00000  Uiso   1.00
H6326  H     0.00963   0.50963   0.30412   0.00000  Uiso   1.00
C6327  C     0.15658   0.15658   0.38903   0.00000  Uiso   1.00
C6328  C     0.15027   0.15027   0.37755   0.00000  Uiso   1.00
C6329  C     0.17065   0.17065   0.37355   0.00000  Uiso   1.00
C6330  C     0.16434   0.16434   0.36209   0.00000  Uiso   1.00
C6331  C     0.00501   0.00501   0.79496   0.00000  Uiso   1.00
H6332  H     0.15352   0.15352   0.39942   0.00000  Uiso   1.00
H6333  H     0.14239   0.14239   0.37913   0.00000  Uiso   1.00
H6334  H     0.17853   0.17853   0.37191   0.00000  Uiso   1.00
H6335  H     0.16739   0.16739   0.35170   0.00000  Uiso   1.00
H6336  H     0.00963   0.00963   0.80412   0.00000  Uiso   1.00
C6337  C     0.34342   0.84342   0.88903   0.00000  Uiso   1.00
C6338  C     0.34973   0.84973   0.87755   0.00000  Uiso   1.00
C6339  C     0.32935   0.82935   0.87355   0.00000  Uiso   1.00
C6340  C     0.33566   0.83566   0.86209   0.00000  Uiso   1.00
C6341  C     0.49499   0.99499   0.29496   0.00000  Uiso   1.00
H6342  H     0.34648   0.84648   0.89942   0.00000  Uiso   1.00
H6343  H     0.35761   0.85761   0.87913   0.00000  Uiso   1.00
H6344  H     0.32147   0.82147   0.87191   0.00000  Uiso   1.00
H6345  H     0.33261   0.83261   0.85170   0.00000  Uiso   1.00
H6346  H     0.49037   0.99037   0.30412   0.00000  Uiso   1.00
C6347  C     0.34342   0.34342   0.38903   0.00000  Uiso   1.00
C6348  C     0.34973   0.34973   0.37755   0.00000  Uiso   1.00
C6349  C     0.32935   0.32935   0.37355   0.00000  Uiso   1.00
C6350  C     0.33566   0.33566   0.36209   0.00000  Uiso   1.00
C6351  C     0.49499   0.49499   0.79496   0.00000  Uiso   1.00
H6352  H     0.34648   0.34648   0.39942   0.00000  Uiso   1.00
H6353  H     0.35761   0.35761   0.37913   0.00000  Uiso   1.00
H6354  H     0.32147   0.32147   0.37191   0.00000  Uiso   1.00
H6355  H     0.33261   0.33261   0.35170   0.00000  Uiso   1.00
H6356  H     0.49037   0.49037   0.80412   0.00000  Uiso   1.00
C6357  C     0.84342   0.15658   0.61097   0.00000  Uiso   1.00
C6358  C     0.84973   0.15027   0.62245   0.00000  Uiso   1.00
C6359  C     0.82935   0.17065   0.62645   0.00000  Uiso   1.00
C6360  C     0.83566   0.16434   0.63791   0.00000  Uiso   1.00
C6361  C     0.99499   0.00501   0.20504   0.00000  Uiso   1.00
H6362  H     0.84648   0.15352   0.60058   0.00000  Uiso   1.00
H6363  H     0.85761   0.14239   0.62087   0.00000  Uiso   1.00
H6364  H     0.82147   0.17853   0.62809   0.00000  Uiso   1.00
H6365  H     0.83261   0.16739   0.64830   0.00000  Uiso   1.00
H6366  H     0.99037   0.00963   0.19588   0.00000  Uiso   1.00
C6367  C     0.84342   0.65658   0.11097   0.00000  Uiso   1.00
C6368  C     0.84973   0.65027   0.12245   0.00000  Uiso   1.00
C6369  C     0.82935   0.67065   0.12645   0.00000  Uiso   1.00
C6370  C     0.83566   0.66434   0.13791   0.00000  Uiso   1.00
C6371  C     0.99499   0.50501   0.70504   0.00000  Uiso   1.00
H6372  H     0.84648   0.65352   0.10058   0.00000  Uiso   1.00
H6373  H     0.85761   0.64239   0.12087   0.00000  Uiso   1.00
H6374  H     0.82147   0.67853   0.12809   0.00000  Uiso   1.00
H6375  H     0.83261   0.66739   0.14830   0.00000  Uiso   1.00
H6376  H     0.99037   0.50963   0.69588   0.00000  Uiso   1.00
C6377  C     0.61097   0.15658   0.84342   0.00000  Uiso   1.00
C6378  C     0.62245   0.15027   0.84973   0.00000  Uiso   1.00
C6379  C     0.62645   0.17065   0.82935   0.00000  Uiso   1.00
C6380  C     0.63791   0.16434   0.83566   0.00000  Uiso   1.00
C6381  C     0.20504   0.00501   0.99499   0.00000  Uiso   1.00
H6382  H     0.60058   0.15352   0.84648   0.00000  Uiso   1.00
H6383  H     0.62087   0.14239   0.85761   0.00000  Uiso   1.00
H6384  H     0.62809   0.17853   0.82147   0.00000  Uiso   1.00
H6385  H     0.64830   0.16739   0.83261   0.00000  Uiso   1.00
H6386  H     0.19588   0.00963   0.99037   0.00000  Uiso   1.00
C6387  C     0.61097   0.65658   0.34342   0.00000  Uiso   1.00
C6388  C     0.62245   0.65027   0.34973   0.00000  Uiso   1.00
C6389  C     0.62645   0.67065   0.32935   0.00000  Uiso   1.00
C6390  C     0.63791   0.66434   0.33566   0.00000  Uiso   1.00
C6391  C     0.20504   0.50501   0.49499   0.00000  Uiso   1.00
H6392  H     0.60058   0.65352   0.34648   0.00000  Uiso   1.00
H6393  H     0.62087   0.64239   0.35761   0.00000  Uiso   1.00
H6394  H     0.62809   0.67853   0.32147   0.00000  Uiso   1.00
H6395  H     0.64830   0.66739   0.33261   0.00000  Uiso   1.00
H6396  H     0.19588   0.50963   0.49037   0.00000  Uiso   1.00
C6397  C     0.88903   0.84342   0.34342   0.00000  Uiso   1.00
C6398  C     0.87755   0.84973   0.34973   0.00000  Uiso   1.00
C6399  C     0.87355   0.82935   0.32935   0.00000  Uiso   1.00
C6400  C     0.86209   0.83566   0.33566   0.00000  Uiso   1.00
C6401  C     0.29496   0.99499   0.49499   0.00000  Uiso   1.00
H6402  H     0.89942   0.84648   0.34648   0.00000  Uiso   1.00
H6403  H     0.87913   0.85761   0.35761   0.00000  Uiso   1.00
H6404  H     0.87191   0.82147   0.32147   0.00000  Uiso   1.00
H6405  H     0.85170   0.83261   0.33261   0.00000  Uiso   1.00
H6406  H     0.30412   0.99037   0.49037   0.00000  Uiso   1.00
C6407  C     0.38903   0.84342   0.84342   0.00000  Uiso   1.00
C6408  C     0.37755   0.84973   0.84973   0.00000  Uiso   1.00
C6409  C     0.37355   0.82935   0.82935   0.00000  Uiso   1.00
C6410  C     0.36209   0.83566   0.83566   0.00000  Uiso   1.00
C6411  C     0.79496   0.99499   0.99499   0.00000  Uiso   1.00
H6412  H     0.39942   0.84648   0.84648   0.00000  Uiso   1.00
H6413  H     0.37913   0.85761   0.85761   0.00000  Uiso   1.00
H6414  H     0.37191   0.82147   0.82147   0.00000  Uiso   1.00
H6415  H     0.35170   0.83261   0.83261   0.00000  Uiso   1.00
H6416  H     0.80412   0.99037   0.99037   0.00000  Uiso   1.00
C6417  C     0.11097   0.34342   0.15658   0.00000  Uiso   1.00
C6418  C     0.12245   0.34973   0.15027   0.00000  Uiso   1.00
C6419  C     0.12645   0.32935   0.17065   0.00000  Uiso   1.00
C6420  C     0.13791   0.33566   0.16434   0.00000  Uiso   1.00
C6421  C     0.70504   0.49499   0.00501   0.00000  Uiso   1.00
H6422  H     0.10058   0.34648   0.15352   0.00000  Uiso   1.00
H6423  H     0.12087   0.35761   0.14239   0.00000  Uiso   1.00
H6424  H     0.12809   0.32147   0.17853   0.00000  Uiso   1.00
H6425  H     0.14830   0.33261   0.16739   0.00000  Uiso   1.00
H6426  H     0.69588   0.49037   0.00963   0.00000  Uiso   1.00
C6427  C     0.11097   0.84342   0.65658   0.00000  Uiso   1.00
C6428  C     0.12245   0.84973   0.65027   0.00000  Uiso   1.00
C6429  C     0.12645   0.82935   0.67065   0.00000  Uiso   1.00
C6430  C     0.13791   0.83566   0.66434   0.00000  Uiso   1.00
C6431  C     0.70504   0.99499   0.50501   0.00000  Uiso   1.00
H6432  H     0.10058   0.84648   0.65352   0.00000  Uiso   1.00
H6433  H     0.12087   0.85761   0.64239   0.00000  Uiso   1.00
H6434  H     0.12809   0.82147   0.67853   0.00000  Uiso   1.00
H6435  H     0.14830   0.83261   0.66739   0.00000  Uiso   1.00
H6436  H     0.69588   0.99037   0.50963   0.00000  Uiso   1.00
C6437  C     0.84342   0.61097   0.15658   0.00000  Uiso   1.00
C6438  C     0.84973   0.62245   0.15027   0.00000  Uiso   1.00
C6439  C     0.82935   0.62645   0.17065   0.00000  Uiso   1.00
C6440  C     0.83566   0.63791   0.16434   0.00000  Uiso   1.00
C6441  C     0.99499   0.20504   0.00501   0.00000  Uiso   1.00
H6442  H     0.84648   0.60058   0.15352   0.00000  Uiso   1.00
H6443  H     0.85761   0.62087   0.14239   0.00000  Uiso   1.00
H6444  H     0.82147   0.62809   0.17853   0.00000  Uiso   1.00
H6445  H     0.83261   0.64830   0.16739   0.00000  Uiso   1.00
H6446  H     0.99037   0.19588   0.00963   0.00000  Uiso   1.00
C6447  C     0.84342   0.11097   0.65658   0.00000  Uiso   1.00
C6448  C     0.84973   0.12245   0.65027   0.00000  Uiso   1.00
C6449  C     0.82935   0.12645   0.67065   0.00000  Uiso   1.00
C6450  C     0.83566   0.13791   0.66434   0.00000  Uiso   1.00
C6451  C     0.99499   0.70504   0.50501   0.00000  Uiso   1.00
H6452  H     0.84648   0.10058   0.65352   0.00000  Uiso   1.00
H6453  H     0.85761   0.12087   0.64239   0.00000  Uiso   1.00
H6454  H     0.82147   0.12809   0.67853   0.00000  Uiso   1.00
H6455  H     0.83261   0.14830   0.66739   0.00000  Uiso   1.00
H6456  H     0.99037   0.69588   0.50963   0.00000  Uiso   1.00
C6457  C     0.34342   0.88903   0.84342   0.00000  Uiso   1.00
C6458  C     0.34973   0.87755   0.84973   0.00000  Uiso   1.00
C6459  C     0.32935   0.87355   0.82935   0.00000  Uiso   1.00
C6460  C     0.33566   0.86209   0.83566   0.00000  Uiso   1.00
C6461  C     0.49499   0.29496   0.99499   0.00000  Uiso   1.00
H6462  H     0.34648   0.89942   0.84648   0.00000  Uiso   1.00
H6463  H     0.35761   0.87913   0.85761   0.00000  Uiso   1.00
H6464  H     0.32147   0.87191   0.82147   0.00000  Uiso   1.00
H6465  H     0.33261   0.85170   0.83261   0.00000  Uiso   1.00
H6466  H     0.49037   0.30412   0.99037   0.00000  Uiso   1.00
C6467  C     0.34342   0.38903   0.34342   0.00000  Uiso   1.00
C6468  C     0.34973   0.37755   0.34973   0.00000  Uiso   1.00
C6469  C     0.32935   0.37355   0.32935   0.00000  Uiso   1.00
C6470  C     0.33566   0.36209   0.33566   0.00000  Uiso   1.00
C6471  C     0.49499   0.79496   0.49499   0.00000  Uiso   1.00
H6472  H     0.34648   0.39942   0.34648   0.00000  Uiso   1.00
H6473  H     0.35761   0.37913   0.35761   0.00000  Uiso   1.00
H6474  H     0.32147   0.37191   0.32147   0.00000  Uiso   1.00
H6475  H     0.33261   0.35170   0.33261   0.00000  Uiso   1.00
H6476  H     0.49037   0.80412   0.49037   0.00000  Uiso   1.00
C6477  C     0.15658   0.11097   0.34342   0.00000  Uiso   1.00
C6478  C     0.15027   0.12245   0.34973   0.00000  Uiso   1.00
C6479  C     0.17065   0.12645   0.32935   0.00000  Uiso   1.00
C6480  C     0.16434   0.13791   0.33566   0.00000  Uiso   1.00
C6481  C     0.00501   0.70504   0.49499   0.00000  Uiso   1.00
H6482  H     0.15352   0.10058   0.34648   0.00000  Uiso   1.00
H6483  H     0.14239   0.12087   0.35761   0.00000  Uiso   1.00
H6484  H     0.17853   0.12809   0.32147   0.00000  Uiso   1.00
H6485  H     0.16739   0.14830   0.33261   0.00000  Uiso   1.00
H6486  H     0.00963   0.69588   0.49037   0.00000  Uiso   1.00
C6487  C     0.65658   0.11097   0.84342   0.00000  Uiso   1.00
C6488  C     0.65027   0.12245   0.84973   0.00000  Uiso   1.00
C6489  C     0.67065   0.12645   0.82935   0.00000  Uiso   1.00
C6490  C     0.66434   0.13791   0.83566   0.00000  Uiso   1.00
C6491  C     0.50501   0.70504   0.99499   0.00000  Uiso   1.00
H6492  H     0.65352   0.10058   0.84648   0.00000  Uiso   1.00
H6493  H     0.64239   0.12087   0.85761   0.00000  Uiso   1.00
H6494  H     0.67853   0.12809   0.82147   0.00000  Uiso   1.00
H6495  H     0.66739   0.14830   0.83261   0.00000  Uiso   1.00
H6496  H     0.50963   0.69588   0.99037   0.00000  Uiso   1.00
C6497  C     0.15658   0.84342   0.61097   0.00000  Uiso   1.00
C6498  C     0.15027   0.84973   0.62245   0.00000  Uiso   1.00
C6499  C     0.17065   0.82935   0.62645   0.00000  Uiso   1.00
C6500  C     0.16434   0.83566   0.63791   0.00000  Uiso   1.00
C6501  C     0.00501   0.99499   0.20504   0.00000  Uiso   1.00
H6502  H     0.15352   0.84648   0.60058   0.00000  Uiso   1.00
H6503  H     0.14239   0.85761   0.62087   0.00000  Uiso   1.00
H6504  H     0.17853   0.82147   0.62809   0.00000  Uiso   1.00
H6505  H     0.16739   0.83261   0.64830   0.00000  Uiso   1.00
H6506  H     0.00963   0.99037   0.19588   0.00000  Uiso   1.00
C6507  C     0.65658   0.84342   0.11097   0.00000  Uiso   1.00
C6508  C     0.65027   0.84973   0.12245   0.00000  Uiso   1.00
C6509  C     0.67065   0.82935   0.12645   0.00000  Uiso   1.00
C6510  C     0.66434   0.83566   0.13791   0.00000  Uiso   1.00
C6511  C     0.50501   0.99499   0.70504   0.00000  Uiso   1.00
H6512  H     0.65352   0.84648   0.10058   0.00000  Uiso   1.00
H6513  H     0.64239   0.85761   0.12087   0.00000  Uiso   1.00
H6514  H     0.67853   0.82147   0.12809   0.00000  Uiso   1.00
H6515  H     0.66739   0.83261   0.14830   0.00000  Uiso   1.00
H6516  H     0.50963   0.99037   0.69588   0.00000  Uiso   1.00
C6517  C     0.84342   0.34342   0.88903   0.00000  Uiso   1.00
C6518  C     0.84973   0.34973   0.87755   0.00000  Uiso   1.00
C6519  C     0.82935   0.32935   0.87355   0.00000  Uiso   1.00
C6520  C     0.83566   0.33566   0.86209   0.00000  Uiso   1.00
C6521  C     0.99499   0.49499   0.29496   0.00000  Uiso   1.00
H6522  H     0.84648   0.34648   0.89942   0.00000  Uiso   1.00
H6523  H     0.85761   0.35761   0.87913   0.00000  Uiso   1.00
H6524  H     0.82147   0.32147   0.87191   0.00000  Uiso   1.00
H6525  H     0.83261   0.33261   0.85170   0.00000  Uiso   1.00
H6526  H     0.99037   0.49037   0.30412   0.00000  Uiso   1.00
C6527  C     0.84342   0.84342   0.38903   0.00000  Uiso   1.00
C6528  C     0.84973   0.84973   0.37755   0.00000  Uiso   1.00
C6529  C     0.82935   0.82935   0.37355   0.00000  Uiso   1.00
C6530  C     0.83566   0.83566   0.36209   0.00000  Uiso   1.00
C6531  C     0.99499   0.99499   0.79496   0.00000  Uiso   1.00
H6532  H     0.84648   0.84648   0.39942   0.00000  Uiso   1.00
H6533  H     0.85761   0.85761   0.37913   0.00000  Uiso   1.00
H6534  H     0.82147   0.82147   0.37191   0.00000  Uiso   1.00
H6535  H     0.83261   0.83261   0.35170   0.00000  Uiso   1.00
H6536  H     0.99037   0.99037   0.80412   0.00000  Uiso   1.00
C6537  C     0.34342   0.15658   0.11097   0.00000  Uiso   1.00
C6538  C     0.34973   0.15027   0.12245   0.00000  Uiso   1.00
C6539  C     0.32935   0.17065   0.12645   0.00000  Uiso   1.00
C6540  C     0.33566   0.16434   0.13791   0.00000  Uiso   1.00
C6541  C     0.49499   0.00501   0.70504   0.00000  Uiso   1.00
H6542  H     0.34648   0.15352   0.10058   0.00000  Uiso   1.00
H6543  H     0.35761   0.14239   0.12087   0.00000  Uiso   1.00
H6544  H     0.32147   0.17853   0.12809   0.00000  Uiso   1.00
H6545  H     0.33261   0.16739   0.14830   0.00000  Uiso   1.00
H6546  H     0.49037   0.00963   0.69588   0.00000  Uiso   1.00
C6547  C     0.34342   0.65658   0.61097   0.00000  Uiso   1.00
C6548  C     0.34973   0.65027   0.62245   0.00000  Uiso   1.00
C6549  C     0.32935   0.67065   0.62645   0.00000  Uiso   1.00
C6550  C     0.33566   0.66434   0.63791   0.00000  Uiso   1.00
C6551  C     0.49499   0.50501   0.20504   0.00000  Uiso   1.00
H6552  H     0.34648   0.65352   0.60058   0.00000  Uiso   1.00
H6553  H     0.35761   0.64239   0.62087   0.00000  Uiso   1.00
H6554  H     0.32147   0.67853   0.62809   0.00000  Uiso   1.00
H6555  H     0.33261   0.66739   0.64830   0.00000  Uiso   1.00
H6556  H     0.49037   0.50963   0.19588   0.00000  Uiso   1.00
C6557  C     0.40658   0.36097   0.90658   0.00000  Uiso   1.00
C6558  C     0.40027   0.37245   0.90027   0.00000  Uiso   1.00
C6559  C     0.42065   0.37645   0.92065   0.00000  Uiso   1.00
C6560  C     0.41434   0.38791   0.91434   0.00000  Uiso   1.00
C6561  C     0.25501   0.95504   0.75501   0.00000  Uiso   1.00
H6562  H     0.40352   0.35058   0.90352   0.00000  Uiso   1.00
H6563  H     0.39239   0.37087   0.89239   0.00000  Uiso   1.00
H6564  H     0.42853   0.37809   0.92853   0.00000  Uiso   1.00
H6565  H     0.41739   0.39830   0.91739   0.00000  Uiso   1.00
H6566  H     0.25963   0.94588   0.75963   0.00000  Uiso   1.00
C6567  C     0.40658   0.86097   0.40658   0.00000  Uiso   1.00
C6568  C     0.40027   0.87245   0.40027   0.00000  Uiso   1.00
C6569  C     0.42065   0.87645   0.42065   0.00000  Uiso   1.00
C6570  C     0.41434   0.88791   0.41434   0.00000  Uiso   1.00
C6571  C     0.25501   0.45504   0.25501   0.00000  Uiso   1.00
H6572  H     0.40352   0.85058   0.40352   0.00000  Uiso   1.00
H6573  H     0.39239   0.87087   0.39239   0.00000  Uiso   1.00
H6574  H     0.42853   0.87809   0.42853   0.00000  Uiso   1.00
H6575  H     0.41739   0.89830   0.41739   0.00000  Uiso   1.00
H6576  H     0.25963   0.44588   0.25963   0.00000  Uiso   1.00
C6577  C     0.09342   0.63903   0.40658   0.00000  Uiso   1.00
C6578  C     0.09973   0.62755   0.40027   0.00000  Uiso   1.00
C6579  C     0.07935   0.62355   0.42065   0.00000  Uiso   1.00
C6580  C     0.08566   0.61209   0.41434   0.00000  Uiso   1.00
C6581  C     0.24499   0.04496   0.25501   0.00000  Uiso   1.00
H6582  H     0.09648   0.64942   0.40352   0.00000  Uiso   1.00
H6583  H     0.10761   0.62913   0.39239   0.00000  Uiso   1.00
H6584  H     0.07147   0.62191   0.42853   0.00000  Uiso   1.00
H6585  H     0.08261   0.60170   0.41739   0.00000  Uiso   1.00
H6586  H     0.24037   0.05412   0.25963   0.00000  Uiso   1.00
C6587  C     0.59342   0.63903   0.90658   0.00000  Uiso   1.00
C6588  C     0.59973   0.62755   0.90027   0.00000  Uiso   1.00
C6589  C     0.57935   0.62355   0.92065   0.00000  Uiso   1.00
C6590  C     0.58566   0.61209   0.91434   0.00000  Uiso   1.00
C6591  C     0.74499   0.04496   0.75501   0.00000  Uiso   1.00
H6592  H     0.59648   0.64942   0.90352   0.00000  Uiso   1.00
H6593  H     0.60761   0.62913   0.89239   0.00000  Uiso   1.00
H6594  H     0.57147   0.62191   0.92853   0.00000  Uiso   1.00
H6595  H     0.58261   0.60170   0.91739   0.00000  Uiso   1.00
H6596  H     0.74037   0.05412   0.75963   0.00000  Uiso   1.00
C6597  C     0.90658   0.13903   0.09342   0.00000  Uiso   1.00
C6598  C     0.90027   0.12755   0.09973   0.00000  Uiso   1.00
C6599  C     0.92065   0.12355   0.07935   0.00000  Uiso   1.00
C6600  C     0.91434   0.11209   0.08566   0.00000  Uiso   1.00
C6601  C     0.75501   0.54496   0.24499   0.00000  Uiso   1.00
H6602  H     0.90352   0.14942   0.09648   0.00000  Uiso   1.00
H6603  H     0.89239   0.12913   0.10761   0.00000  Uiso   1.00
H6604  H     0.92853   0.12191   0.07147   0.00000  Uiso   1.00
H6605  H     0.91739   0.10170   0.08261   0.00000  Uiso   1.00
H6606  H     0.75963   0.55412   0.24037   0.00000  Uiso   1.00
C6607  C     0.90658   0.63903   0.59342   0.00000  Uiso   1.00
C6608  C     0.90027   0.62755   0.59973   0.00000  Uiso   1.00
C6609  C     0.92065   0.62355   0.57935   0.00000  Uiso   1.00
C6610  C     0.91434   0.61209   0.58566   0.00000  Uiso   1.00
C6611  C     0.75501   0.04496   0.74499   0.00000  Uiso   1.00
H6612  H     0.90352   0.64942   0.59648   0.00000  Uiso   1.00
H6613  H     0.89239   0.62913   0.60761   0.00000  Uiso   1.00
H6614  H     0.92853   0.62191   0.57147   0.00000  Uiso   1.00
H6615  H     0.91739   0.60170   0.58261   0.00000  Uiso   1.00
H6616  H     0.75963   0.05412   0.74037   0.00000  Uiso   1.00
C6617  C     0.13903   0.09342   0.90658   0.00000  Uiso   1.00
C6618  C     0.12755   0.09973   0.90027   0.00000  Uiso   1.00
C6619  C     0.12355   0.07935   0.92065   0.00000  Uiso   1.00
C6620  C     0.11209   0.08566   0.91434   0.00000  Uiso   1.00
C6621  C     0.54496   0.24499   0.75501   0.00000  Uiso   1.00
H6622  H     0.14942   0.09648   0.90352   0.00000  Uiso   1.00
H6623  H     0.12913   0.10761   0.89239   0.00000  Uiso   1.00
H6624  H     0.12191   0.07147   0.92853   0.00000  Uiso   1.00
H6625  H     0.10170   0.08261   0.91739   0.00000  Uiso   1.00
H6626  H     0.55412   0.24037   0.75963   0.00000  Uiso   1.00
C6627  C     0.13903   0.59342   0.40658   0.00000  Uiso   1.00
C6628  C     0.12755   0.59973   0.40027   0.00000  Uiso   1.00
C6629  C     0.12355   0.57935   0.42065   0.00000  Uiso   1.00
C6630  C     0.11209   0.58566   0.41434   0.00000  Uiso   1.00
C6631  C     0.54496   0.74499   0.25501   0.00000  Uiso   1.00
H6632  H     0.14942   0.59648   0.40352   0.00000  Uiso   1.00
H6633  H     0.12913   0.60761   0.39239   0.00000  Uiso   1.00
H6634  H     0.12191   0.57147   0.42853   0.00000  Uiso   1.00
H6635  H     0.10170   0.58261   0.41739   0.00000  Uiso   1.00
H6636  H     0.55412   0.74037   0.25963   0.00000  Uiso   1.00
C6637  C     0.63903   0.40658   0.09342   0.00000  Uiso   1.00
C6638  C     0.62755   0.40027   0.09973   0.00000  Uiso   1.00
C6639  C     0.62355   0.42065   0.07935   0.00000  Uiso   1.00
C6640  C     0.61209   0.41434   0.08566   0.00000  Uiso   1.00
C6641  C     0.04496   0.25501   0.24499   0.00000  Uiso   1.00
H6642  H     0.64942   0.40352   0.09648   0.00000  Uiso   1.00
H6643  H     0.62913   0.39239   0.10761   0.00000  Uiso   1.00
H6644  H     0.62191   0.42853   0.07147   0.00000  Uiso   1.00
H6645  H     0.60170   0.41739   0.08261   0.00000  Uiso   1.00
H6646  H     0.05412   0.25963   0.24037   0.00000  Uiso   1.00
C6647  C     0.63903   0.90658   0.59342   0.00000  Uiso   1.00
C6648  C     0.62755   0.90027   0.59973   0.00000  Uiso   1.00
C6649  C     0.62355   0.92065   0.57935   0.00000  Uiso   1.00
C6650  C     0.61209   0.91434   0.58566   0.00000  Uiso   1.00
C6651  C     0.04496   0.75501   0.74499   0.00000  Uiso   1.00
H6652  H     0.64942   0.90352   0.59648   0.00000  Uiso   1.00
H6653  H     0.62913   0.89239   0.60761   0.00000  Uiso   1.00
H6654  H     0.62191   0.92853   0.57147   0.00000  Uiso   1.00
H6655  H     0.60170   0.91739   0.58261   0.00000  Uiso   1.00
H6656  H     0.05412   0.75963   0.74037   0.00000  Uiso   1.00
C6657  C     0.36097   0.90658   0.40658   0.00000  Uiso   1.00
C6658  C     0.37245   0.90027   0.40027   0.00000  Uiso   1.00
C6659  C     0.37645   0.92065   0.42065   0.00000  Uiso   1.00
C6660  C     0.38791   0.91434   0.41434   0.00000  Uiso   1.00
C6661  C     0.95504   0.75501   0.25501   0.00000  Uiso   1.00
H6662  H     0.35058   0.90352   0.40352   0.00000  Uiso   1.00
H6663  H     0.37087   0.89239   0.39239   0.00000  Uiso   1.00
H6664  H     0.37809   0.92853   0.42853   0.00000  Uiso   1.00
H6665  H     0.39830   0.91739   0.41739   0.00000  Uiso   1.00
H6666  H     0.94588   0.75963   0.25963   0.00000  Uiso   1.00
C6667  C     0.86097   0.90658   0.90658   0.00000  Uiso   1.00
C6668  C     0.87245   0.90027   0.90027   0.00000  Uiso   1.00
C6669  C     0.87645   0.92065   0.92065   0.00000  Uiso   1.00
C6670  C     0.88791   0.91434   0.91434   0.00000  Uiso   1.00
C6671  C     0.45504   0.75501   0.75501   0.00000  Uiso   1.00
H6672  H     0.85058   0.90352   0.90352   0.00000  Uiso   1.00
H6673  H     0.87087   0.89239   0.89239   0.00000  Uiso   1.00
H6674  H     0.87809   0.92853   0.92853   0.00000  Uiso   1.00
H6675  H     0.89830   0.91739   0.91739   0.00000  Uiso   1.00
H6676  H     0.44588   0.75963   0.75963   0.00000  Uiso   1.00
C6677  C     0.09342   0.90658   0.13903   0.00000  Uiso   1.00
C6678  C     0.09973   0.90027   0.12755   0.00000  Uiso   1.00
C6679  C     0.07935   0.92065   0.12355   0.00000  Uiso   1.00
C6680  C     0.08566   0.91434   0.11209   0.00000  Uiso   1.00
C6681  C     0.24499   0.75501   0.54496   0.00000  Uiso   1.00
H6682  H     0.09648   0.90352   0.14942   0.00000  Uiso   1.00
H6683  H     0.10761   0.89239   0.12913   0.00000  Uiso   1.00
H6684  H     0.07147   0.92853   0.12191   0.00000  Uiso   1.00
H6685  H     0.08261   0.91739   0.10170   0.00000  Uiso   1.00
H6686  H     0.24037   0.75963   0.55412   0.00000  Uiso   1.00
C6687  C     0.59342   0.90658   0.63903   0.00000  Uiso   1.00
C6688  C     0.59973   0.90027   0.62755   0.00000  Uiso   1.00
C6689  C     0.57935   0.92065   0.62355   0.00000  Uiso   1.00
C6690  C     0.58566   0.91434   0.61209   0.00000  Uiso   1.00
C6691  C     0.74499   0.75501   0.04496   0.00000  Uiso   1.00
H6692  H     0.59648   0.90352   0.64942   0.00000  Uiso   1.00
H6693  H     0.60761   0.89239   0.62913   0.00000  Uiso   1.00
H6694  H     0.57147   0.92853   0.62191   0.00000  Uiso   1.00
H6695  H     0.58261   0.91739   0.60170   0.00000  Uiso   1.00
H6696  H     0.74037   0.75963   0.05412   0.00000  Uiso   1.00
C6697  C     0.90658   0.40658   0.36097   0.00000  Uiso   1.00
C6698  C     0.90027   0.40027   0.37245   0.00000  Uiso   1.00
C6699  C     0.92065   0.42065   0.37645   0.00000  Uiso   1.00
C6700  C     0.91434   0.41434   0.38791   0.00000  Uiso   1.00
C6701  C     0.75501   0.25501   0.95504   0.00000  Uiso   1.00
H6702  H     0.90352   0.40352   0.35058   0.00000  Uiso   1.00
H6703  H     0.89239   0.39239   0.37087   0.00000  Uiso   1.00
H6704  H     0.92853   0.42853   0.37809   0.00000  Uiso   1.00
H6705  H     0.91739   0.41739   0.39830   0.00000  Uiso   1.00
H6706  H     0.75963   0.25963   0.94588   0.00000  Uiso   1.00
C6707  C     0.90658   0.90658   0.86097   0.00000  Uiso   1.00
C6708  C     0.90027   0.90027   0.87245   0.00000  Uiso   1.00
C6709  C     0.92065   0.92065   0.87645   0.00000  Uiso   1.00
C6710  C     0.91434   0.91434   0.88791   0.00000  Uiso   1.00
C6711  C     0.75501   0.75501   0.45504   0.00000  Uiso   1.00
H6712  H     0.90352   0.90352   0.85058   0.00000  Uiso   1.00
H6713  H     0.89239   0.89239   0.87087   0.00000  Uiso   1.00
H6714  H     0.92853   0.92853   0.87809   0.00000  Uiso   1.00
H6715  H     0.91739   0.91739   0.89830   0.00000  Uiso   1.00
H6716  H     0.75963   0.75963   0.44588   0.00000  Uiso   1.00
C6717  C     0.40658   0.09342   0.63903   0.00000  Uiso   1.00
C6718  C     0.40027   0.09973   0.62755   0.00000  Uiso   1.00
C6719  C     0.42065   0.07935   0.62355   0.00000  Uiso   1.00
C6720  C     0.41434   0.08566   0.61209   0.00000  Uiso   1.00
C6721  C     0.25501   0.24499   0.04496   0.00000  Uiso   1.00
H6722  H     0.40352   0.09648   0.64942   0.00000  Uiso   1.00
H6723  H     0.39239   0.10761   0.62913   0.00000  Uiso   1.00
H6724  H     0.42853   0.07147   0.62191   0.00000  Uiso   1.00
H6725  H     0.41739   0.08261   0.60170   0.00000  Uiso   1.00
H6726  H     0.25963   0.24037   0.05412   0.00000  Uiso   1.00
C6727  C     0.40658   0.59342   0.13903   0.00000  Uiso   1.00
C6728  C     0.40027   0.59973   0.12755   0.00000  Uiso   1.00
C6729  C     0.42065   0.57935   0.12355   0.00000  Uiso   1.00
C6730  C     0.41434   0.58566   0.11209   0.00000  Uiso   1.00
C6731  C     0.25501   0.74499   0.54496   0.00000  Uiso   1.00
H6732  H     0.40352   0.59648   0.14942   0.00000  Uiso   1.00
H6733  H     0.39239   0.60761   0.12913   0.00000  Uiso   1.00
H6734  H     0.42853   0.57147   0.12191   0.00000  Uiso   1.00
H6735  H     0.41739   0.58261   0.10170   0.00000  Uiso   1.00
H6736  H     0.25963   0.74037   0.55412   0.00000  Uiso   1.00
C6737  C     0.66172   0.66172   0.63371   0.00000  Uiso   1.00
C6738  C     0.66812   0.66812   0.62234   0.00000  Uiso   1.00
C6739  C     0.68205   0.68205   0.63806   0.00000  Uiso   1.00
C6740  C     0.67565   0.67565   0.64941   0.00000  Uiso   1.00
H6741  H     0.65385   0.65385   0.63200   0.00000  Uiso   1.00
H6742  H     0.66515   0.66515   0.61190   0.00000  Uiso   1.00
H6743  H     0.68992   0.68992   0.63984   0.00000  Uiso   1.00
H6744  H     0.67862   0.67862   0.65985   0.00000  Uiso   1.00
C6745  C     0.66172   0.16172   0.13371   0.00000  Uiso   1.00
C6746  C     0.66812   0.16812   0.12234   0.00000  Uiso   1.00
C6747  C     0.68205   0.18205   0.13806   0.00000  Uiso   1.00
C6748  C     0.67565   0.17565   0.14941   0.00000  Uiso   1.00
H6749  H     0.65385   0.15385   0.13200   0.00000  Uiso   1.00
H6750  H     0.66515   0.16515   0.11190   0.00000  Uiso   1.00
H6751  H     0.68992   0.18992   0.13984   0.00000  Uiso   1.00
H6752  H     0.67862   0.17862   0.15985   0.00000  Uiso   1.00
C6753  C     0.16172   0.66172   0.13371   0.00000  Uiso   1.00
C6754  C     0.16812   0.66812   0.12234   0.00000  Uiso   1.00
C6755  C     0.18205   0.68205   0.13806   0.00000  Uiso   1.00
C6756  C     0.17565   0.67565   0.14941   0.00000  Uiso   1.00
H6757  H     0.15385   0.65385   0.13200   0.00000  Uiso   1.00
H6758  H     0.16515   0.66515   0.11190   0.00000  Uiso   1.00
H6759  H     0.18992   0.68992   0.13984   0.00000  Uiso   1.00
H6760  H     0.17862   0.67862   0.15985   0.00000  Uiso   1.00
C6761  C     0.16172   0.16172   0.63371   0.00000  Uiso   1.00
C6762  C     0.16812   0.16812   0.62234   0.00000  Uiso   1.00
C6763  C     0.18205   0.18205   0.63806   0.00000  Uiso   1.00
C6764  C     0.17565   0.17565   0.64941   0.00000  Uiso   1.00
H6765  H     0.15385   0.15385   0.63200   0.00000  Uiso   1.00
H6766  H     0.16515   0.16515   0.61190   0.00000  Uiso   1.00
H6767  H     0.18992   0.18992   0.63984   0.00000  Uiso   1.00
H6768  H     0.17862   0.17862   0.65985   0.00000  Uiso   1.00
C6769  C     0.33828   0.83828   0.13371   0.00000  Uiso   1.00
C6770  C     0.33188   0.83188   0.12234   0.00000  Uiso   1.00
C6771  C     0.31795   0.81795   0.13806   0.00000  Uiso   1.00
C6772  C     0.32435   0.82435   0.14941   0.00000  Uiso   1.00
H6773  H     0.34615   0.84615   0.13200   0.00000  Uiso   1.00
H6774  H     0.33485   0.83485   0.11190   0.00000  Uiso   1.00
H6775  H     0.31008   0.81008   0.13984   0.00000  Uiso   1.00
H6776  H     0.32138   0.82138   0.15985   0.00000  Uiso   1.00
C6777  C     0.33828   0.33828   0.63371   0.00000  Uiso   1.00
C6778  C     0.33188   0.33188   0.62234   0.00000  Uiso   1.00
C6779  C     0.31795   0.31795   0.63806   0.00000  Uiso   1.00
C6780  C     0.32435   0.32435   0.64941   0.00000  Uiso   1.00
H6781  H     0.34615   0.34615   0.63200   0.00000  Uiso   1.00
H6782  H     0.33485   0.33485   0.61190   0.00000  Uiso   1.00
H6783  H     0.31008   0.31008   0.63984   0.00000  Uiso   1.00
H6784  H     0.32138   0.32138   0.65985   0.00000  Uiso   1.00
C6785  C     0.83828   0.83828   0.63371   0.00000  Uiso   1.00
C6786  C     0.83188   0.83188   0.62234   0.00000  Uiso   1.00
C6787  C     0.81795   0.81795   0.63806   0.00000  Uiso   1.00
C6788  C     0.82435   0.82435   0.64941   0.00000  Uiso   1.00
H6789  H     0.84615   0.84615   0.63200   0.00000  Uiso   1.00
H6790  H     0.83485   0.83485   0.61190   0.00000  Uiso   1.00
H6791  H     0.81008   0.81008   0.63984   0.00000  Uiso   1.00
H6792  H     0.82138   0.82138   0.65985   0.00000  Uiso   1.00
C6793  C     0.83828   0.16172   0.36629   0.00000  Uiso   1.00
C6794  C     0.83188   0.16812   0.37766   0.00000  Uiso   1.00
C6795  C     0.81795   0.18205   0.36194   0.00000  Uiso   1.00
C6796  C     0.82435   0.17565   0.35059   0.00000  Uiso   1.00
H6797  H     0.84615   0.15385   0.36800   0.00000  Uiso   1.00
H6798  H     0.83485   0.16515   0.38810   0.00000  Uiso   1.00
H6799  H     0.81008   0.18992   0.36016   0.00000  Uiso   1.00
H6800  H     0.82138   0.17862   0.34015   0.00000  Uiso   1.00
C6801  C     0.83828   0.66172   0.86629   0.00000  Uiso   1.00
C6802  C     0.83188   0.66812   0.87766   0.00000  Uiso   1.00
C6803  C     0.81795   0.68205   0.86194   0.00000  Uiso   1.00
C6804  C     0.82435   0.67565   0.85059   0.00000  Uiso   1.00
H6805  H     0.84615   0.65385   0.86800   0.00000  Uiso   1.00
H6806  H     0.83485   0.66515   0.88810   0.00000  Uiso   1.00
H6807  H     0.81008   0.68992   0.86016   0.00000  Uiso   1.00
H6808  H     0.82138   0.67862   0.84015   0.00000  Uiso   1.00
C6809  C     0.16172   0.33828   0.86629   0.00000  Uiso   1.00
C6810  C     0.16812   0.33188   0.87766   0.00000  Uiso   1.00
C6811  C     0.18205   0.31795   0.86194   0.00000  Uiso   1.00
C6812  C     0.17565   0.32435   0.85059   0.00000  Uiso   1.00
H6813  H     0.15385   0.34615   0.86800   0.00000  Uiso   1.00
H6814  H     0.16515   0.33485   0.88810   0.00000  Uiso   1.00
H6815  H     0.18992   0.31008   0.86016   0.00000  Uiso   1.00
H6816  H     0.17862   0.32138   0.84015   0.00000  Uiso   1.00
C6817  C     0.66172   0.33828   0.36629   0.00000  Uiso   1.00
C6818  C     0.66812   0.33188   0.37766   0.00000  Uiso   1.00
C6819  C     0.68205   0.31795   0.36194   0.00000  Uiso   1.00
C6820  C     0.67565   0.32435   0.35059   0.00000  Uiso   1.00
H6821  H     0.65385   0.34615   0.36800   0.00000  Uiso   1.00
H6822  H     0.66515   0.33485   0.38810   0.00000  Uiso   1.00
H6823  H     0.68992   0.31008   0.36016   0.00000  Uiso   1.00
H6824  H     0.67862   0.32138   0.34015   0.00000  Uiso   1.00
C6825  C     0.66172   0.83828   0.86629   0.00000  Uiso   1.00
C6826  C     0.66812   0.83188   0.87766   0.00000  Uiso   1.00
C6827  C     0.68205   0.81795   0.86194   0.00000  Uiso   1.00
C6828  C     0.67565   0.82435   0.85059   0.00000  Uiso   1.00
H6829  H     0.65385   0.84615   0.86800   0.00000  Uiso   1.00
H6830  H     0.66515   0.83485   0.88810   0.00000  Uiso   1.00
H6831  H     0.68992   0.81008   0.86016   0.00000  Uiso   1.00
H6832  H     0.67862   0.82138   0.84015   0.00000  Uiso   1.00
C6833  C     0.63371   0.66172   0.66172   0.00000  Uiso   1.00
C6834  C     0.62234   0.66812   0.66812   0.00000  Uiso   1.00
C6835  C     0.63806   0.68205   0.68205   0.00000  Uiso   1.00
C6836  C     0.64941   0.67565   0.67565   0.00000  Uiso   1.00
H6837  H     0.63200   0.65385   0.65385   0.00000  Uiso   1.00
H6838  H     0.61190   0.66515   0.66515   0.00000  Uiso   1.00
H6839  H     0.63984   0.68992   0.68992   0.00000  Uiso   1.00
H6840  H     0.65985   0.67862   0.67862   0.00000  Uiso   1.00
C6841  C     0.63371   0.16172   0.16172   0.00000  Uiso   1.00
C6842  C     0.62234   0.16812   0.16812   0.00000  Uiso   1.00
C6843  C     0.63806   0.18205   0.18205   0.00000  Uiso   1.00
C6844  C     0.64941   0.17565   0.17565   0.00000  Uiso   1.00
H6845  H     0.63200   0.15385   0.15385   0.00000  Uiso   1.00
H6846  H     0.61190   0.16515   0.16515   0.00000  Uiso   1.00
H6847  H     0.63984   0.18992   0.18992   0.00000  Uiso   1.00
H6848  H     0.65985   0.17862   0.17862   0.00000  Uiso   1.00
C6849  C     0.13371   0.66172   0.16172   0.00000  Uiso   1.00
C6850  C     0.12234   0.66812   0.16812   0.00000  Uiso   1.00
C6851  C     0.13806   0.68205   0.18205   0.00000  Uiso   1.00
C6852  C     0.14941   0.67565   0.17565   0.00000  Uiso   1.00
H6853  H     0.13200   0.65385   0.15385   0.00000  Uiso   1.00
H6854  H     0.11190   0.66515   0.16515   0.00000  Uiso   1.00
H6855  H     0.13984   0.68992   0.18992   0.00000  Uiso   1.00
H6856  H     0.15985   0.67862   0.17862   0.00000  Uiso   1.00
C6857  C     0.13371   0.16172   0.66172   0.00000  Uiso   1.00
C6858  C     0.12234   0.16812   0.66812   0.00000  Uiso   1.00
C6859  C     0.13806   0.18205   0.68205   0.00000  Uiso   1.00
C6860  C     0.14941   0.17565   0.67565   0.00000  Uiso   1.00
H6861  H     0.13200   0.15385   0.65385   0.00000  Uiso   1.00
H6862  H     0.11190   0.16515   0.66515   0.00000  Uiso   1.00
H6863  H     0.13984   0.18992   0.68992   0.00000  Uiso   1.00
H6864  H     0.15985   0.17862   0.67862   0.00000  Uiso   1.00
C6865  C     0.13371   0.33828   0.83828   0.00000  Uiso   1.00
C6866  C     0.12234   0.33188   0.83188   0.00000  Uiso   1.00
C6867  C     0.13806   0.31795   0.81795   0.00000  Uiso   1.00
C6868  C     0.14941   0.32435   0.82435   0.00000  Uiso   1.00
H6869  H     0.13200   0.34615   0.84615   0.00000  Uiso   1.00
H6870  H     0.11190   0.33485   0.83485   0.00000  Uiso   1.00
H6871  H     0.13984   0.31008   0.81008   0.00000  Uiso   1.00
H6872  H     0.15985   0.32138   0.82138   0.00000  Uiso   1.00
C6873  C     0.63371   0.33828   0.33828   0.00000  Uiso   1.00
C6874  C     0.62234   0.33188   0.33188   0.00000  Uiso   1.00
C6875  C     0.63806   0.31795   0.31795   0.00000  Uiso   1.00
C6876  C     0.64941   0.32435   0.32435   0.00000  Uiso   1.00
H6877  H     0.63200   0.34615   0.34615   0.00000  Uiso   1.00
H6878  H     0.61190   0.33485   0.33485   0.00000  Uiso   1.00
H6879  H     0.63984   0.31008   0.31008   0.00000  Uiso   1.00
H6880  H     0.65985   0.32138   0.32138   0.00000  Uiso   1.00
C6881  C     0.63371   0.83828   0.83828   0.00000  Uiso   1.00
C6882  C     0.62234   0.83188   0.83188   0.00000  Uiso   1.00
C6883  C     0.63806   0.81795   0.81795   0.00000  Uiso   1.00
C6884  C     0.64941   0.82435   0.82435   0.00000  Uiso   1.00
H6885  H     0.63200   0.84615   0.84615   0.00000  Uiso   1.00
H6886  H     0.61190   0.83485   0.83485   0.00000  Uiso   1.00
H6887  H     0.63984   0.81008   0.81008   0.00000  Uiso   1.00
H6888  H     0.65985   0.82138   0.82138   0.00000  Uiso   1.00
C6889  C     0.36629   0.83828   0.16172   0.00000  Uiso   1.00
C6890  C     0.37766   0.83188   0.16812   0.00000  Uiso   1.00
C6891  C     0.36194   0.81795   0.18205   0.00000  Uiso   1.00
C6892  C     0.35059   0.82435   0.17565   0.00000  Uiso   1.00
H6893  H     0.36800   0.84615   0.15385   0.00000  Uiso   1.00
H6894  H     0.38810   0.83485   0.16515   0.00000  Uiso   1.00
H6895  H     0.36016   0.81008   0.18992   0.00000  Uiso   1.00
H6896  H     0.34015   0.82138   0.17862   0.00000  Uiso   1.00
C6897  C     0.36629   0.33828   0.66172   0.00000  Uiso   1.00
C6898  C     0.37766   0.33188   0.66812   0.00000  Uiso   1.00
C6899  C     0.36194   0.31795   0.68205   0.00000  Uiso   1.00
C6900  C     0.35059   0.32435   0.67565   0.00000  Uiso   1.00
H6901  H     0.36800   0.34615   0.65385   0.00000  Uiso   1.00
H6902  H     0.38810   0.33485   0.66515   0.00000  Uiso   1.00
H6903  H     0.36016   0.31008   0.68992   0.00000  Uiso   1.00
H6904  H     0.34015   0.32138   0.67862   0.00000  Uiso   1.00
C6905  C     0.86629   0.83828   0.66172   0.00000  Uiso   1.00
C6906  C     0.87766   0.83188   0.66812   0.00000  Uiso   1.00
C6907  C     0.86194   0.81795   0.68205   0.00000  Uiso   1.00
C6908  C     0.85059   0.82435   0.67565   0.00000  Uiso   1.00
H6909  H     0.86800   0.84615   0.65385   0.00000  Uiso   1.00
H6910  H     0.88810   0.83485   0.66515   0.00000  Uiso   1.00
H6911  H     0.86016   0.81008   0.68992   0.00000  Uiso   1.00
H6912  H     0.84015   0.82138   0.67862   0.00000  Uiso   1.00
C6913  C     0.86629   0.16172   0.33828   0.00000  Uiso   1.00
C6914  C     0.87766   0.16812   0.33188   0.00000  Uiso   1.00
C6915  C     0.86194   0.18205   0.31795   0.00000  Uiso   1.00
C6916  C     0.85059   0.17565   0.32435   0.00000  Uiso   1.00
H6917  H     0.86800   0.15385   0.34615   0.00000  Uiso   1.00
H6918  H     0.88810   0.16515   0.33485   0.00000  Uiso   1.00
H6919  H     0.86016   0.18992   0.31008   0.00000  Uiso   1.00
H6920  H     0.84015   0.17862   0.32138   0.00000  Uiso   1.00
C6921  C     0.86629   0.66172   0.83828   0.00000  Uiso   1.00
C6922  C     0.87766   0.66812   0.83188   0.00000  Uiso   1.00
C6923  C     0.86194   0.68205   0.81795   0.00000  Uiso   1.00
C6924  C     0.85059   0.67565   0.82435   0.00000  Uiso   1.00
H6925  H     0.86800   0.65385   0.84615   0.00000  Uiso   1.00
H6926  H     0.88810   0.66515   0.83485   0.00000  Uiso   1.00
H6927  H     0.86016   0.68992   0.81008   0.00000  Uiso   1.00
H6928  H     0.84015   0.67862   0.82138   0.00000  Uiso   1.00
C6929  C     0.66172   0.63371   0.66172   0.00000  Uiso   1.00
C6930  C     0.66812   0.62234   0.66812   0.00000  Uiso   1.00
C6931  C     0.68205   0.63806   0.68205   0.00000  Uiso   1.00
C6932  C     0.67565   0.64941   0.67565   0.00000  Uiso   1.00
H6933  H     0.65385   0.63200   0.65385   0.00000  Uiso   1.00
H6934  H     0.66515   0.61190   0.66515   0.00000  Uiso   1.00
H6935  H     0.68992   0.63984   0.68992   0.00000  Uiso   1.00
H6936  H     0.67862   0.65985   0.67862   0.00000  Uiso   1.00
C6937  C     0.66172   0.13371   0.16172   0.00000  Uiso   1.00
C6938  C     0.66812   0.12234   0.16812   0.00000  Uiso   1.00
C6939  C     0.68205   0.13806   0.18205   0.00000  Uiso   1.00
C6940  C     0.67565   0.14941   0.17565   0.00000  Uiso   1.00
H6941  H     0.65385   0.13200   0.15385   0.00000  Uiso   1.00
H6942  H     0.66515   0.11190   0.16515   0.00000  Uiso   1.00
H6943  H     0.68992   0.13984   0.18992   0.00000  Uiso   1.00
H6944  H     0.67862   0.15985   0.17862   0.00000  Uiso   1.00
C6945  C     0.16172   0.63371   0.16172   0.00000  Uiso   1.00
C6946  C     0.16812   0.62234   0.16812   0.00000  Uiso   1.00
C6947  C     0.18205   0.63806   0.18205   0.00000  Uiso   1.00
C6948  C     0.17565   0.64941   0.17565   0.00000  Uiso   1.00
H6949  H     0.15385   0.63200   0.15385   0.00000  Uiso   1.00
H6950  H     0.16515   0.61190   0.16515   0.00000  Uiso   1.00
H6951  H     0.18992   0.63984   0.18992   0.00000  Uiso   1.00
H6952  H     0.17862   0.65985   0.17862   0.00000  Uiso   1.00
C6953  C     0.16172   0.13371   0.66172   0.00000  Uiso   1.00
C6954  C     0.16812   0.12234   0.66812   0.00000  Uiso   1.00
C6955  C     0.18205   0.13806   0.68205   0.00000  Uiso   1.00
C6956  C     0.17565   0.14941   0.67565   0.00000  Uiso   1.00
H6957  H     0.15385   0.13200   0.65385   0.00000  Uiso   1.00
H6958  H     0.16515   0.11190   0.66515   0.00000  Uiso   1.00
H6959  H     0.18992   0.13984   0.68992   0.00000  Uiso   1.00
H6960  H     0.17862   0.15985   0.67862   0.00000  Uiso   1.00
C6961  C     0.83828   0.13371   0.33828   0.00000  Uiso   1.00
C6962  C     0.83188   0.12234   0.33188   0.00000  Uiso   1.00
C6963  C     0.81795   0.13806   0.31795   0.00000  Uiso   1.00
C6964  C     0.82435   0.14941   0.32435   0.00000  Uiso   1.00
H6965  H     0.84615   0.13200   0.34615   0.00000  Uiso   1.00
H6966  H     0.83485   0.11190   0.33485   0.00000  Uiso   1.00
H6967  H     0.81008   0.13984   0.31008   0.00000  Uiso   1.00
H6968  H     0.82138   0.15985   0.32138   0.00000  Uiso   1.00
C6969  C     0.83828   0.63371   0.83828   0.00000  Uiso   1.00
C6970  C     0.83188   0.62234   0.83188   0.00000  Uiso   1.00
C6971  C     0.81795   0.63806   0.81795   0.00000  Uiso   1.00
C6972  C     0.82435   0.64941   0.82435   0.00000  Uiso   1.00
H6973  H     0.84615   0.63200   0.84615   0.00000  Uiso   1.00
H6974  H     0.83485   0.61190   0.83485   0.00000  Uiso   1.00
H6975  H     0.81008   0.63984   0.81008   0.00000  Uiso   1.00
H6976  H     0.82138   0.65985   0.82138   0.00000  Uiso   1.00
C6977  C     0.16172   0.36629   0.83828   0.00000  Uiso   1.00
C6978  C     0.16812   0.37766   0.83188   0.00000  Uiso   1.00
C6979  C     0.18205   0.36194   0.81795   0.00000  Uiso   1.00
C6980  C     0.17565   0.35059   0.82435   0.00000  Uiso   1.00
H6981  H     0.15385   0.36800   0.84615   0.00000  Uiso   1.00
H6982  H     0.16515   0.38810   0.83485   0.00000  Uiso   1.00
H6983  H     0.18992   0.36016   0.81008   0.00000  Uiso   1.00
H6984  H     0.17862   0.34015   0.82138   0.00000  Uiso   1.00
C6985  C     0.66172   0.36629   0.33828   0.00000  Uiso   1.00
C6986  C     0.66812   0.37766   0.33188   0.00000  Uiso   1.00
C6987  C     0.68205   0.36194   0.31795   0.00000  Uiso   1.00
C6988  C     0.67565   0.35059   0.32435   0.00000  Uiso   1.00
H6989  H     0.65385   0.36800   0.34615   0.00000  Uiso   1.00
H6990  H     0.66515   0.38810   0.33485   0.00000  Uiso   1.00
H6991  H     0.68992   0.36016   0.31008   0.00000  Uiso   1.00
H6992  H     0.67862   0.34015   0.32138   0.00000  Uiso   1.00
C6993  C     0.66172   0.86629   0.83828   0.00000  Uiso   1.00
C6994  C     0.66812   0.87766   0.83188   0.00000  Uiso   1.00
C6995  C     0.68205   0.86194   0.81795   0.00000  Uiso   1.00
C6996  C     0.67565   0.85059   0.82435   0.00000  Uiso   1.00
H6997  H     0.65385   0.86800   0.84615   0.00000  Uiso   1.00
H6998  H     0.66515   0.88810   0.83485   0.00000  Uiso   1.00
H6999  H     0.68992   0.86016   0.81008   0.00000  Uiso   1.00
H7000  H     0.67862   0.84015   0.82138   0.00000  Uiso   1.00
C7001  C     0.33828   0.86629   0.16172   0.00000  Uiso   1.00
C7002  C     0.33188   0.87766   0.16812   0.00000  Uiso   1.00
C7003  C     0.31795   0.86194   0.18205   0.00000  Uiso   1.00
C7004  C     0.32435   0.85059   0.17565   0.00000  Uiso   1.00
H7005  H     0.34615   0.86800   0.15385   0.00000  Uiso   1.00
H7006  H     0.33485   0.88810   0.16515   0.00000  Uiso   1.00
H7007  H     0.31008   0.86016   0.18992   0.00000  Uiso   1.00
H7008  H     0.32138   0.84015   0.17862   0.00000  Uiso   1.00
C7009  C     0.33828   0.36629   0.66172   0.00000  Uiso   1.00
C7010  C     0.33188   0.37766   0.66812   0.00000  Uiso   1.00
C7011  C     0.31795   0.36194   0.68205   0.00000  Uiso   1.00
C7012  C     0.32435   0.35059   0.67565   0.00000  Uiso   1.00
H7013  H     0.34615   0.36800   0.65385   0.00000  Uiso   1.00
H7014  H     0.33485   0.38810   0.66515   0.00000  Uiso   1.00
H7015  H     0.31008   0.36016   0.68992   0.00000  Uiso   1.00
H7016  H     0.32138   0.34015   0.67862   0.00000  Uiso   1.00
C7017  C     0.83828   0.86629   0.66172   0.00000  Uiso   1.00
C7018  C     0.83188   0.87766   0.66812   0.00000  Uiso   1.00
C7019  C     0.81795   0.86194   0.68205   0.00000  Uiso   1.00
C7020  C     0.82435   0.85059   0.67565   0.00000  Uiso   1.00
H7021  H     0.84615   0.86800   0.65385   0.00000  Uiso   1.00
H7022  H     0.83485   0.88810   0.66515   0.00000  Uiso   1.00
H7023  H     0.81008   0.86016   0.68992   0.00000  Uiso   1.00
H7024  H     0.82138   0.84015   0.67862   0.00000  Uiso   1.00
C7025  C     0.41172   0.91172   0.11629   0.00000  Uiso   1.00
C7026  C     0.41812   0.91812   0.12766   0.00000  Uiso   1.00
C7027  C     0.43205   0.93205   0.11194   0.00000  Uiso   1.00
C7028  C     0.42565   0.92565   0.10059   0.00000  Uiso   1.00
H7029  H     0.40385   0.90385   0.11800   0.00000  Uiso   1.00
H7030  H     0.41515   0.91515   0.13810   0.00000  Uiso   1.00
H7031  H     0.43992   0.93992   0.11016   0.00000  Uiso   1.00
H7032  H     0.42862   0.92862   0.09015   0.00000  Uiso   1.00
C7033  C     0.41172   0.41172   0.61629   0.00000  Uiso   1.00
C7034  C     0.41812   0.41812   0.62766   0.00000  Uiso   1.00
C7035  C     0.43205   0.43205   0.61194   0.00000  Uiso   1.00
C7036  C     0.42565   0.42565   0.60059   0.00000  Uiso   1.00
H7037  H     0.40385   0.40385   0.61800   0.00000  Uiso   1.00
H7038  H     0.41515   0.41515   0.63810   0.00000  Uiso   1.00
H7039  H     0.43992   0.43992   0.61016   0.00000  Uiso   1.00
H7040  H     0.42862   0.42862   0.59015   0.00000  Uiso   1.00
C7041  C     0.58828   0.58828   0.61629   0.00000  Uiso   1.00
C7042  C     0.58188   0.58188   0.62766   0.00000  Uiso   1.00
C7043  C     0.56795   0.56795   0.61194   0.00000  Uiso   1.00
C7044  C     0.57435   0.57435   0.60059   0.00000  Uiso   1.00
H7045  H     0.59615   0.59615   0.61800   0.00000  Uiso   1.00
H7046  H     0.58485   0.58485   0.63810   0.00000  Uiso   1.00
H7047  H     0.56008   0.56008   0.61016   0.00000  Uiso   1.00
H7048  H     0.57138   0.57138   0.59015   0.00000  Uiso   1.00
C7049  C     0.58828   0.08828   0.11629   0.00000  Uiso   1.00
C7050  C     0.58188   0.08188   0.12766   0.00000  Uiso   1.00
C7051  C     0.56795   0.06795   0.11194   0.00000  Uiso   1.00
C7052  C     0.57435   0.07435   0.10059   0.00000  Uiso   1.00
H7053  H     0.59615   0.09615   0.11800   0.00000  Uiso   1.00
H7054  H     0.58485   0.08485   0.13810   0.00000  Uiso   1.00
H7055  H     0.56008   0.06008   0.11016   0.00000  Uiso   1.00
H7056  H     0.57138   0.07138   0.09015   0.00000  Uiso   1.00
C7057  C     0.08828   0.58828   0.11629   0.00000  Uiso   1.00
C7058  C     0.08188   0.58188   0.12766   0.00000  Uiso   1.00
C7059  C     0.06795   0.56795   0.11194   0.00000  Uiso   1.00
C7060  C     0.07435   0.57435   0.10059   0.00000  Uiso   1.00
H7061  H     0.09615   0.59615   0.11800   0.00000  Uiso   1.00
H7062  H     0.08485   0.58485   0.13810   0.00000  Uiso   1.00
H7063  H     0.06008   0.56008   0.11016   0.00000  Uiso   1.00
H7064  H     0.07138   0.57138   0.09015   0.00000  Uiso   1.00
C7065  C     0.08828   0.08828   0.61629   0.00000  Uiso   1.00
C7066  C     0.08188   0.08188   0.62766   0.00000  Uiso   1.00
C7067  C     0.06795   0.06795   0.61194   0.00000  Uiso   1.00
C7068  C     0.07435   0.07435   0.60059   0.00000  Uiso   1.00
H7069  H     0.09615   0.09615   0.61800   0.00000  Uiso   1.00
H7070  H     0.08485   0.08485   0.63810   0.00000  Uiso   1.00
H7071  H     0.06008   0.06008   0.61016   0.00000  Uiso   1.00
H7072  H     0.07138   0.07138   0.59015   0.00000  Uiso   1.00
C7073  C     0.91172   0.08828   0.38371   0.00000  Uiso   1.00
C7074  C     0.91812   0.08188   0.37234   0.00000  Uiso   1.00
C7075  C     0.93205   0.06795   0.38806   0.00000  Uiso   1.00
C7076  C     0.92565   0.07435   0.39941   0.00000  Uiso   1.00
H7077  H     0.90385   0.09615   0.38200   0.00000  Uiso   1.00
H7078  H     0.91515   0.08485   0.36190   0.00000  Uiso   1.00
H7079  H     0.93992   0.06008   0.38984   0.00000  Uiso   1.00
H7080  H     0.92862   0.07138   0.40985   0.00000  Uiso   1.00
C7081  C     0.91172   0.58828   0.88371   0.00000  Uiso   1.00
C7082  C     0.91812   0.58188   0.87234   0.00000  Uiso   1.00
C7083  C     0.93205   0.56795   0.88806   0.00000  Uiso   1.00
C7084  C     0.92565   0.57435   0.89941   0.00000  Uiso   1.00
H7085  H     0.90385   0.59615   0.88200   0.00000  Uiso   1.00
H7086  H     0.91515   0.58485   0.86190   0.00000  Uiso   1.00
H7087  H     0.93992   0.56008   0.88984   0.00000  Uiso   1.00
H7088  H     0.92862   0.57138   0.90985   0.00000  Uiso   1.00
C7089  C     0.41172   0.58828   0.38371   0.00000  Uiso   1.00
C7090  C     0.41812   0.58188   0.37234   0.00000  Uiso   1.00
C7091  C     0.43205   0.56795   0.38806   0.00000  Uiso   1.00
C7092  C     0.42565   0.57435   0.39941   0.00000  Uiso   1.00
H7093  H     0.40385   0.59615   0.38200   0.00000  Uiso   1.00
H7094  H     0.41515   0.58485   0.36190   0.00000  Uiso   1.00
H7095  H     0.43992   0.56008   0.38984   0.00000  Uiso   1.00
H7096  H     0.42862   0.57138   0.40985   0.00000  Uiso   1.00
C7097  C     0.08828   0.41172   0.88371   0.00000  Uiso   1.00
C7098  C     0.08188   0.41812   0.87234   0.00000  Uiso   1.00
C7099  C     0.06795   0.43205   0.88806   0.00000  Uiso   1.00
C7100  C     0.07435   0.42565   0.89941   0.00000  Uiso   1.00
H7101  H     0.09615   0.40385   0.88200   0.00000  Uiso   1.00
H7102  H     0.08485   0.41515   0.86190   0.00000  Uiso   1.00
H7103  H     0.06008   0.43992   0.88984   0.00000  Uiso   1.00
H7104  H     0.07138   0.42862   0.90985   0.00000  Uiso   1.00
C7105  C     0.58828   0.41172   0.38371   0.00000  Uiso   1.00
C7106  C     0.58188   0.41812   0.37234   0.00000  Uiso   1.00
C7107  C     0.56795   0.43205   0.38806   0.00000  Uiso   1.00
C7108  C     0.57435   0.42565   0.39941   0.00000  Uiso   1.00
H7109  H     0.59615   0.40385   0.38200   0.00000  Uiso   1.00
H7110  H     0.58485   0.41515   0.36190   0.00000  Uiso   1.00
H7111  H     0.56008   0.43992   0.38984   0.00000  Uiso   1.00
H7112  H     0.57138   0.42862   0.40985   0.00000  Uiso   1.00
C7113  C     0.41172   0.88371   0.08828   0.00000  Uiso   1.00
C7114  C     0.41812   0.87234   0.08188   0.00000  Uiso   1.00
C7115  C     0.43205   0.88806   0.06795   0.00000  Uiso   1.00
C7116  C     0.42565   0.89941   0.07435   0.00000  Uiso   1.00
H7117  H     0.40385   0.88200   0.09615   0.00000  Uiso   1.00
H7118  H     0.41515   0.86190   0.08485   0.00000  Uiso   1.00
H7119  H     0.43992   0.88984   0.06008   0.00000  Uiso   1.00
H7120  H     0.42862   0.90985   0.07138   0.00000  Uiso   1.00
C7121  C     0.41172   0.38371   0.58828   0.00000  Uiso   1.00
C7122  C     0.41812   0.37234   0.58188   0.00000  Uiso   1.00
C7123  C     0.43205   0.38806   0.56795   0.00000  Uiso   1.00
C7124  C     0.42565   0.39941   0.57435   0.00000  Uiso   1.00
H7125  H     0.40385   0.38200   0.59615   0.00000  Uiso   1.00
H7126  H     0.41515   0.36190   0.58485   0.00000  Uiso   1.00
H7127  H     0.43992   0.38984   0.56008   0.00000  Uiso   1.00
H7128  H     0.42862   0.40985   0.57138   0.00000  Uiso   1.00
C7129  C     0.08828   0.38371   0.91172   0.00000  Uiso   1.00
C7130  C     0.08188   0.37234   0.91812   0.00000  Uiso   1.00
C7131  C     0.06795   0.38806   0.93205   0.00000  Uiso   1.00
C7132  C     0.07435   0.39941   0.92565   0.00000  Uiso   1.00
H7133  H     0.09615   0.38200   0.90385   0.00000  Uiso   1.00
H7134  H     0.08485   0.36190   0.91515   0.00000  Uiso   1.00
H7135  H     0.06008   0.38984   0.93992   0.00000  Uiso   1.00
H7136  H     0.07138   0.40985   0.92862   0.00000  Uiso   1.00
C7137  C     0.58828   0.38371   0.41172   0.00000  Uiso   1.00
C7138  C     0.58188   0.37234   0.41812   0.00000  Uiso   1.00
C7139  C     0.56795   0.38806   0.43205   0.00000  Uiso   1.00
C7140  C     0.57435   0.39941   0.42565   0.00000  Uiso   1.00
H7141  H     0.59615   0.38200   0.40385   0.00000  Uiso   1.00
H7142  H     0.58485   0.36190   0.41515   0.00000  Uiso   1.00
H7143  H     0.56008   0.38984   0.43992   0.00000  Uiso   1.00
H7144  H     0.57138   0.40985   0.42862   0.00000  Uiso   1.00
C7145  C     0.58828   0.61629   0.58828   0.00000  Uiso   1.00
C7146  C     0.58188   0.62766   0.58188   0.00000  Uiso   1.00
C7147  C     0.56795   0.61194   0.56795   0.00000  Uiso   1.00
C7148  C     0.57435   0.60059   0.57435   0.00000  Uiso   1.00
H7149  H     0.59615   0.61800   0.59615   0.00000  Uiso   1.00
H7150  H     0.58485   0.63810   0.58485   0.00000  Uiso   1.00
H7151  H     0.56008   0.61016   0.56008   0.00000  Uiso   1.00
H7152  H     0.57138   0.59015   0.57138   0.00000  Uiso   1.00
C7153  C     0.58828   0.11629   0.08828   0.00000  Uiso   1.00
C7154  C     0.58188   0.12766   0.08188   0.00000  Uiso   1.00
C7155  C     0.56795   0.11194   0.06795   0.00000  Uiso   1.00
C7156  C     0.57435   0.10059   0.07435   0.00000  Uiso   1.00
H7157  H     0.59615   0.11800   0.09615   0.00000  Uiso   1.00
H7158  H     0.58485   0.13810   0.08485   0.00000  Uiso   1.00
H7159  H     0.56008   0.11016   0.06008   0.00000  Uiso   1.00
H7160  H     0.57138   0.09015   0.07138   0.00000  Uiso   1.00
C7161  C     0.08828   0.61629   0.08828   0.00000  Uiso   1.00
C7162  C     0.08188   0.62766   0.08188   0.00000  Uiso   1.00
C7163  C     0.06795   0.61194   0.06795   0.00000  Uiso   1.00
C7164  C     0.07435   0.60059   0.07435   0.00000  Uiso   1.00
H7165  H     0.09615   0.61800   0.09615   0.00000  Uiso   1.00
H7166  H     0.08485   0.63810   0.08485   0.00000  Uiso   1.00
H7167  H     0.06008   0.61016   0.06008   0.00000  Uiso   1.00
H7168  H     0.07138   0.59015   0.07138   0.00000  Uiso   1.00
C7169  C     0.08828   0.11629   0.58828   0.00000  Uiso   1.00
C7170  C     0.08188   0.12766   0.58188   0.00000  Uiso   1.00
C7171  C     0.06795   0.11194   0.56795   0.00000  Uiso   1.00
C7172  C     0.07435   0.10059   0.57435   0.00000  Uiso   1.00
H7173  H     0.09615   0.11800   0.59615   0.00000  Uiso   1.00
H7174  H     0.08485   0.13810   0.58485   0.00000  Uiso   1.00
H7175  H     0.06008   0.11016   0.56008   0.00000  Uiso   1.00
H7176  H     0.07138   0.09015   0.57138   0.00000  Uiso   1.00
C7177  C     0.91172   0.11629   0.41172   0.00000  Uiso   1.00
C7178  C     0.91812   0.12766   0.41812   0.00000  Uiso   1.00
C7179  C     0.93205   0.11194   0.43205   0.00000  Uiso   1.00
C7180  C     0.92565   0.10059   0.42565   0.00000  Uiso   1.00
H7181  H     0.90385   0.11800   0.40385   0.00000  Uiso   1.00
H7182  H     0.91515   0.13810   0.41515   0.00000  Uiso   1.00
H7183  H     0.93992   0.11016   0.43992   0.00000  Uiso   1.00
H7184  H     0.92862   0.09015   0.42862   0.00000  Uiso   1.00
C7185  C     0.91172   0.61629   0.91172   0.00000  Uiso   1.00
C7186  C     0.91812   0.62766   0.91812   0.00000  Uiso   1.00
C7187  C     0.93205   0.61194   0.93205   0.00000  Uiso   1.00
C7188  C     0.92565   0.60059   0.92565   0.00000  Uiso   1.00
H7189  H     0.90385   0.61800   0.90385   0.00000  Uiso   1.00
H7190  H     0.91515   0.63810   0.91515   0.00000  Uiso   1.00
H7191  H     0.93992   0.61016   0.93992   0.00000  Uiso   1.00
H7192  H     0.92862   0.59015   0.92862   0.00000  Uiso   1.00
C7193  C     0.41172   0.61629   0.41172   0.00000  Uiso   1.00
C7194  C     0.41812   0.62766   0.41812   0.00000  Uiso   1.00
C7195  C     0.43205   0.61194   0.43205   0.00000  Uiso   1.00
C7196  C     0.42565   0.60059   0.42565   0.00000  Uiso   1.00
H7197  H     0.40385   0.61800   0.40385   0.00000  Uiso   1.00
H7198  H     0.41515   0.63810   0.41515   0.00000  Uiso   1.00
H7199  H     0.43992   0.61016   0.43992   0.00000  Uiso   1.00
H7200  H     0.42862   0.59015   0.42862   0.00000  Uiso   1.00
C7201  C     0.38371   0.91172   0.08828   0.00000  Uiso   1.00
C7202  C     0.37234   0.91812   0.08188   0.00000  Uiso   1.00
C7203  C     0.38806   0.93205   0.06795   0.00000  Uiso   1.00
C7204  C     0.39941   0.92565   0.07435   0.00000  Uiso   1.00
H7205  H     0.38200   0.90385   0.09615   0.00000  Uiso   1.00
H7206  H     0.36190   0.91515   0.08485   0.00000  Uiso   1.00
H7207  H     0.38984   0.93992   0.06008   0.00000  Uiso   1.00
H7208  H     0.40985   0.92862   0.07138   0.00000  Uiso   1.00
C7209  C     0.38371   0.41172   0.58828   0.00000  Uiso   1.00
C7210  C     0.37234   0.41812   0.58188   0.00000  Uiso   1.00
C7211  C     0.38806   0.43205   0.56795   0.00000  Uiso   1.00
C7212  C     0.39941   0.42565   0.57435   0.00000  Uiso   1.00
H7213  H     0.38200   0.40385   0.59615   0.00000  Uiso   1.00
H7214  H     0.36190   0.41515   0.58485   0.00000  Uiso   1.00
H7215  H     0.38984   0.43992   0.56008   0.00000  Uiso   1.00
H7216  H     0.40985   0.42862   0.57138   0.00000  Uiso   1.00
C7217  C     0.88371   0.08828   0.41172   0.00000  Uiso   1.00
C7218  C     0.87234   0.08188   0.41812   0.00000  Uiso   1.00
C7219  C     0.88806   0.06795   0.43205   0.00000  Uiso   1.00
C7220  C     0.89941   0.07435   0.42565   0.00000  Uiso   1.00
H7221  H     0.88200   0.09615   0.40385   0.00000  Uiso   1.00
H7222  H     0.86190   0.08485   0.41515   0.00000  Uiso   1.00
H7223  H     0.88984   0.06008   0.43992   0.00000  Uiso   1.00
H7224  H     0.90985   0.07138   0.42862   0.00000  Uiso   1.00
C7225  C     0.88371   0.58828   0.91172   0.00000  Uiso   1.00
C7226  C     0.87234   0.58188   0.91812   0.00000  Uiso   1.00
C7227  C     0.88806   0.56795   0.93205   0.00000  Uiso   1.00
C7228  C     0.89941   0.57435   0.92565   0.00000  Uiso   1.00
H7229  H     0.88200   0.59615   0.90385   0.00000  Uiso   1.00
H7230  H     0.86190   0.58485   0.91515   0.00000  Uiso   1.00
H7231  H     0.88984   0.56008   0.93992   0.00000  Uiso   1.00
H7232  H     0.90985   0.57138   0.92862   0.00000  Uiso   1.00
C7233  C     0.38371   0.58828   0.41172   0.00000  Uiso   1.00
C7234  C     0.37234   0.58188   0.41812   0.00000  Uiso   1.00
C7235  C     0.38806   0.56795   0.43205   0.00000  Uiso   1.00
C7236  C     0.39941   0.57435   0.42565   0.00000  Uiso   1.00
H7237  H     0.38200   0.59615   0.40385   0.00000  Uiso   1.00
H7238  H     0.36190   0.58485   0.41515   0.00000  Uiso   1.00
H7239  H     0.38984   0.56008   0.43992   0.00000  Uiso   1.00
H7240  H     0.40985   0.57138   0.42862   0.00000  Uiso   1.00
C7241  C     0.11629   0.41172   0.91172   0.00000  Uiso   1.00
C7242  C     0.12766   0.41812   0.91812   0.00000  Uiso   1.00
C7243  C     0.11194   0.43205   0.93205   0.00000  Uiso   1.00
C7244  C     0.10059   0.42565   0.92565   0.00000  Uiso   1.00
H7245  H     0.11800   0.40385   0.90385   0.00000  Uiso   1.00
H7246  H     0.13810   0.41515   0.91515   0.00000  Uiso   1.00
H7247  H     0.11016   0.43992   0.93992   0.00000  Uiso   1.00
H7248  H     0.09015   0.42862   0.92862   0.00000  Uiso   1.00
C7249  C     0.61629   0.41172   0.41172   0.00000  Uiso   1.00
C7250  C     0.62766   0.41812   0.41812   0.00000  Uiso   1.00
C7251  C     0.61194   0.43205   0.43205   0.00000  Uiso   1.00
C7252  C     0.60059   0.42565   0.42565   0.00000  Uiso   1.00
H7253  H     0.61800   0.40385   0.40385   0.00000  Uiso   1.00
H7254  H     0.63810   0.41515   0.41515   0.00000  Uiso   1.00
H7255  H     0.61016   0.43992   0.43992   0.00000  Uiso   1.00
H7256  H     0.59015   0.42862   0.42862   0.00000  Uiso   1.00
C7257  C     0.61629   0.58828   0.58828   0.00000  Uiso   1.00
C7258  C     0.62766   0.58188   0.58188   0.00000  Uiso   1.00
C7259  C     0.61194   0.56795   0.56795   0.00000  Uiso   1.00
C7260  C     0.60059   0.57435   0.57435   0.00000  Uiso   1.00
H7261  H     0.61800   0.59615   0.59615   0.00000  Uiso   1.00
H7262  H     0.63810   0.58485   0.58485   0.00000  Uiso   1.00
H7263  H     0.61016   0.56008   0.56008   0.00000  Uiso   1.00
H7264  H     0.59015   0.57138   0.57138   0.00000  Uiso   1.00
C7265  C     0.61629   0.08828   0.08828   0.00000  Uiso   1.00
C7266  C     0.62766   0.08188   0.08188   0.00000  Uiso   1.00
C7267  C     0.61194   0.06795   0.06795   0.00000  Uiso   1.00
C7268  C     0.60059   0.07435   0.07435   0.00000  Uiso   1.00
H7269  H     0.61800   0.09615   0.09615   0.00000  Uiso   1.00
H7270  H     0.63810   0.08485   0.08485   0.00000  Uiso   1.00
H7271  H     0.61016   0.06008   0.06008   0.00000  Uiso   1.00
H7272  H     0.59015   0.07138   0.07138   0.00000  Uiso   1.00
C7273  C     0.11629   0.58828   0.08828   0.00000  Uiso   1.00
C7274  C     0.12766   0.58188   0.08188   0.00000  Uiso   1.00
C7275  C     0.11194   0.56795   0.06795   0.00000  Uiso   1.00
C7276  C     0.10059   0.57435   0.07435   0.00000  Uiso   1.00
H7277  H     0.11800   0.59615   0.09615   0.00000  Uiso   1.00
H7278  H     0.13810   0.58485   0.08485   0.00000  Uiso   1.00
H7279  H     0.11016   0.56008   0.06008   0.00000  Uiso   1.00
H7280  H     0.09015   0.57138   0.07138   0.00000  Uiso   1.00
C7281  C     0.11629   0.08828   0.58828   0.00000  Uiso   1.00
C7282  C     0.12766   0.08188   0.58188   0.00000  Uiso   1.00
C7283  C     0.11194   0.06795   0.56795   0.00000  Uiso   1.00
C7284  C     0.10059   0.07435   0.57435   0.00000  Uiso   1.00
H7285  H     0.11800   0.09615   0.59615   0.00000  Uiso   1.00
H7286  H     0.13810   0.08485   0.58485   0.00000  Uiso   1.00
H7287  H     0.11016   0.06008   0.56008   0.00000  Uiso   1.00
H7288  H     0.09015   0.07138   0.57138   0.00000  Uiso   1.00
C7289  C     0.91172   0.41172   0.11629   0.00000  Uiso   1.00
C7290  C     0.91812   0.41812   0.12766   0.00000  Uiso   1.00
C7291  C     0.93205   0.43205   0.11194   0.00000  Uiso   1.00
C7292  C     0.92565   0.42565   0.10059   0.00000  Uiso   1.00
H7293  H     0.90385   0.40385   0.11800   0.00000  Uiso   1.00
H7294  H     0.91515   0.41515   0.13810   0.00000  Uiso   1.00
H7295  H     0.93992   0.43992   0.11016   0.00000  Uiso   1.00
H7296  H     0.92862   0.42862   0.09015   0.00000  Uiso   1.00
C7297  C     0.91172   0.91172   0.61629   0.00000  Uiso   1.00
C7298  C     0.91812   0.91812   0.62766   0.00000  Uiso   1.00
C7299  C     0.93205   0.93205   0.61194   0.00000  Uiso   1.00
C7300  C     0.92565   0.92565   0.60059   0.00000  Uiso   1.00
H7301  H     0.90385   0.90385   0.61800   0.00000  Uiso   1.00
H7302  H     0.91515   0.91515   0.63810   0.00000  Uiso   1.00
H7303  H     0.93992   0.93992   0.61016   0.00000  Uiso   1.00
H7304  H     0.92862   0.92862   0.59015   0.00000  Uiso   1.00
C7305  C     0.41172   0.08828   0.88371   0.00000  Uiso   1.00
C7306  C     0.41812   0.08188   0.87234   0.00000  Uiso   1.00
C7307  C     0.43205   0.06795   0.88806   0.00000  Uiso   1.00
C7308  C     0.42565   0.07435   0.89941   0.00000  Uiso   1.00
H7309  H     0.40385   0.09615   0.88200   0.00000  Uiso   1.00
H7310  H     0.41515   0.08485   0.86190   0.00000  Uiso   1.00
H7311  H     0.43992   0.06008   0.88984   0.00000  Uiso   1.00
H7312  H     0.42862   0.07138   0.90985   0.00000  Uiso   1.00
C7313  C     0.08828   0.91172   0.38371   0.00000  Uiso   1.00
C7314  C     0.08188   0.91812   0.37234   0.00000  Uiso   1.00
C7315  C     0.06795   0.93205   0.38806   0.00000  Uiso   1.00
C7316  C     0.07435   0.92565   0.39941   0.00000  Uiso   1.00
H7317  H     0.09615   0.90385   0.38200   0.00000  Uiso   1.00
H7318  H     0.08485   0.91515   0.36190   0.00000  Uiso   1.00
H7319  H     0.06008   0.93992   0.38984   0.00000  Uiso   1.00
H7320  H     0.07138   0.92862   0.40985   0.00000  Uiso   1.00
C7321  C     0.58828   0.91172   0.88371   0.00000  Uiso   1.00
C7322  C     0.58188   0.91812   0.87234   0.00000  Uiso   1.00
C7323  C     0.56795   0.93205   0.88806   0.00000  Uiso   1.00
C7324  C     0.57435   0.92565   0.89941   0.00000  Uiso   1.00
H7325  H     0.59615   0.90385   0.88200   0.00000  Uiso   1.00
H7326  H     0.58485   0.91515   0.86190   0.00000  Uiso   1.00
H7327  H     0.56008   0.93992   0.88984   0.00000  Uiso   1.00
H7328  H     0.57138   0.92862   0.90985   0.00000  Uiso   1.00
C7329  C     0.11629   0.91172   0.41172   0.00000  Uiso   1.00
C7330  C     0.12766   0.91812   0.41812   0.00000  Uiso   1.00
C7331  C     0.11194   0.93205   0.43205   0.00000  Uiso   1.00
C7332  C     0.10059   0.92565   0.42565   0.00000  Uiso   1.00
H7333  H     0.11800   0.90385   0.40385   0.00000  Uiso   1.00
H7334  H     0.13810   0.91515   0.41515   0.00000  Uiso   1.00
H7335  H     0.11016   0.93992   0.43992   0.00000  Uiso   1.00
H7336  H     0.09015   0.92862   0.42862   0.00000  Uiso   1.00
C7337  C     0.61629   0.91172   0.91172   0.00000  Uiso   1.00
C7338  C     0.62766   0.91812   0.91812   0.00000  Uiso   1.00
C7339  C     0.61194   0.93205   0.93205   0.00000  Uiso   1.00
C7340  C     0.60059   0.92565   0.92565   0.00000  Uiso   1.00
H7341  H     0.61800   0.90385   0.90385   0.00000  Uiso   1.00
H7342  H     0.63810   0.91515   0.91515   0.00000  Uiso   1.00
H7343  H     0.61016   0.93992   0.93992   0.00000  Uiso   1.00
H7344  H     0.59015   0.92862   0.92862   0.00000  Uiso   1.00
C7345  C     0.88371   0.41172   0.08828   0.00000  Uiso   1.00
C7346  C     0.87234   0.41812   0.08188   0.00000  Uiso   1.00
C7347  C     0.88806   0.43205   0.06795   0.00000  Uiso   1.00
C7348  C     0.89941   0.42565   0.07435   0.00000  Uiso   1.00
H7349  H     0.88200   0.40385   0.09615   0.00000  Uiso   1.00
H7350  H     0.86190   0.41515   0.08485   0.00000  Uiso   1.00
H7351  H     0.88984   0.43992   0.06008   0.00000  Uiso   1.00
H7352  H     0.90985   0.42862   0.07138   0.00000  Uiso   1.00
C7353  C     0.88371   0.91172   0.58828   0.00000  Uiso   1.00
C7354  C     0.87234   0.91812   0.58188   0.00000  Uiso   1.00
C7355  C     0.88806   0.93205   0.56795   0.00000  Uiso   1.00
C7356  C     0.89941   0.92565   0.57435   0.00000  Uiso   1.00
H7357  H     0.88200   0.90385   0.59615   0.00000  Uiso   1.00
H7358  H     0.86190   0.91515   0.58485   0.00000  Uiso   1.00
H7359  H     0.88984   0.93992   0.56008   0.00000  Uiso   1.00
H7360  H     0.90985   0.92862   0.57138   0.00000  Uiso   1.00
C7361  C     0.38371   0.08828   0.91172   0.00000  Uiso   1.00
C7362  C     0.37234   0.08188   0.91812   0.00000  Uiso   1.00
C7363  C     0.38806   0.06795   0.93205   0.00000  Uiso   1.00
C7364  C     0.39941   0.07435   0.92565   0.00000  Uiso   1.00
H7365  H     0.38200   0.09615   0.90385   0.00000  Uiso   1.00
H7366  H     0.36190   0.08485   0.91515   0.00000  Uiso   1.00
H7367  H     0.38984   0.06008   0.93992   0.00000  Uiso   1.00
H7368  H     0.40985   0.07138   0.92862   0.00000  Uiso   1.00
C7369  C     0.41172   0.11629   0.91172   0.00000  Uiso   1.00
C7370  C     0.41812   0.12766   0.91812   0.00000  Uiso   1.00
C7371  C     0.43205   0.11194   0.93205   0.00000  Uiso   1.00
C7372  C     0.42565   0.10059   0.92565   0.00000  Uiso   1.00
H7373  H     0.40385   0.11800   0.90385   0.00000  Uiso   1.00
H7374  H     0.41515   0.13810   0.91515   0.00000  Uiso   1.00
H7375  H     0.43992   0.11016   0.93992   0.00000  Uiso   1.00
H7376  H     0.42862   0.09015   0.92862   0.00000  Uiso   1.00
C7377  C     0.08828   0.88371   0.41172   0.00000  Uiso   1.00
C7378  C     0.08188   0.87234   0.41812   0.00000  Uiso   1.00
C7379  C     0.06795   0.88806   0.43205   0.00000  Uiso   1.00
C7380  C     0.07435   0.89941   0.42565   0.00000  Uiso   1.00
H7381  H     0.09615   0.88200   0.40385   0.00000  Uiso   1.00
H7382  H     0.08485   0.86190   0.41515   0.00000  Uiso   1.00
H7383  H     0.06008   0.88984   0.43992   0.00000  Uiso   1.00
H7384  H     0.07138   0.90985   0.42862   0.00000  Uiso   1.00
C7385  C     0.58828   0.88371   0.91172   0.00000  Uiso   1.00
C7386  C     0.58188   0.87234   0.91812   0.00000  Uiso   1.00
C7387  C     0.56795   0.88806   0.93205   0.00000  Uiso   1.00
C7388  C     0.57435   0.89941   0.92565   0.00000  Uiso   1.00
H7389  H     0.59615   0.88200   0.90385   0.00000  Uiso   1.00
H7390  H     0.58485   0.86190   0.91515   0.00000  Uiso   1.00
H7391  H     0.56008   0.88984   0.93992   0.00000  Uiso   1.00
H7392  H     0.57138   0.90985   0.92862   0.00000  Uiso   1.00
C7393  C     0.91172   0.38371   0.08828   0.00000  Uiso   1.00
C7394  C     0.91812   0.37234   0.08188   0.00000  Uiso   1.00
C7395  C     0.93205   0.38806   0.06795   0.00000  Uiso   1.00
C7396  C     0.92565   0.39941   0.07435   0.00000  Uiso   1.00
H7397  H     0.90385   0.38200   0.09615   0.00000  Uiso   1.00
H7398  H     0.91515   0.36190   0.08485   0.00000  Uiso   1.00
H7399  H     0.93992   0.38984   0.06008   0.00000  Uiso   1.00
H7400  H     0.92862   0.40985   0.07138   0.00000  Uiso   1.00
C7401  C     0.91172   0.88371   0.58828   0.00000  Uiso   1.00
C7402  C     0.91812   0.87234   0.58188   0.00000  Uiso   1.00
C7403  C     0.93205   0.88806   0.56795   0.00000  Uiso   1.00
C7404  C     0.92565   0.89941   0.57435   0.00000  Uiso   1.00
H7405  H     0.90385   0.88200   0.59615   0.00000  Uiso   1.00
H7406  H     0.91515   0.86190   0.58485   0.00000  Uiso   1.00
H7407  H     0.93992   0.88984   0.56008   0.00000  Uiso   1.00
H7408  H     0.92862   0.90985   0.57138   0.00000  Uiso   1.00
C7409  C     0.83828   0.33828   0.13371   0.00000  Uiso   1.00
C7410  C     0.83188   0.33188   0.12234   0.00000  Uiso   1.00
C7411  C     0.81795   0.31795   0.13806   0.00000  Uiso   1.00
C7412  C     0.82435   0.32435   0.14941   0.00000  Uiso   1.00
H7413  H     0.84615   0.34615   0.13200   0.00000  Uiso   1.00
H7414  H     0.83485   0.33485   0.11190   0.00000  Uiso   1.00
H7415  H     0.81008   0.31008   0.13984   0.00000  Uiso   1.00
H7416  H     0.82138   0.32138   0.15985   0.00000  Uiso   1.00
C7417  C     0.33828   0.16172   0.86629   0.00000  Uiso   1.00
C7418  C     0.33188   0.16812   0.87766   0.00000  Uiso   1.00
C7419  C     0.31795   0.18205   0.86194   0.00000  Uiso   1.00
C7420  C     0.32435   0.17565   0.85059   0.00000  Uiso   1.00
H7421  H     0.34615   0.15385   0.86800   0.00000  Uiso   1.00
H7422  H     0.33485   0.16515   0.88810   0.00000  Uiso   1.00
H7423  H     0.31008   0.18992   0.86016   0.00000  Uiso   1.00
H7424  H     0.32138   0.17862   0.84015   0.00000  Uiso   1.00
C7425  C     0.33828   0.66172   0.36629   0.00000  Uiso   1.00
C7426  C     0.33188   0.66812   0.37766   0.00000  Uiso   1.00
C7427  C     0.31795   0.68205   0.36194   0.00000  Uiso   1.00
C7428  C     0.32435   0.67565   0.35059   0.00000  Uiso   1.00
H7429  H     0.34615   0.65385   0.36800   0.00000  Uiso   1.00
H7430  H     0.33485   0.66515   0.38810   0.00000  Uiso   1.00
H7431  H     0.31008   0.68992   0.36016   0.00000  Uiso   1.00
H7432  H     0.32138   0.67862   0.34015   0.00000  Uiso   1.00
C7433  C     0.16172   0.83828   0.36629   0.00000  Uiso   1.00
C7434  C     0.16812   0.83188   0.37766   0.00000  Uiso   1.00
C7435  C     0.18205   0.81795   0.36194   0.00000  Uiso   1.00
C7436  C     0.17565   0.82435   0.35059   0.00000  Uiso   1.00
H7437  H     0.15385   0.84615   0.36800   0.00000  Uiso   1.00
H7438  H     0.16515   0.83485   0.38810   0.00000  Uiso   1.00
H7439  H     0.18992   0.81008   0.36016   0.00000  Uiso   1.00
H7440  H     0.17862   0.82138   0.34015   0.00000  Uiso   1.00
C7441  C     0.83828   0.36629   0.16172   0.00000  Uiso   1.00
C7442  C     0.83188   0.37766   0.16812   0.00000  Uiso   1.00
C7443  C     0.81795   0.36194   0.18205   0.00000  Uiso   1.00
C7444  C     0.82435   0.35059   0.17565   0.00000  Uiso   1.00
H7445  H     0.84615   0.36800   0.15385   0.00000  Uiso   1.00
H7446  H     0.83485   0.38810   0.16515   0.00000  Uiso   1.00
H7447  H     0.81008   0.36016   0.18992   0.00000  Uiso   1.00
H7448  H     0.82138   0.34015   0.17862   0.00000  Uiso   1.00
C7449  C     0.16172   0.86629   0.33828   0.00000  Uiso   1.00
C7450  C     0.16812   0.87766   0.33188   0.00000  Uiso   1.00
C7451  C     0.18205   0.86194   0.31795   0.00000  Uiso   1.00
C7452  C     0.17565   0.85059   0.32435   0.00000  Uiso   1.00
H7453  H     0.15385   0.86800   0.34615   0.00000  Uiso   1.00
H7454  H     0.16515   0.88810   0.33485   0.00000  Uiso   1.00
H7455  H     0.18992   0.86016   0.31008   0.00000  Uiso   1.00
H7456  H     0.17862   0.84015   0.32138   0.00000  Uiso   1.00
C7457  C     0.33828   0.13371   0.83828   0.00000  Uiso   1.00
C7458  C     0.33188   0.12234   0.83188   0.00000  Uiso   1.00
C7459  C     0.31795   0.13806   0.81795   0.00000  Uiso   1.00
C7460  C     0.32435   0.14941   0.82435   0.00000  Uiso   1.00
H7461  H     0.34615   0.13200   0.84615   0.00000  Uiso   1.00
H7462  H     0.33485   0.11190   0.83485   0.00000  Uiso   1.00
H7463  H     0.31008   0.13984   0.81008   0.00000  Uiso   1.00
H7464  H     0.32138   0.15985   0.82138   0.00000  Uiso   1.00
C7465  C     0.33828   0.63371   0.33828   0.00000  Uiso   1.00
C7466  C     0.33188   0.62234   0.33188   0.00000  Uiso   1.00
C7467  C     0.31795   0.63806   0.31795   0.00000  Uiso   1.00
C7468  C     0.32435   0.64941   0.32435   0.00000  Uiso   1.00
H7469  H     0.34615   0.63200   0.34615   0.00000  Uiso   1.00
H7470  H     0.33485   0.61190   0.33485   0.00000  Uiso   1.00
H7471  H     0.31008   0.63984   0.31008   0.00000  Uiso   1.00
H7472  H     0.32138   0.65985   0.32138   0.00000  Uiso   1.00
C7473  C     0.86629   0.33828   0.16172   0.00000  Uiso   1.00
C7474  C     0.87766   0.33188   0.16812   0.00000  Uiso   1.00
C7475  C     0.86194   0.31795   0.18205   0.00000  Uiso   1.00
C7476  C     0.85059   0.32435   0.17565   0.00000  Uiso   1.00
H7477  H     0.86800   0.34615   0.15385   0.00000  Uiso   1.00
H7478  H     0.88810   0.33485   0.16515   0.00000  Uiso   1.00
H7479  H     0.86016   0.31008   0.18992   0.00000  Uiso   1.00
H7480  H     0.84015   0.32138   0.17862   0.00000  Uiso   1.00
C7481  C     0.36629   0.16172   0.83828   0.00000  Uiso   1.00
C7482  C     0.37766   0.16812   0.83188   0.00000  Uiso   1.00
C7483  C     0.36194   0.18205   0.81795   0.00000  Uiso   1.00
C7484  C     0.35059   0.17565   0.82435   0.00000  Uiso   1.00
H7485  H     0.36800   0.15385   0.84615   0.00000  Uiso   1.00
H7486  H     0.38810   0.16515   0.83485   0.00000  Uiso   1.00
H7487  H     0.36016   0.18992   0.81008   0.00000  Uiso   1.00
H7488  H     0.34015   0.17862   0.82138   0.00000  Uiso   1.00
C7489  C     0.36629   0.66172   0.33828   0.00000  Uiso   1.00
C7490  C     0.37766   0.66812   0.33188   0.00000  Uiso   1.00
C7491  C     0.36194   0.68205   0.31795   0.00000  Uiso   1.00
C7492  C     0.35059   0.67565   0.32435   0.00000  Uiso   1.00
H7493  H     0.36800   0.65385   0.34615   0.00000  Uiso   1.00
H7494  H     0.38810   0.66515   0.33485   0.00000  Uiso   1.00
H7495  H     0.36016   0.68992   0.31008   0.00000  Uiso   1.00
H7496  H     0.34015   0.67862   0.32138   0.00000  Uiso   1.00
C7497  C     0.13371   0.83828   0.33828   0.00000  Uiso   1.00
C7498  C     0.12234   0.83188   0.33188   0.00000  Uiso   1.00
C7499  C     0.13806   0.81795   0.31795   0.00000  Uiso   1.00
C7500  C     0.14941   0.82435   0.32435   0.00000  Uiso   1.00
H7501  H     0.13200   0.84615   0.34615   0.00000  Uiso   1.00
H7502  H     0.11190   0.83485   0.33485   0.00000  Uiso   1.00
H7503  H     0.13984   0.81008   0.31008   0.00000  Uiso   1.00
H7504  H     0.15985   0.82138   0.32138   0.00000  Uiso   1.00
C7505  C     0.24208   0.03116   0.25792   0.00000  Uiso   1.00
C7506  C     0.24208   0.53116   0.75792   0.00000  Uiso   1.00
C7507  C     0.75792   0.46884   0.75792   0.00000  Uiso   1.00
C7508  C     0.75792   0.96884   0.25792   0.00000  Uiso   1.00
C7509  C     0.25792   0.46884   0.25792   0.00000  Uiso   1.00
C7510  C     0.25792   0.96884   0.75792   0.00000  Uiso   1.00
C7511  C     0.25792   0.53116   0.74208   0.00000  Uiso   1.00
C7512  C     0.75792   0.53116   0.24208   0.00000  Uiso   1.00
C7513  C     0.74208   0.96884   0.24208   0.00000  Uiso   1.00
C7514  C     0.74208   0.46884   0.74208   0.00000  Uiso   1.00
C7515  C     0.25792   0.24208   0.03116   0.00000  Uiso   1.00
C7516  C     0.75792   0.24208   0.53116   0.00000  Uiso   1.00
C7517  C     0.75792   0.75792   0.46884   0.00000  Uiso   1.00
C7518  C     0.75792   0.25792   0.96884   0.00000  Uiso   1.00
C7519  C     0.25792   0.75792   0.96884   0.00000  Uiso   1.00
C7520  C     0.25792   0.25792   0.46884   0.00000  Uiso   1.00
C7521  C     0.74208   0.25792   0.53116   0.00000  Uiso   1.00
C7522  C     0.74208   0.75792   0.03116   0.00000  Uiso   1.00
C7523  C     0.24208   0.75792   0.53116   0.00000  Uiso   1.00
C7524  C     0.24208   0.74208   0.96884   0.00000  Uiso   1.00
C7525  C     0.24208   0.24208   0.46884   0.00000  Uiso   1.00
C7526  C     0.74208   0.74208   0.46884   0.00000  Uiso   1.00
C7527  C     0.03116   0.25792   0.24208   0.00000  Uiso   1.00
C7528  C     0.03116   0.75792   0.74208   0.00000  Uiso   1.00
C7529  C     0.53116   0.75792   0.24208   0.00000  Uiso   1.00
C7530  C     0.46884   0.75792   0.75792   0.00000  Uiso   1.00
C7531  C     0.46884   0.25792   0.25792   0.00000  Uiso   1.00
C7532  C     0.96884   0.75792   0.25792   0.00000  Uiso   1.00
C7533  C     0.96884   0.25792   0.75792   0.00000  Uiso   1.00
C7534  C     0.53116   0.74208   0.25792   0.00000  Uiso   1.00
C7535  C     0.53116   0.24208   0.75792   0.00000  Uiso   1.00
C7536  C     0.96884   0.24208   0.74208   0.00000  Uiso   1.00
C7537  C     0.46884   0.24208   0.24208   0.00000  Uiso   1.00
C7538  C     0.46884   0.74208   0.74208   0.00000  Uiso   1.00
C7539  C     0.78116   0.49208   0.49208   0.00000  Uiso   1.00
C7540  C     0.78116   0.99208   0.99208   0.00000  Uiso   1.00
C7541  C     0.28116   0.49208   0.99208   0.00000  Uiso   1.00
C7542  C     0.28116   0.99208   0.49208   0.00000  Uiso   1.00
C7543  C     0.21884   0.00792   0.99208   0.00000  Uiso   1.00
C7544  C     0.21884   0.50792   0.49208   0.00000  Uiso   1.00
C7545  C     0.28116   0.50792   0.00792   0.00000  Uiso   1.00
C7546  C     0.78116   0.50792   0.50792   0.00000  Uiso   1.00
C7547  C     0.78116   0.00792   0.00792   0.00000  Uiso   1.00
C7548  C     0.71884   0.99208   0.50792   0.00000  Uiso   1.00
C7549  C     0.71884   0.49208   0.00792   0.00000  Uiso   1.00
C7550  C     0.99208   0.50792   0.71884   0.00000  Uiso   1.00
C7551  C     0.49208   0.50792   0.21884   0.00000  Uiso   1.00
C7552  C     0.50792   0.00792   0.28116   0.00000  Uiso   1.00
C7553  C     0.50792   0.50792   0.78116   0.00000  Uiso   1.00
C7554  C     0.00792   0.00792   0.78116   0.00000  Uiso   1.00
C7555  C     0.00792   0.99208   0.21884   0.00000  Uiso   1.00
C7556  C     0.00792   0.49208   0.71884   0.00000  Uiso   1.00
C7557  C     0.49208   0.49208   0.78116   0.00000  Uiso   1.00
C7558  C     0.49208   0.99208   0.28116   0.00000  Uiso   1.00
C7559  C     0.99208   0.49208   0.28116   0.00000  Uiso   1.00
C7560  C     0.99208   0.99208   0.78116   0.00000  Uiso   1.00
C7561  C     0.00792   0.28116   0.50792   0.00000  Uiso   1.00
C7562  C     0.00792   0.78116   0.00792   0.00000  Uiso   1.00
C7563  C     0.50792   0.71884   0.99208   0.00000  Uiso   1.00
C7564  C     0.50792   0.21884   0.49208   0.00000  Uiso   1.00
C7565  C     0.49208   0.78116   0.49208   0.00000  Uiso   1.00
C7566  C     0.49208   0.28116   0.99208   0.00000  Uiso   1.00
C7567  C     0.99208   0.78116   0.99208   0.00000  Uiso   1.00
C7568  C     0.99208   0.28116   0.49208   0.00000  Uiso   1.00
C7569  C     0.99208   0.21884   0.00792   0.00000  Uiso   1.00
C7570  C     0.49208   0.21884   0.50792   0.00000  Uiso   1.00
C7571  C     0.00792   0.21884   0.99208   0.00000  Uiso   1.00
C7572  C     0.00792   0.71884   0.49208   0.00000  Uiso   1.00
C7573  C     0.99208   0.71884   0.50792   0.00000  Uiso   1.00
C7574  C     0.49208   0.71884   0.00792   0.00000  Uiso   1.00
C7575  C     0.50792   0.28116   0.00792   0.00000  Uiso   1.00
C7576  C     0.50792   0.78116   0.50792   0.00000  Uiso   1.00
C7577  C     0.99208   0.00792   0.21884   0.00000  Uiso   1.00
C7578  C     0.49208   0.00792   0.71884   0.00000  Uiso   1.00
C7579  C     0.50792   0.99208   0.71884   0.00000  Uiso   1.00
C7580  C     0.50792   0.49208   0.21884   0.00000  Uiso   1.00
C7581  C     0.00792   0.50792   0.28116   0.00000  Uiso   1.00
C7582  C     0.21884   0.99208   0.00792   0.00000  Uiso   1.00
C7583  C     0.21884   0.49208   0.50792   0.00000  Uiso   1.00
C7584  C     0.71884   0.50792   0.99208   0.00000  Uiso   1.00
C7585  C     0.71884   0.00792   0.49208   0.00000  Uiso   1.00
C7586  C     0.28116   0.00792   0.50792   0.00000  Uiso   1.00
C7587  C     0.03116   0.24208   0.25792   0.00000  Uiso   1.00
C7588  C     0.03116   0.74208   0.75792   0.00000  Uiso   1.00
C7589  C     0.96884   0.74208   0.24208   0.00000  Uiso   1.00
C7590  C     0.53116   0.25792   0.74208   0.00000  Uiso   1.00
C7591  C     0.25792   0.74208   0.53116   0.00000  Uiso   1.00
C7592  C     0.75792   0.74208   0.03116   0.00000  Uiso   1.00
C7593  C     0.74208   0.24208   0.96884   0.00000  Uiso   1.00
C7594  C     0.24208   0.25792   0.03116   0.00000  Uiso   1.00
C7595  C     0.24208   0.96884   0.74208   0.00000  Uiso   1.00
C7596  C     0.24208   0.46884   0.24208   0.00000  Uiso   1.00
C7597  C     0.74208   0.53116   0.25792   0.00000  Uiso   1.00
C7598  C     0.74208   0.03116   0.75792   0.00000  Uiso   1.00
C7599  C     0.25792   0.03116   0.24208   0.00000  Uiso   1.00
C7600  C     0.75792   0.03116   0.74208   0.00000  Uiso   1.00
C7601  C     0.49208   0.00792   0.77780   0.00000  Uiso   1.00
C7602  C     0.49499   0.00501   0.79160   0.00000  Uiso   1.00
H7603  H     0.49037   0.00963   0.80076   0.00000  Uiso   1.00
C7604  C     0.99208   0.00792   0.27780   0.00000  Uiso   1.00
C7605  C     0.99499   0.00501   0.29160   0.00000  Uiso   1.00
H7606  H     0.99037   0.00963   0.30076   0.00000  Uiso   1.00
C7607  C     0.50792   0.49208   0.27780   0.00000  Uiso   1.00
C7608  C     0.50501   0.49499   0.29160   0.00000  Uiso   1.00
H7609  H     0.50963   0.49037   0.30076   0.00000  Uiso   1.00
C7610  C     0.50792   0.99208   0.77780   0.00000  Uiso   1.00
C7611  C     0.50501   0.99499   0.79160   0.00000  Uiso   1.00
H7612  H     0.50963   0.99037   0.80076   0.00000  Uiso   1.00
C7613  C     0.00792   0.50792   0.22220   0.00000  Uiso   1.00
C7614  C     0.00501   0.50501   0.20840   0.00000  Uiso   1.00
H7615  H     0.00963   0.50963   0.19924   0.00000  Uiso   1.00
C7616  C     0.00792   0.00792   0.72220   0.00000  Uiso   1.00
C7617  C     0.00501   0.00501   0.70840   0.00000  Uiso   1.00
H7618  H     0.00963   0.00963   0.69924   0.00000  Uiso   1.00
C7619  C     0.99208   0.99208   0.72220   0.00000  Uiso   1.00
C7620  C     0.99499   0.99499   0.70840   0.00000  Uiso   1.00
H7621  H     0.99037   0.99037   0.69924   0.00000  Uiso   1.00
C7622  C     0.99208   0.49208   0.22220   0.00000  Uiso   1.00
C7623  C     0.99499   0.49499   0.20840   0.00000  Uiso   1.00
H7624  H     0.99037   0.49037   0.19924   0.00000  Uiso   1.00
C7625  C     0.49208   0.99208   0.22220   0.00000  Uiso   1.00
C7626  C     0.49499   0.99499   0.20840   0.00000  Uiso   1.00
H7627  H     0.49037   0.99037   0.19924   0.00000  Uiso   1.00
C7628  C     0.49208   0.49208   0.72220   0.00000  Uiso   1.00
C7629  C     0.49499   0.49499   0.70840   0.00000  Uiso   1.00
H7630  H     0.49037   0.49037   0.69924   0.00000  Uiso   1.00
C7631  C     0.77780   0.49208   0.00792   0.00000  Uiso   1.00
C7632  C     0.79160   0.49499   0.00501   0.00000  Uiso   1.00
H7633  H     0.80076   0.49037   0.00963   0.00000  Uiso   1.00
C7634  C     0.77780   0.99208   0.50792   0.00000  Uiso   1.00
C7635  C     0.79160   0.99499   0.50501   0.00000  Uiso   1.00
H7636  H     0.80076   0.99037   0.50963   0.00000  Uiso   1.00
C7637  C     0.27780   0.50792   0.49208   0.00000  Uiso   1.00
C7638  C     0.29160   0.50501   0.49499   0.00000  Uiso   1.00
H7639  H     0.30076   0.50963   0.49037   0.00000  Uiso   1.00
C7640  C     0.27780   0.00792   0.99208   0.00000  Uiso   1.00
C7641  C     0.29160   0.00501   0.99499   0.00000  Uiso   1.00
H7642  H     0.30076   0.00963   0.99037   0.00000  Uiso   1.00
C7643  C     0.22220   0.00792   0.50792   0.00000  Uiso   1.00
C7644  C     0.20840   0.00501   0.50501   0.00000  Uiso   1.00
H7645  H     0.19924   0.00963   0.50963   0.00000  Uiso   1.00
C7646  C     0.72220   0.00792   0.00792   0.00000  Uiso   1.00
C7647  C     0.70840   0.00501   0.00501   0.00000  Uiso   1.00
H7648  H     0.69924   0.00963   0.00963   0.00000  Uiso   1.00
C7649  C     0.72220   0.99208   0.99208   0.00000  Uiso   1.00
C7650  C     0.70840   0.99499   0.99499   0.00000  Uiso   1.00
H7651  H     0.69924   0.99037   0.99037   0.00000  Uiso   1.00
C7652  C     0.72220   0.49208   0.49208   0.00000  Uiso   1.00
C7653  C     0.70840   0.49499   0.49499   0.00000  Uiso   1.00
H7654  H     0.69924   0.49037   0.49037   0.00000  Uiso   1.00
C7655  C     0.22220   0.99208   0.49208   0.00000  Uiso   1.00
C7656  C     0.20840   0.99499   0.49499   0.00000  Uiso   1.00
H7657  H     0.19924   0.99037   0.49037   0.00000  Uiso   1.00
C7658  C     0.22220   0.49208   0.99208   0.00000  Uiso   1.00
C7659  C     0.20840   0.49499   0.99499   0.00000  Uiso   1.00
H7660  H     0.19924   0.49037   0.99037   0.00000  Uiso   1.00
C7661  C     0.00792   0.77780   0.49208   0.00000  Uiso   1.00
C7662  C     0.00501   0.79160   0.49499   0.00000  Uiso   1.00
H7663  H     0.00963   0.80076   0.49037   0.00000  Uiso   1.00
C7664  C     0.00792   0.27780   0.99208   0.00000  Uiso   1.00
C7665  C     0.00501   0.29160   0.99499   0.00000  Uiso   1.00
H7666  H     0.00963   0.30076   0.99037   0.00000  Uiso   1.00
C7667  C     0.49208   0.27780   0.50792   0.00000  Uiso   1.00
C7668  C     0.49499   0.29160   0.50501   0.00000  Uiso   1.00
H7669  H     0.49037   0.30076   0.50963   0.00000  Uiso   1.00
C7670  C     0.99208   0.27780   0.00792   0.00000  Uiso   1.00
C7671  C     0.99499   0.29160   0.00501   0.00000  Uiso   1.00
H7672  H     0.99037   0.30076   0.00963   0.00000  Uiso   1.00
C7673  C     0.50792   0.22220   0.00792   0.00000  Uiso   1.00
C7674  C     0.50501   0.20840   0.00501   0.00000  Uiso   1.00
H7675  H     0.50963   0.19924   0.00963   0.00000  Uiso   1.00
C7676  C     0.50792   0.72220   0.50792   0.00000  Uiso   1.00
C7677  C     0.50501   0.70840   0.50501   0.00000  Uiso   1.00
H7678  H     0.50963   0.69924   0.50963   0.00000  Uiso   1.00
C7679  C     0.99208   0.72220   0.99208   0.00000  Uiso   1.00
C7680  C     0.99499   0.70840   0.99499   0.00000  Uiso   1.00
H7681  H     0.99037   0.69924   0.99037   0.00000  Uiso   1.00
C7682  C     0.99208   0.22220   0.49208   0.00000  Uiso   1.00
C7683  C     0.99499   0.20840   0.49499   0.00000  Uiso   1.00
H7684  H     0.99037   0.19924   0.49037   0.00000  Uiso   1.00
C7685  C     0.49208   0.72220   0.49208   0.00000  Uiso   1.00
C7686  C     0.49499   0.70840   0.49499   0.00000  Uiso   1.00
H7687  H     0.49037   0.69924   0.49037   0.00000  Uiso   1.00
C7688  C     0.49208   0.22220   0.99208   0.00000  Uiso   1.00
C7689  C     0.49499   0.20840   0.99499   0.00000  Uiso   1.00
H7690  H     0.49037   0.19924   0.99037   0.00000  Uiso   1.00
C7691  C     0.75792   0.74208   0.97220   0.00000  Uiso   1.00
C7692  C     0.75501   0.74499   0.95840   0.00000  Uiso   1.00
H7693  H     0.75963   0.74037   0.94924   0.00000  Uiso   1.00
C7694  C     0.25792   0.74208   0.47220   0.00000  Uiso   1.00
C7695  C     0.25501   0.74499   0.45840   0.00000  Uiso   1.00
H7696  H     0.25963   0.74037   0.44924   0.00000  Uiso   1.00
C7697  C     0.24208   0.75792   0.47220   0.00000  Uiso   1.00
C7698  C     0.24499   0.75501   0.45840   0.00000  Uiso   1.00
H7699  H     0.24037   0.75963   0.44924   0.00000  Uiso   1.00
C7700  C     0.24208   0.25792   0.97220   0.00000  Uiso   1.00
C7701  C     0.24499   0.25501   0.95840   0.00000  Uiso   1.00
H7702  H     0.24037   0.25963   0.94924   0.00000  Uiso   1.00
C7703  C     0.25792   0.25792   0.52780   0.00000  Uiso   1.00
C7704  C     0.25501   0.25501   0.54160   0.00000  Uiso   1.00
H7705  H     0.25963   0.25963   0.55076   0.00000  Uiso   1.00
C7706  C     0.25792   0.75792   0.02780   0.00000  Uiso   1.00
C7707  C     0.25501   0.75501   0.04160   0.00000  Uiso   1.00
H7708  H     0.25963   0.75963   0.05076   0.00000  Uiso   1.00
C7709  C     0.75792   0.25792   0.02780   0.00000  Uiso   1.00
C7710  C     0.75501   0.25501   0.04160   0.00000  Uiso   1.00
H7711  H     0.75963   0.25963   0.05076   0.00000  Uiso   1.00
C7712  C     0.75792   0.75792   0.52780   0.00000  Uiso   1.00
C7713  C     0.75501   0.75501   0.54160   0.00000  Uiso   1.00
H7714  H     0.75963   0.75963   0.55076   0.00000  Uiso   1.00
C7715  C     0.74208   0.24208   0.02780   0.00000  Uiso   1.00
C7716  C     0.74499   0.24499   0.04160   0.00000  Uiso   1.00
H7717  H     0.74037   0.24037   0.05076   0.00000  Uiso   1.00
C7718  C     0.74208   0.74208   0.52780   0.00000  Uiso   1.00
C7719  C     0.74499   0.74499   0.54160   0.00000  Uiso   1.00
H7720  H     0.74037   0.74037   0.55076   0.00000  Uiso   1.00
C7721  C     0.24208   0.02780   0.74208   0.00000  Uiso   1.00
C7722  C     0.24499   0.04160   0.74499   0.00000  Uiso   1.00
H7723  H     0.24037   0.05076   0.74037   0.00000  Uiso   1.00
C7724  C     0.24208   0.52780   0.24208   0.00000  Uiso   1.00
C7725  C     0.24499   0.54160   0.24499   0.00000  Uiso   1.00
H7726  H     0.24037   0.55076   0.24037   0.00000  Uiso   1.00
C7727  C     0.25792   0.52780   0.25792   0.00000  Uiso   1.00
C7728  C     0.25501   0.54160   0.25501   0.00000  Uiso   1.00
H7729  H     0.25963   0.55076   0.25963   0.00000  Uiso   1.00
C7730  C     0.25792   0.02780   0.75792   0.00000  Uiso   1.00
C7731  C     0.25501   0.04160   0.75501   0.00000  Uiso   1.00
H7732  H     0.25963   0.05076   0.75963   0.00000  Uiso   1.00
C7733  C     0.75792   0.52780   0.75792   0.00000  Uiso   1.00
C7734  C     0.75501   0.54160   0.75501   0.00000  Uiso   1.00
H7735  H     0.75963   0.55076   0.75963   0.00000  Uiso   1.00
C7736  C     0.75792   0.02780   0.25792   0.00000  Uiso   1.00
C7737  C     0.75501   0.04160   0.25501   0.00000  Uiso   1.00
H7738  H     0.75963   0.05076   0.25963   0.00000  Uiso   1.00
C7739  C     0.75792   0.47220   0.24208   0.00000  Uiso   1.00
C7740  C     0.75501   0.45840   0.24499   0.00000  Uiso   1.00
H7741  H     0.75963   0.44924   0.24037   0.00000  Uiso   1.00
C7742  C     0.25792   0.47220   0.74208   0.00000  Uiso   1.00
C7743  C     0.25501   0.45840   0.74499   0.00000  Uiso   1.00
H7744  H     0.25963   0.44924   0.74037   0.00000  Uiso   1.00
C7745  C     0.74208   0.97220   0.75792   0.00000  Uiso   1.00
C7746  C     0.74499   0.95840   0.75501   0.00000  Uiso   1.00
H7747  H     0.74037   0.94924   0.75963   0.00000  Uiso   1.00
C7748  C     0.74208   0.47220   0.25792   0.00000  Uiso   1.00
C7749  C     0.74499   0.45840   0.25501   0.00000  Uiso   1.00
H7750  H     0.74037   0.44924   0.25963   0.00000  Uiso   1.00
C7751  C     0.52780   0.25792   0.25792   0.00000  Uiso   1.00
C7752  C     0.54160   0.25501   0.25501   0.00000  Uiso   1.00
H7753  H     0.55076   0.25963   0.25963   0.00000  Uiso   1.00
C7754  C     0.52780   0.75792   0.75792   0.00000  Uiso   1.00
C7755  C     0.54160   0.75501   0.75501   0.00000  Uiso   1.00
H7756  H     0.55076   0.75963   0.75963   0.00000  Uiso   1.00
C7757  C     0.02780   0.25792   0.75792   0.00000  Uiso   1.00
C7758  C     0.04160   0.25501   0.75501   0.00000  Uiso   1.00
H7759  H     0.05076   0.25963   0.75963   0.00000  Uiso   1.00
C7760  C     0.02780   0.75792   0.25792   0.00000  Uiso   1.00
C7761  C     0.04160   0.75501   0.25501   0.00000  Uiso   1.00
H7762  H     0.05076   0.75963   0.25963   0.00000  Uiso   1.00
C7763  C     0.02780   0.74208   0.24208   0.00000  Uiso   1.00
C7764  C     0.04160   0.74499   0.24499   0.00000  Uiso   1.00
H7765  H     0.05076   0.74037   0.24037   0.00000  Uiso   1.00
C7766  C     0.52780   0.74208   0.74208   0.00000  Uiso   1.00
C7767  C     0.54160   0.74499   0.74499   0.00000  Uiso   1.00
H7768  H     0.55076   0.74037   0.74037   0.00000  Uiso   1.00
C7769  C     0.97220   0.75792   0.74208   0.00000  Uiso   1.00
C7770  C     0.95840   0.75501   0.74499   0.00000  Uiso   1.00
H7771  H     0.94924   0.75963   0.74037   0.00000  Uiso   1.00
C7772  C     0.97220   0.25792   0.24208   0.00000  Uiso   1.00
C7773  C     0.95840   0.25501   0.24499   0.00000  Uiso   1.00
H7774  H     0.94924   0.25963   0.24037   0.00000  Uiso   1.00
C7775  C     0.47220   0.24208   0.75792   0.00000  Uiso   1.00
C7776  C     0.45840   0.24499   0.75501   0.00000  Uiso   1.00
H7777  H     0.44924   0.24037   0.75963   0.00000  Uiso   1.00
C7778  C     0.47220   0.74208   0.25792   0.00000  Uiso   1.00
C7779  C     0.45840   0.74499   0.25501   0.00000  Uiso   1.00
H7780  H     0.44924   0.74037   0.25963   0.00000  Uiso   1.00
C7781  C     0.75792   0.24208   0.47220   0.00000  Uiso   1.00
C7782  C     0.75501   0.24499   0.45840   0.00000  Uiso   1.00
H7783  H     0.75963   0.24037   0.44924   0.00000  Uiso   1.00
C7784  C     0.25792   0.24208   0.97220   0.00000  Uiso   1.00
C7785  C     0.25501   0.24499   0.95840   0.00000  Uiso   1.00
H7786  H     0.25963   0.24037   0.94924   0.00000  Uiso   1.00
C7787  C     0.74208   0.75792   0.97220   0.00000  Uiso   1.00
C7788  C     0.74499   0.75501   0.95840   0.00000  Uiso   1.00
H7789  H     0.74037   0.75963   0.94924   0.00000  Uiso   1.00
C7790  C     0.74208   0.25792   0.47220   0.00000  Uiso   1.00
C7791  C     0.74499   0.25501   0.45840   0.00000  Uiso   1.00
H7792  H     0.74037   0.25963   0.44924   0.00000  Uiso   1.00
C7793  C     0.24208   0.74208   0.02780   0.00000  Uiso   1.00
C7794  C     0.24499   0.74499   0.04160   0.00000  Uiso   1.00
H7795  H     0.24037   0.74037   0.05076   0.00000  Uiso   1.00
C7796  C     0.24208   0.24208   0.52780   0.00000  Uiso   1.00
C7797  C     0.24499   0.24499   0.54160   0.00000  Uiso   1.00
H7798  H     0.24037   0.24037   0.55076   0.00000  Uiso   1.00
C7799  C     0.47220   0.75792   0.24208   0.00000  Uiso   1.00
C7800  C     0.45840   0.75501   0.24499   0.00000  Uiso   1.00
H7801  H     0.44924   0.75963   0.24037   0.00000  Uiso   1.00
C7802  C     0.47220   0.25792   0.74208   0.00000  Uiso   1.00
C7803  C     0.45840   0.25501   0.74499   0.00000  Uiso   1.00
H7804  H     0.44924   0.25963   0.74037   0.00000  Uiso   1.00
C7805  C     0.97220   0.74208   0.75792   0.00000  Uiso   1.00
C7806  C     0.95840   0.74499   0.75501   0.00000  Uiso   1.00
H7807  H     0.94924   0.74037   0.75963   0.00000  Uiso   1.00
C7808  C     0.97220   0.24208   0.25792   0.00000  Uiso   1.00
C7809  C     0.95840   0.24499   0.25501   0.00000  Uiso   1.00
H7810  H     0.94924   0.24037   0.25963   0.00000  Uiso   1.00
C7811  C     0.02780   0.24208   0.74208   0.00000  Uiso   1.00
C7812  C     0.04160   0.24499   0.74499   0.00000  Uiso   1.00
H7813  H     0.05076   0.24037   0.74037   0.00000  Uiso   1.00
C7814  C     0.52780   0.24208   0.24208   0.00000  Uiso   1.00
C7815  C     0.54160   0.24499   0.24499   0.00000  Uiso   1.00
H7816  H     0.55076   0.24037   0.24037   0.00000  Uiso   1.00
C7817  C     0.24208   0.47220   0.75792   0.00000  Uiso   1.00
C7818  C     0.24499   0.45840   0.75501   0.00000  Uiso   1.00
H7819  H     0.24037   0.44924   0.75963   0.00000  Uiso   1.00
C7820  C     0.24208   0.97220   0.25792   0.00000  Uiso   1.00
C7821  C     0.24499   0.95840   0.25501   0.00000  Uiso   1.00
H7822  H     0.24037   0.94924   0.25963   0.00000  Uiso   1.00
C7823  C     0.75792   0.97220   0.74208   0.00000  Uiso   1.00
C7824  C     0.75501   0.95840   0.74499   0.00000  Uiso   1.00
H7825  H     0.75963   0.94924   0.74037   0.00000  Uiso   1.00
C7826  C     0.25792   0.97220   0.24208   0.00000  Uiso   1.00
C7827  C     0.25501   0.95840   0.24499   0.00000  Uiso   1.00
H7828  H     0.25963   0.94924   0.24037   0.00000  Uiso   1.00
C7829  C     0.74208   0.02780   0.24208   0.00000  Uiso   1.00
C7830  C     0.74499   0.04160   0.24499   0.00000  Uiso   1.00
H7831  H     0.74037   0.05076   0.24037   0.00000  Uiso   1.00
C7832  C     0.74208   0.52780   0.74208   0.00000  Uiso   1.00
C7833  C     0.74499   0.54160   0.74499   0.00000  Uiso   1.00
H7834  H     0.74037   0.55076   0.74037   0.00000  Uiso   1.00
C7835  C     0.49208   0.50792   0.27780   0.00000  Uiso   1.00
C7836  C     0.49499   0.50501   0.29160   0.00000  Uiso   1.00
H7837  H     0.49037   0.50963   0.30076   0.00000  Uiso   1.00
C7838  C     0.99208   0.50792   0.77780   0.00000  Uiso   1.00
C7839  C     0.99499   0.50501   0.79160   0.00000  Uiso   1.00
H7840  H     0.99037   0.50963   0.80076   0.00000  Uiso   1.00
C7841  C     0.00792   0.49208   0.77780   0.00000  Uiso   1.00
C7842  C     0.00501   0.49499   0.79160   0.00000  Uiso   1.00
H7843  H     0.00963   0.49037   0.80076   0.00000  Uiso   1.00
C7844  C     0.00792   0.99208   0.27780   0.00000  Uiso   1.00
C7845  C     0.00501   0.99499   0.29160   0.00000  Uiso   1.00
H7846  H     0.00963   0.99037   0.30076   0.00000  Uiso   1.00
C7847  C     0.50792   0.00792   0.22220   0.00000  Uiso   1.00
C7848  C     0.50501   0.00501   0.20840   0.00000  Uiso   1.00
H7849  H     0.50963   0.00963   0.19924   0.00000  Uiso   1.00
C7850  C     0.50792   0.50792   0.72220   0.00000  Uiso   1.00
C7851  C     0.50501   0.50501   0.70840   0.00000  Uiso   1.00
H7852  H     0.50963   0.50963   0.69924   0.00000  Uiso   1.00
C7853  C     0.00792   0.22220   0.50792   0.00000  Uiso   1.00
C7854  C     0.00501   0.20840   0.50501   0.00000  Uiso   1.00
H7855  H     0.00963   0.19924   0.50963   0.00000  Uiso   1.00
C7856  C     0.00792   0.72220   0.00792   0.00000  Uiso   1.00
C7857  C     0.00501   0.70840   0.00501   0.00000  Uiso   1.00
H7858  H     0.00963   0.69924   0.00963   0.00000  Uiso   1.00
C7859  C     0.49208   0.77780   0.00792   0.00000  Uiso   1.00
C7860  C     0.49499   0.79160   0.00501   0.00000  Uiso   1.00
H7861  H     0.49037   0.80076   0.00963   0.00000  Uiso   1.00
C7862  C     0.99208   0.77780   0.50792   0.00000  Uiso   1.00
C7863  C     0.99499   0.79160   0.50501   0.00000  Uiso   1.00
H7864  H     0.99037   0.80076   0.50963   0.00000  Uiso   1.00
C7865  C     0.50792   0.27780   0.49208   0.00000  Uiso   1.00
C7866  C     0.50501   0.29160   0.49499   0.00000  Uiso   1.00
H7867  H     0.50963   0.30076   0.49037   0.00000  Uiso   1.00
C7868  C     0.50792   0.77780   0.99208   0.00000  Uiso   1.00
C7869  C     0.50501   0.79160   0.99499   0.00000  Uiso   1.00
H7870  H     0.50963   0.80076   0.99037   0.00000  Uiso   1.00
C7871  C     0.22220   0.50792   0.00792   0.00000  Uiso   1.00
C7872  C     0.20840   0.50501   0.00501   0.00000  Uiso   1.00
H7873  H     0.19924   0.50963   0.00963   0.00000  Uiso   1.00
C7874  C     0.72220   0.50792   0.50792   0.00000  Uiso   1.00
C7875  C     0.70840   0.50501   0.50501   0.00000  Uiso   1.00
H7876  H     0.69924   0.50963   0.50963   0.00000  Uiso   1.00
C7877  C     0.27780   0.49208   0.50792   0.00000  Uiso   1.00
C7878  C     0.29160   0.49499   0.50501   0.00000  Uiso   1.00
H7879  H     0.30076   0.49037   0.50963   0.00000  Uiso   1.00
C7880  C     0.27780   0.99208   0.00792   0.00000  Uiso   1.00
C7881  C     0.29160   0.99499   0.00501   0.00000  Uiso   1.00
H7882  H     0.30076   0.99037   0.00963   0.00000  Uiso   1.00
C7883  C     0.77780   0.00792   0.49208   0.00000  Uiso   1.00
C7884  C     0.79160   0.00501   0.49499   0.00000  Uiso   1.00
H7885  H     0.80076   0.00963   0.49037   0.00000  Uiso   1.00
C7886  C     0.77780   0.50792   0.99208   0.00000  Uiso   1.00
C7887  C     0.79160   0.50501   0.99499   0.00000  Uiso   1.00
H7888  H     0.80076   0.50963   0.99037   0.00000  Uiso   1.00
N7889  N     0.50000   0.00000   0.76925   0.00000  Uiso   1.00
N7890  N     0.00000   0.00000   0.26925   0.00000  Uiso   1.00
N7891  N     0.50000   0.50000   0.26925   0.00000  Uiso   1.00
N7892  N     0.00000   0.50000   0.23075   0.00000  Uiso   1.00
N7893  N     0.00000   0.00000   0.73075   0.00000  Uiso   1.00
N7894  N     0.76925   0.50000   0.00000   0.00000  Uiso   1.00
N7895  N     0.26925   0.50000   0.50000   0.00000  Uiso   1.00
N7896  N     0.26925   0.00000   0.00000   0.00000  Uiso   1.00
N7897  N     0.23075   0.00000   0.50000   0.00000  Uiso   1.00
N7898  N     0.73075   0.00000   0.00000   0.00000  Uiso   1.00
N7899  N     0.73075   0.50000   0.50000   0.00000  Uiso   1.00
N7900  N     0.00000   0.76925   0.50000   0.00000  Uiso   1.00
N7901  N     0.00000   0.26925   0.00000   0.00000  Uiso   1.00
N7902  N     0.50000   0.26925   0.50000   0.00000  Uiso   1.00
N7903  N     0.50000   0.23075   0.00000   0.00000  Uiso   1.00
N7904  N     0.50000   0.73075   0.50000   0.00000  Uiso   1.00
N7905  N     0.00000   0.73075   0.00000   0.00000  Uiso   1.00
N7906  N     0.75000   0.75000   0.98075   0.00000  Uiso   1.00
N7907  N     0.25000   0.75000   0.48075   0.00000  Uiso   1.00
N7908  N     0.25000   0.25000   0.98075   0.00000  Uiso   1.00
N7909  N     0.25000   0.25000   0.51925   0.00000  Uiso   1.00
N7910  N     0.75000   0.25000   0.01925   0.00000  Uiso   1.00
N7911  N     0.75000   0.75000   0.51925   0.00000  Uiso   1.00
N7912  N     0.25000   0.01925   0.75000   0.00000  Uiso   1.00
N7913  N     0.25000   0.51925   0.25000   0.00000  Uiso   1.00
N7914  N     0.75000   0.48075   0.25000   0.00000  Uiso   1.00
N7915  N     0.75000   0.98075   0.75000   0.00000  Uiso   1.00
N7916  N     0.51925   0.25000   0.25000   0.00000  Uiso   1.00
N7917  N     0.51925   0.75000   0.75000   0.00000  Uiso   1.00
N7918  N     0.01925   0.75000   0.25000   0.00000  Uiso   1.00
N7919  N     0.98075   0.75000   0.75000   0.00000  Uiso   1.00
N7920  N     0.98075   0.25000   0.25000   0.00000  Uiso   1.00
N7921  N     0.48075   0.25000   0.75000   0.00000  Uiso   1.00
N7922  N     0.75000   0.25000   0.48075   0.00000  Uiso   1.00
N7923  N     0.25000   0.75000   0.01925   0.00000  Uiso   1.00
N7924  N     0.48075   0.75000   0.25000   0.00000  Uiso   1.00
N7925  N     0.01925   0.25000   0.75000   0.00000  Uiso   1.00
N7926  N     0.25000   0.48075   0.75000   0.00000  Uiso   1.00
N7927  N     0.25000   0.98075   0.25000   0.00000  Uiso   1.00
N7928  N     0.75000   0.01925   0.25000   0.00000  Uiso   1.00
N7929  N     0.75000   0.51925   0.75000   0.00000  Uiso   1.00
N7930  N     0.00000   0.50000   0.76925   0.00000  Uiso   1.00
N7931  N     0.50000   0.00000   0.23075   0.00000  Uiso   1.00
N7932  N     0.50000   0.50000   0.73075   0.00000  Uiso   1.00
N7933  N     0.00000   0.23075   0.50000   0.00000  Uiso   1.00
N7934  N     0.50000   0.76925   0.00000   0.00000  Uiso   1.00
N7935  N     0.23075   0.50000   0.00000   0.00000  Uiso   1.00
N7936  N     0.76925   0.00000   0.50000   0.00000  Uiso   1.00
loop_
_geom_bond_atom_site_label_1
_geom_bond_atom_site_label_2
_geom_bond_distance
_geom_bond_site_symmetry_2
_ccdc_geom_bond_type
C1     C2      1.397   .     D
C1     H9      1.082   .     S
C1     C3123   1.401   .     S
C2     H10     1.082   .     S
C2     C3124   1.399   .     S
C3     C4      1.398   .     D
C3     H11     1.083   .     S
C3     C3127   1.400   .     S
C4     H12     1.082   .     S
C4     C3128   1.401   .     S
C5     C6      1.398   .     S
C5     H13     1.082   .     S
C5     C3135   1.401   .     D
C6     H14     1.081   .     S
C6     C3136   1.400   .     D
C7     C8      1.397   .     S
C7     H15     1.083   .     S
C7     C3139   1.400   .     D
C8     H16     1.082   .     S
C8     C3140   1.402   .     D
C17    C18     1.397   .     D
C17    H25     1.082   .     S
C17    C5472   1.401   .     S
C18    H26     1.082   .     S
C18    C5473   1.399   .     S
C19    C20     1.398   .     D
C19    H27     1.083   .     S
C19    C5476   1.400   .     S
C20    H28     1.082   .     S
C20    C5477   1.401   .     S
C21    C22     1.398   .     S
C21    H29     1.082   .     S
C21    C5484   1.401   .     D
C22    H30     1.081   .     S
C22    C5485   1.400   .     D
C23    C24     1.397   .     S
C23    H31     1.083   .     S
C23    C5488   1.400   .     D
C24    H32     1.082   .     S
C24    C5489   1.402   .     D
C33    C34     1.397   .     S
C33    H41     1.082   .     S
C33    C3150   1.401   .     D
C34    H42     1.082   .     S
C34    C3151   1.399   .     D
C35    C36     1.398   .     S
C35    H43     1.083   .     S
C35    C3154   1.400   .     D
C36    H44     1.082   .     S
C36    C3155   1.401   .     D
C37    C38     1.398   .     D
C37    H45     1.082   .     S
C37    C3162   1.401   .     S
C38    H46     1.081   .     S
C38    C3163   1.400   .     S
C39    C40     1.397   .     D
C39    H47     1.083   .     S
C39    C3166   1.400   .     S
C40    H48     1.082   .     S
C40    C3167   1.402   .     S
C49    C50     1.397   .     S
C49    H57     1.082   .     S
C49    C5499   1.401   .     D
C50    H58     1.082   .     S
C50    C5500   1.399   .     D
C51    C52     1.398   .     S
C51    H59     1.083   .     S
C51    C5503   1.400   .     D
C52    H60     1.082   .     S
C52    C5504   1.401   .     D
C53    C54     1.398   .     D
C53    H61     1.082   .     S
C53    C5511   1.401   .     S
C54    H62     1.081   .     S
C54    C5512   1.400   .     S
C55    C56     1.397   .     D
C55    H63     1.083   .     S
C55    C5515   1.400   .     S
C56    H64     1.082   .     S
C56    C5516   1.402   .     S
C65    C66     1.397   .     D
C65    H73     1.082   .     S
C65    C3177   1.401   .     S
C66    H74     1.082   .     S
C66    C3178   1.399   .     S
C67    C68     1.398   .     D
C67    H75     1.083   .     S
C67    C3181   1.400   .     S
C68    H76     1.082   .     S
C68    C3182   1.401   .     S
C69    C70     1.398   .     S
C69    H77     1.082   .     S
C69    C3189   1.401   .     D
C70    H78     1.081   .     S
C70    C3190   1.400   .     D
C71    C72     1.397   .     S
C71    H79     1.083   .     S
C71    C3193   1.400   .     D
C72    H80     1.082   .     S
C72    C3194   1.402   .     D
C81    C82     1.397   .     S
C81    H89     1.082   .     S
C81    C3204   1.401   .     D
C82    H90     1.082   .     S
C82    C3205   1.399   .     D
C83    C84     1.398   .     S
C83    H91     1.083   .     S
C83    C3208   1.400   .     D
C84    H92     1.082   .     S
C84    C3209   1.401   .     D
C85    C86     1.398   .     S
C85    H93     1.082   .     S
C85    C3216   1.401   .     D
C86    H94     1.081   .     S
C86    C3217   1.400   .     D
C87    C88     1.397   .     S
C87    H95     1.083   .     S
C87    C3220   1.400   .     D
C88    H96     1.082   .     S
C88    C3221   1.402   .     D
C97    C98     1.397   .     S
C97    H105    1.082   .     S
C97    C3231   1.401   .     D
C98    H106    1.082   .     S
C98    C3232   1.399   .     D
C99    C100    1.398   .     S
C99    H107    1.083   .     S
C99    C3235   1.400   .     D
C100   H108    1.082   .     S
C100   C3236   1.401   .     D
C101   C102    1.398   .     D
C101   H109    1.082   .     S
C101   C3243   1.401   .     S
C102   H110    1.081   .     S
C102   C3244   1.400   .     S
C103   C104    1.397   .     D
C103   H111    1.083   .     S
C103   C3247   1.400   .     S
C104   H112    1.082   .     S
C104   C3248   1.402   .     S
C113   C114    1.397   .     S
C113   H121    1.082   .     S
C113   C5445   1.401   .     D
C114   H122    1.082   .     S
C114   C5446   1.399   .     D
C115   C116    1.398   .     S
C115   H123    1.083   .     S
C115   C5449   1.400   .     D
C116   H124    1.082   .     S
C116   C5450   1.401   .     D
C117   C118    1.398   .     D
C117   H125    1.082   .     S
C117   C5457   1.401   .     S
C118   H126    1.081   .     S
C118   C5458   1.400   .     S
C119   C120    1.397   .     D
C119   H127    1.083   .     S
C119   C5461   1.400   .     S
C120   H128    1.082   .     S
C120   C5462   1.402   .     S
C129   C130    1.397   .     S
C129   H137    1.082   .     S
C129   C3258   1.401   .     D
C130   H138    1.082   .     S
C130   C3259   1.399   .     D
C131   C132    1.398   .     S
C131   H139    1.083   .     S
C131   C3262   1.400   .     D
C132   H140    1.082   .     S
C132   C3263   1.401   .     D
C133   C134    1.398   .     D
C133   H141    1.082   .     S
C133   C3270   1.401   .     S
C134   H142    1.081   .     S
C134   C3271   1.400   .     S
C135   C136    1.397   .     D
C135   H143    1.083   .     S
C135   C3274   1.400   .     S
C136   H144    1.082   .     S
C136   C3275   1.402   .     S
C145   C146    1.397   .     D
C145   H153    1.082   .     S
C145   C3285   1.401   .     S
C146   H154    1.082   .     S
C146   C3286   1.399   .     S
C147   C148    1.398   .     D
C147   H155    1.083   .     S
C147   C3289   1.400   .     S
C148   H156    1.082   .     S
C148   C3290   1.401   .     S
C149   C150    1.398   .     D
C149   H157    1.082   .     S
C149   C3297   1.401   .     S
C150   H158    1.081   .     S
C150   C3298   1.400   .     S
C151   C152    1.397   .     D
C151   H159    1.083   .     S
C151   C3301   1.400   .     S
C152   H160    1.082   .     S
C152   C3302   1.402   .     S
C161   C162    1.397   .     S
C161   H169    1.082   .     S
C161   C5553   1.401   .     D
C162   H170    1.082   .     S
C162   C5554   1.399   .     D
C163   C164    1.398   .     S
C163   H171    1.083   .     S
C163   C5557   1.400   .     D
C164   H172    1.082   .     S
C164   C5558   1.401   .     D
C165   C166    1.398   .     S
C165   H173    1.082   .     S
C165   C5565   1.401   .     D
C166   H174    1.081   .     S
C166   C5566   1.400   .     D
C167   C168    1.397   .     S
C167   H175    1.083   .     S
C167   C5569   1.400   .     D
C168   H176    1.082   .     S
C168   C5570   1.402   .     D
C177   C178    1.397   .     D
C177   H185    1.082   .     S
C177   C5526   1.401   .     S
C178   H186    1.082   .     S
C178   C5527   1.399   .     S
C179   C180    1.398   .     D
C179   H187    1.083   .     S
C179   C5530   1.400   .     S
C180   H188    1.082   .     S
C180   C5531   1.401   .     S
C181   C182    1.398   .     S
C181   H189    1.082   .     S
C181   C5538   1.401   .     D
C182   H190    1.081   .     S
C182   C5539   1.400   .     D
C183   C184    1.397   .     S
C183   H191    1.083   .     S
C183   C5542   1.400   .     D
C184   H192    1.082   .     S
C184   C5543   1.402   .     D
C193   C194    1.397   .     S
C193   H201    1.082   .     S
C193   C3312   1.401   .     D
C194   H202    1.082   .     S
C194   C3313   1.399   .     D
C195   C196    1.398   .     S
C195   H203    1.083   .     S
C195   C3316   1.400   .     D
C196   H204    1.082   .     S
C196   C3317   1.401   .     D
C197   C198    1.398   .     D
C197   H205    1.082   .     S
C197   C3324   1.401   .     S
C198   H206    1.081   .     S
C198   C3325   1.400   .     S
C199   C200    1.397   .     D
C199   H207    1.083   .     S
C199   C3328   1.400   .     S
C200   H208    1.082   .     S
C200   C3329   1.402   .     S
C209   C210    1.397   .     S
C209   H217    1.082   .     S
C209   C3339   1.401   .     D
C210   H218    1.082   .     S
C210   C3340   1.399   .     D
C211   C212    1.398   .     S
C211   H219    1.083   .     S
C211   C3343   1.400   .     D
C212   H220    1.082   .     S
C212   C3344   1.401   .     D
C213   C214    1.398   .     D
C213   H221    1.082   .     S
C213   C3351   1.401   .     S
C214   H222    1.081   .     S
C214   C3352   1.400   .     S
C215   C216    1.397   .     D
C215   H223    1.083   .     S
C215   C3355   1.400   .     S
C216   H224    1.082   .     S
C216   C3356   1.402   .     S
C225   C226    1.397   .     D
C225   H233    1.082   .     S
C225   C3366   1.401   .     S
C226   H234    1.082   .     S
C226   C3367   1.399   .     S
C227   C228    1.398   .     D
C227   H235    1.083   .     S
C227   C3370   1.400   .     S
C228   H236    1.082   .     S
C228   C3371   1.401   .     S
C229   C230    1.398   .     S
C229   H237    1.082   .     S
C229   C3378   1.401   .     D
C230   H238    1.081   .     S
C230   C3379   1.400   .     D
C231   C232    1.397   .     S
C231   H239    1.083   .     S
C231   C3382   1.400   .     D
C232   H240    1.082   .     S
C232   C3383   1.402   .     D
C241   C242    1.397   .     S
C241   H249    1.082   .     S
C241   C3393   1.401   .     D
C242   H250    1.082   .     S
C242   C3394   1.399   .     D
C243   C244    1.398   .     S
C243   H251    1.083   .     S
C243   C3397   1.400   .     D
C244   H252    1.082   .     S
C244   C3398   1.401   .     D
C245   C246    1.398   .     S
C245   H253    1.082   .     S
C245   C3405   1.401   .     D
C246   H254    1.081   .     S
C246   C3406   1.400   .     D
C247   C248    1.397   .     S
C247   H255    1.083   .     S
C247   C3409   1.400   .     D
C248   H256    1.082   .     S
C248   C3410   1.402   .     D
C257   C258    1.397   .     D
C257   H265    1.082   .     S
C257   C3420   1.401   .     S
C258   H266    1.082   .     S
C258   C3421   1.399   .     S
C259   C260    1.398   .     D
C259   H267    1.083   .     S
C259   C3424   1.400   .     S
C260   H268    1.082   .     S
C260   C3425   1.401   .     S
C261   C262    1.398   .     S
C261   H269    1.082   .     S
C261   C3432   1.401   .     D
C262   H270    1.081   .     S
C262   C3433   1.400   .     D
C263   C264    1.397   .     S
C263   H271    1.083   .     S
C263   C3436   1.400   .     D
C264   H272    1.082   .     S
C264   C3437   1.402   .     D
C273   C274    1.397   .     S
C273   H281    1.082   .     S
C273   C3447   1.401   .     D
C274   H282    1.082   .     S
C274   C3448   1.399   .     D
C275   C276    1.398   .     S
C275   H283    1.083   .     S
C275   C3451   1.400   .     D
C276   H284    1.082   .     S
C276   C3452   1.401   .     D
C277   C278    1.398   .     D
C277   H285    1.082   .     S
C277   C3459   1.401   .     S
C278   H286    1.081   .     S
C278   C3460   1.400   .     S
C279   C280    1.397   .     D
C279   H287    1.083   .     S
C279   C3463   1.400   .     S
C280   H288    1.082   .     S
C280   C3464   1.402   .     S
C289   C290    1.397   .     D
C289   H297    1.082   .     S
C289   C5391   1.401   .     S
C290   H298    1.082   .     S
C290   C5392   1.399   .     S
C291   C292    1.398   .     D
C291   H299    1.083   .     S
C291   C5395   1.400   .     S
C292   H300    1.082   .     S
C292   C5396   1.401   .     S
C293   C294    1.398   .     S
C293   H301    1.082   .     S
C293   C5403   1.401   .     D
C294   H302    1.081   .     S
C294   C5404   1.400   .     D
C295   C296    1.397   .     S
C295   H303    1.083   .     S
C295   C5407   1.400   .     D
C296   H304    1.082   .     S
C296   C5408   1.402   .     D
C305   C306    1.397   .     S
C305   H313    1.082   .     S
C305   C3474   1.401   .     D
C306   H314    1.082   .     S
C306   C3475   1.399   .     D
C307   C308    1.398   .     S
C307   H315    1.083   .     S
C307   C3478   1.400   .     D
C308   H316    1.082   .     S
C308   C3479   1.401   .     D
C309   C310    1.398   .     D
C309   H317    1.082   .     S
C309   C3486   1.401   .     S
C310   H318    1.081   .     S
C310   C3487   1.400   .     S
C311   C312    1.397   .     D
C311   H319    1.083   .     S
C311   C3490   1.400   .     S
C312   H320    1.082   .     S
C312   C3491   1.402   .     S
C321   C322    1.397   .     D
C321   H329    1.082   .     S
C321   C3501   1.401   .     S
C322   H330    1.082   .     S
C322   C3502   1.399   .     S
C323   C324    1.398   .     D
C323   H331    1.083   .     S
C323   C3505   1.400   .     S
C324   H332    1.082   .     S
C324   C3506   1.401   .     S
C325   C326    1.398   .     D
C325   H333    1.082   .     S
C325   C3513   1.401   .     S
C326   H334    1.081   .     S
C326   C3514   1.400   .     S
C327   C328    1.397   .     D
C327   H335    1.083   .     S
C327   C3517   1.400   .     S
C328   H336    1.082   .     S
C328   C3518   1.402   .     S
C337   C338    1.397   .     D
C337   H345    1.082   .     S
C337   C3528   1.401   .     S
C338   H346    1.082   .     S
C338   C3529   1.399   .     S
C339   C340    1.398   .     D
C339   H347    1.083   .     S
C339   C3532   1.400   .     S
C340   H348    1.082   .     S
C340   C3533   1.401   .     S
C341   C342    1.398   .     D
C341   H349    1.082   .     S
C341   C3540   1.401   .     S
C342   H350    1.081   .     S
C342   C3541   1.400   .     S
C343   C344    1.397   .     D
C343   H351    1.083   .     S
C343   C3544   1.400   .     S
C344   H352    1.082   .     S
C344   C3545   1.402   .     S
C353   C354    1.397   .     S
C353   H361    1.082   .     S
C353   C5418   1.401   .     D
C354   H362    1.082   .     S
C354   C5419   1.399   .     D
C355   C356    1.398   .     S
C355   H363    1.083   .     S
C355   C5422   1.400   .     D
C356   H364    1.082   .     S
C356   C5423   1.401   .     D
C357   C358    1.398   .     S
C357   H365    1.082   .     S
C357   C5430   1.401   .     D
C358   H366    1.081   .     S
C358   C5431   1.400   .     D
C359   C360    1.397   .     S
C359   H367    1.083   .     S
C359   C5434   1.400   .     D
C360   H368    1.082   .     S
C360   C5435   1.402   .     D
C369   C370    1.397   .     S
C369   H377    1.082   .     S
C369   C3555   1.401   .     D
C370   H378    1.082   .     S
C370   C3556   1.399   .     D
C371   C372    1.398   .     S
C371   H379    1.083   .     S
C371   C3559   1.400   .     D
C372   H380    1.082   .     S
C372   C3560   1.401   .     D
C373   C374    1.398   .     D
C373   H381    1.082   .     S
C373   C3567   1.401   .     S
C374   H382    1.081   .     S
C374   C3568   1.400   .     S
C375   C376    1.397   .     D
C375   H383    1.083   .     S
C375   C3571   1.400   .     S
C376   H384    1.082   .     S
C376   C3572   1.402   .     S
C385   C386    1.397   .     S
C385   H393    1.082   .     S
C385   C3582   1.401   .     D
C386   H394    1.082   .     S
C386   C3583   1.399   .     D
C387   C388    1.398   .     S
C387   H395    1.083   .     S
C387   C3586   1.400   .     D
C388   H396    1.082   .     S
C388   C3587   1.401   .     D
C389   C390    1.398   .     D
C389   H397    1.082   .     S
C389   C3594   1.401   .     S
C390   H398    1.081   .     S
C390   C3595   1.400   .     S
C391   C392    1.397   .     D
C391   H399    1.083   .     S
C391   C3598   1.400   .     S
C392   H400    1.082   .     S
C392   C3599   1.402   .     S
C401   C402    1.397   .     D
C401   H409    1.082   .     S
C401   C5337   1.401   .     S
C402   H410    1.082   .     S
C402   C5338   1.399   .     S
C403   C404    1.398   .     D
C403   H411    1.083   .     S
C403   C5341   1.400   .     S
C404   H412    1.082   .     S
C404   C5342   1.401   .     S
C405   C406    1.398   .     S
C405   H413    1.082   .     S
C405   C5349   1.401   .     D
C406   H414    1.081   .     S
C406   C5350   1.400   .     D
C407   C408    1.397   .     S
C407   H415    1.083   .     S
C407   C5353   1.400   .     D
C408   H416    1.082   .     S
C408   C5354   1.402   .     D
C417   C418    1.397   .     S
C417   H425    1.082   .     S
C417   C3609   1.401   .     D
C418   H426    1.082   .     S
C418   C3610   1.399   .     D
C419   C420    1.398   .     S
C419   H427    1.083   .     S
C419   C3613   1.400   .     D
C420   H428    1.082   .     S
C420   C3614   1.401   .     D
C421   C422    1.398   .     D
C421   H429    1.082   .     S
C421   C3621   1.401   .     S
C422   H430    1.081   .     S
C422   C3622   1.400   .     S
C423   C424    1.397   .     D
C423   H431    1.083   .     S
C423   C3625   1.400   .     S
C424   H432    1.082   .     S
C424   C3626   1.402   .     S
C433   C434    1.397   .     S
C433   H441    1.082   .     S
C433   C5364   1.401   .     D
C434   H442    1.082   .     S
C434   C5365   1.399   .     D
C435   C436    1.398   .     S
C435   H443    1.083   .     S
C435   C5368   1.400   .     D
C436   H444    1.082   .     S
C436   C5369   1.401   .     D
C437   C438    1.398   .     S
C437   H445    1.082   .     S
C437   C5376   1.401   .     D
C438   H446    1.081   .     S
C438   C5377   1.400   .     D
C439   C440    1.397   .     S
C439   H447    1.083   .     S
C439   C5380   1.400   .     D
C440   H448    1.082   .     S
C440   C5381   1.402   .     D
C449   C450    1.397   .     S
C449   H457    1.082   .     S
C449   C3636   1.401   .     D
C450   H458    1.082   .     S
C450   C3637   1.399   .     D
C451   C452    1.398   .     S
C451   H459    1.083   .     S
C451   C3640   1.400   .     D
C452   H460    1.082   .     S
C452   C3641   1.401   .     D
C453   C454    1.398   .     D
C453   H461    1.082   .     S
C453   C3648   1.401   .     S
C454   H462    1.081   .     S
C454   C3649   1.400   .     S
C455   C456    1.397   .     D
C455   H463    1.083   .     S
C455   C3652   1.400   .     S
C456   H464    1.082   .     S
C456   C3653   1.402   .     S
C465   C466    1.397   .     D
C465   H473    1.082   .     S
C465   C3663   1.401   .     S
C466   H474    1.082   .     S
C466   C3664   1.399   .     S
C467   C468    1.398   .     D
C467   H475    1.083   .     S
C467   C3667   1.400   .     S
C468   H476    1.082   .     S
C468   C3668   1.401   .     S
C469   C470    1.398   .     D
C469   H477    1.082   .     S
C469   C3675   1.401   .     S
C470   H478    1.081   .     S
C470   C3676   1.400   .     S
C471   C472    1.397   .     D
C471   H479    1.083   .     S
C471   C3679   1.400   .     S
C472   H480    1.082   .     S
C472   C3680   1.402   .     S
C481   C482    1.397   .     S
C481   H489    1.082   .     S
C481   C3690   1.401   .     D
C482   H490    1.082   .     S
C482   C3691   1.399   .     D
C483   C484    1.398   .     S
C483   H491    1.083   .     S
C483   C3694   1.400   .     D
C484   H492    1.082   .     S
C484   C3695   1.401   .     D
C485   C486    1.398   .     D
C485   H493    1.082   .     S
C485   C3702   1.401   .     S
C486   H494    1.081   .     S
C486   C3703   1.400   .     S
C487   C488    1.397   .     D
C487   H495    1.083   .     S
C487   C3706   1.400   .     S
C488   H496    1.082   .     S
C488   C3707   1.402   .     S
C497   C498    1.397   .     S
C497   H505    1.082   .     S
C497   C3717   1.401   .     D
C498   H506    1.082   .     S
C498   C3718   1.399   .     D
C499   C500    1.398   .     S
C499   H507    1.083   .     S
C499   C3721   1.400   .     D
C500   H508    1.082   .     S
C500   C3722   1.401   .     D
C501   C502    1.398   .     S
C501   H509    1.082   .     S
C501   C3729   1.401   .     D
C502   H510    1.081   .     S
C502   C3730   1.400   .     D
C503   C504    1.397   .     S
C503   H511    1.083   .     S
C503   C3733   1.400   .     D
C504   H512    1.082   .     S
C504   C3734   1.402   .     D
C513   C514    1.397   .     S
C513   H521    1.082   .     S
C513   C3744   1.401   .     D
C514   H522    1.082   .     S
C514   C3745   1.399   .     D
C515   C516    1.398   .     S
C515   H523    1.083   .     S
C515   C3748   1.400   .     D
C516   H524    1.082   .     S
C516   C3749   1.401   .     D
C517   C518    1.398   .     S
C517   H525    1.082   .     S
C517   C3756   1.401   .     D
C518   H526    1.081   .     S
C518   C3757   1.400   .     D
C519   C520    1.397   .     S
C519   H527    1.083   .     S
C519   C3760   1.400   .     D
C520   H528    1.082   .     S
C520   C3761   1.402   .     D
C529   C530    1.397   .     S
C529   H537    1.082   .     S
C529   C3771   1.401   .     D
C530   H538    1.082   .     S
C530   C3772   1.399   .     D
C531   C532    1.398   .     S
C531   H539    1.083   .     S
C531   C3775   1.400   .     D
C532   H540    1.082   .     S
C532   C3776   1.401   .     D
C533   C534    1.398   .     S
C533   H541    1.082   .     S
C533   C3783   1.401   .     D
C534   H542    1.081   .     S
C534   C3784   1.400   .     D
C535   C536    1.397   .     S
C535   H543    1.083   .     S
C535   C3787   1.400   .     D
C536   H544    1.082   .     S
C536   C3788   1.402   .     D
C545   C546    1.397   .     S
C545   H553    1.082   .     S
C545   C5688   1.401   .     D
C546   H554    1.082   .     S
C546   C5689   1.399   .     D
C547   C548    1.398   .     S
C547   H555    1.083   .     S
C547   C5692   1.400   .     D
C548   H556    1.082   .     S
C548   C5693   1.401   .     D
C549   C550    1.398   .     S
C549   H557    1.082   .     S
C549   C5700   1.401   .     D
C550   H558    1.081   .     S
C550   C5701   1.400   .     D
C551   C552    1.397   .     S
C551   H559    1.083   .     S
C551   C5704   1.400   .     D
C552   H560    1.082   .     S
C552   C5705   1.402   .     D
C561   C562    1.397   .     S
C561   H569    1.082   .     S
C561   C5661   1.401   .     D
C562   H570    1.082   .     S
C562   C5662   1.399   .     D
C563   C564    1.398   .     S
C563   H571    1.083   .     S
C563   C5665   1.400   .     D
C564   H572    1.082   .     S
C564   C5666   1.401   .     D
C565   C566    1.398   .     S
C565   H573    1.082   .     S
C565   C5673   1.401   .     D
C566   H574    1.081   .     S
C566   C5674   1.400   .     D
C567   C568    1.397   .     S
C567   H575    1.083   .     S
C567   C5677   1.400   .     D
C568   H576    1.082   .     S
C568   C5678   1.402   .     D
C577   C578    1.397   .     S
C577   H585    1.082   .     S
C577   C3798   1.401   .     D
C578   H586    1.082   .     S
C578   C3799   1.399   .     D
C579   C580    1.398   .     S
C579   H587    1.083   .     S
C579   C3802   1.400   .     D
C580   H588    1.082   .     S
C580   C3803   1.401   .     D
C581   C582    1.398   .     S
C581   H589    1.082   .     S
C581   C3810   1.401   .     D
C582   H590    1.081   .     S
C582   C3811   1.400   .     D
C583   C584    1.397   .     S
C583   H591    1.083   .     S
C583   C3814   1.400   .     D
C584   H592    1.082   .     S
C584   C3815   1.402   .     D
C593   C594    1.397   .     S
C593   H601    1.082   .     S
C593   C3825   1.401   .     D
C594   H602    1.082   .     S
C594   C3826   1.399   .     D
C595   C596    1.398   .     S
C595   H603    1.083   .     S
C595   C3829   1.400   .     D
C596   H604    1.082   .     S
C596   C3830   1.401   .     D
C597   C598    1.398   .     S
C597   H605    1.082   .     S
C597   C3837   1.401   .     D
C598   H606    1.081   .     S
C598   C3838   1.400   .     D
C599   C600    1.397   .     S
C599   H607    1.083   .     S
C599   C3841   1.400   .     D
C600   H608    1.082   .     S
C600   C3842   1.402   .     D
C609   C610    1.397   .     D
C609   H617    1.082   .     S
C609   C3852   1.401   .     S
C610   H618    1.082   .     S
C610   C3853   1.399   .     S
C611   C612    1.398   .     D
C611   H619    1.083   .     S
C611   C3856   1.400   .     S
C612   H620    1.082   .     S
C612   C3857   1.401   .     S
C613   C614    1.398   .     S
C613   H621    1.082   .     S
C613   C3864   1.401   .     D
C614   H622    1.081   .     S
C614   C3865   1.400   .     D
C615   C616    1.397   .     S
C615   H623    1.083   .     S
C615   C3868   1.400   .     D
C616   H624    1.082   .     S
C616   C3869   1.402   .     D
C625   C626    1.397   .     S
C625   H633    1.082   .     S
C625   C5580   1.401   .     D
C626   H634    1.082   .     S
C626   C5581   1.399   .     D
C627   C628    1.398   .     S
C627   H635    1.083   .     S
C627   C5584   1.400   .     D
C628   H636    1.082   .     S
C628   C5585   1.401   .     D
C629   C630    1.398   .     S
C629   H637    1.082   .     S
C629   C5592   1.401   .     D
C630   H638    1.081   .     S
C630   C5593   1.400   .     D
C631   C632    1.397   .     S
C631   H639    1.083   .     S
C631   C5596   1.400   .     D
C632   H640    1.082   .     S
C632   C5597   1.402   .     D
C641   C642    1.397   .     S
C641   H649    1.082   .     S
C641   C3879   1.401   .     D
C642   H650    1.082   .     S
C642   C3880   1.399   .     D
C643   C644    1.398   .     S
C643   H651    1.083   .     S
C643   C3883   1.400   .     D
C644   H652    1.082   .     S
C644   C3884   1.401   .     D
C645   C646    1.398   .     S
C645   H653    1.082   .     S
C645   C3891   1.401   .     D
C646   H654    1.081   .     S
C646   C3892   1.400   .     D
C647   C648    1.397   .     S
C647   H655    1.083   .     S
C647   C3895   1.400   .     D
C648   H656    1.082   .     S
C648   C3896   1.402   .     D
C657   C658    1.397   .     S
C657   H665    1.082   .     S
C657   C3906   1.401   .     D
C658   H666    1.082   .     S
C658   C3907   1.399   .     D
C659   C660    1.398   .     S
C659   H667    1.083   .     S
C659   C3910   1.400   .     D
C660   H668    1.082   .     S
C660   C3911   1.401   .     D
C661   C662    1.398   .     S
C661   H669    1.082   .     S
C661   C3918   1.401   .     D
C662   H670    1.081   .     S
C662   C3919   1.400   .     D
C663   C664    1.397   .     S
C663   H671    1.083   .     S
C663   C3922   1.400   .     D
C664   H672    1.082   .     S
C664   C3923   1.402   .     D
C673   C674    1.397   .     S
C673   H681    1.082   .     S
C673   C5607   1.401   .     D
C674   H682    1.082   .     S
C674   C5608   1.399   .     D
C675   C676    1.398   .     S
C675   H683    1.083   .     S
C675   C5611   1.400   .     D
C676   H684    1.082   .     S
C676   C5612   1.401   .     D
C677   C678    1.398   .     S
C677   H685    1.082   .     S
C677   C5619   1.401   .     D
C678   H686    1.081   .     S
C678   C5620   1.400   .     D
C679   C680    1.397   .     S
C679   H687    1.083   .     S
C679   C5623   1.400   .     D
C680   H688    1.082   .     S
C680   C5624   1.402   .     D
C689   C690    1.397   .     D
C689   H697    1.082   .     S
C689   C5634   1.401   .     S
C690   H698    1.082   .     S
C690   C5635   1.399   .     S
C691   C692    1.398   .     D
C691   H699    1.083   .     S
C691   C5638   1.400   .     S
C692   H700    1.082   .     S
C692   C5639   1.401   .     S
C693   C694    1.398   .     S
C693   H701    1.082   .     S
C693   C5646   1.401   .     D
C694   H702    1.081   .     S
C694   C5647   1.400   .     D
C695   C696    1.397   .     S
C695   H703    1.083   .     S
C695   C5650   1.400   .     D
C696   H704    1.082   .     S
C696   C5651   1.402   .     D
C705   C706    1.397   .     S
C705   H713    1.082   .     S
C705   C3933   1.401   .     D
C706   H714    1.082   .     S
C706   C3934   1.399   .     D
C707   C708    1.398   .     S
C707   H715    1.083   .     S
C707   C3937   1.400   .     D
C708   H716    1.082   .     S
C708   C3938   1.401   .     D
C709   C710    1.398   .     S
C709   H717    1.082   .     S
C709   C3945   1.401   .     D
C710   H718    1.081   .     S
C710   C3946   1.400   .     D
C711   C712    1.397   .     S
C711   H719    1.083   .     S
C711   C3949   1.400   .     D
C712   H720    1.082   .     S
C712   C3950   1.402   .     D
C721   C722    1.397   .     S
C721   H729    1.082   .     S
C721   C3960   1.401   .     D
C722   H730    1.082   .     S
C722   C3961   1.399   .     D
C723   C724    1.398   .     S
C723   H731    1.083   .     S
C723   C3964   1.400   .     D
C724   H732    1.082   .     S
C724   C3965   1.401   .     D
C725   C726    1.398   .     S
C725   H733    1.082   .     S
C725   C3972   1.401   .     D
C726   H734    1.081   .     S
C726   C3973   1.400   .     D
C727   C728    1.397   .     S
C727   H735    1.083   .     S
C727   C3976   1.400   .     D
C728   H736    1.082   .     S
C728   C3977   1.402   .     D
C737   C738    1.397   .     S
C737   H745    1.082   .     S
C737   C3987   1.401   .     D
C738   H746    1.082   .     S
C738   C3988   1.399   .     D
C739   C740    1.398   .     S
C739   H747    1.083   .     S
C739   C3991   1.400   .     D
C740   H748    1.082   .     S
C740   C3992   1.401   .     D
C741   C742    1.398   .     S
C741   H749    1.082   .     S
C741   C3999   1.401   .     D
C742   H750    1.081   .     S
C742   C4000   1.400   .     D
C743   C744    1.397   .     S
C743   H751    1.083   .     S
C743   C4003   1.400   .     D
C744   H752    1.082   .     S
C744   C4004   1.402   .     D
C753   C754    1.397   .     S
C753   H761    1.082   .     S
C753   C4014   1.401   .     D
C754   H762    1.082   .     S
C754   C4015   1.399   .     D
C755   C756    1.398   .     S
C755   H763    1.083   .     S
C755   C4018   1.400   .     D
C756   H764    1.082   .     S
C756   C4019   1.401   .     D
C757   C758    1.398   .     S
C757   H765    1.082   .     S
C757   C4026   1.401   .     D
C758   H766    1.081   .     S
C758   C4027   1.400   .     D
C759   C760    1.397   .     S
C759   H767    1.083   .     S
C759   C4030   1.400   .     D
C760   H768    1.082   .     S
C760   C4031   1.402   .     D
C769   C770    1.397   .     S
C769   H777    1.082   .     S
C769   C4041   1.401   .     D
C770   H778    1.082   .     S
C770   C4042   1.399   .     D
C771   C772    1.398   .     S
C771   H779    1.083   .     S
C771   C4045   1.400   .     D
C772   H780    1.082   .     S
C772   C4046   1.401   .     D
C773   C774    1.398   .     S
C773   H781    1.082   .     S
C773   C4053   1.401   .     D
C774   H782    1.081   .     S
C774   C4054   1.400   .     D
C775   C776    1.397   .     S
C775   H783    1.083   .     S
C775   C4057   1.400   .     D
C776   H784    1.082   .     S
C776   C4058   1.402   .     D
C785   C786    1.397   .     S
C785   H793    1.082   .     S
C785   C5121   1.401   .     D
C786   H794    1.082   .     S
C786   C5122   1.399   .     D
C787   C788    1.398   .     S
C787   H795    1.083   .     S
C787   C5125   1.400   .     D
C788   H796    1.082   .     S
C788   C5126   1.401   .     D
C789   C790    1.398   .     S
C789   H797    1.082   .     S
C789   C5133   1.401   .     D
C790   H798    1.081   .     S
C790   C5134   1.400   .     D
C791   C792    1.397   .     S
C791   H799    1.083   .     S
C791   C5137   1.400   .     D
C792   H800    1.082   .     S
C792   C5138   1.402   .     D
C801   C802    1.397   .     S
C801   H809    1.082   .     S
C801   C4068   1.401   .     D
C802   H810    1.082   .     S
C802   C4069   1.399   .     D
C803   C804    1.398   .     S
C803   H811    1.083   .     S
C803   C4072   1.400   .     D
C804   H812    1.082   .     S
C804   C4073   1.401   .     D
C805   C806    1.398   .     S
C805   H813    1.082   .     S
C805   C4080   1.401   .     D
C806   H814    1.081   .     S
C806   C4081   1.400   .     D
C807   C808    1.397   .     S
C807   H815    1.083   .     S
C807   C4084   1.400   .     D
C808   H816    1.082   .     S
C808   C4085   1.402   .     D
C817   C818    1.397   .     D
C817   H825    1.082   .     S
C817   C5148   1.401   .     S
C818   H826    1.082   .     S
C818   C5149   1.399   .     S
C819   C820    1.398   .     D
C819   H827    1.083   .     S
C819   C5152   1.400   .     S
C820   H828    1.082   .     S
C820   C5153   1.401   .     S
C821   C822    1.398   .     S
C821   H829    1.082   .     S
C821   C5160   1.401   .     D
C822   H830    1.081   .     S
C822   C5161   1.400   .     D
C823   C824    1.397   .     S
C823   H831    1.083   .     S
C823   C5164   1.400   .     D
C824   H832    1.082   .     S
C824   C5165   1.402   .     D
C833   C834    1.397   .     S
C833   H841    1.082   .     S
C833   C4095   1.401   .     D
C834   H842    1.082   .     S
C834   C4096   1.399   .     D
C835   C836    1.398   .     S
C835   H843    1.083   .     S
C835   C4099   1.400   .     D
C836   H844    1.082   .     S
C836   C4100   1.401   .     D
C837   C838    1.398   .     S
C837   H845    1.082   .     S
C837   C4107   1.401   .     D
C838   H846    1.081   .     S
C838   C4108   1.400   .     D
C839   C840    1.397   .     S
C839   H847    1.083   .     S
C839   C4111   1.400   .     D
C840   H848    1.082   .     S
C840   C4112   1.402   .     D
C849   C850    1.397   .     S
C849   H857    1.082   .     S
C849   C4122   1.401   .     D
C850   H858    1.082   .     S
C850   C4123   1.399   .     D
C851   C852    1.398   .     S
C851   H859    1.083   .     S
C851   C4126   1.400   .     D
C852   H860    1.082   .     S
C852   C4127   1.401   .     D
C853   C854    1.398   .     S
C853   H861    1.082   .     S
C853   C4134   1.401   .     D
C854   H862    1.081   .     S
C854   C4135   1.400   .     D
C855   C856    1.397   .     S
C855   H863    1.083   .     S
C855   C4138   1.400   .     D
C856   H864    1.082   .     S
C856   C4139   1.402   .     D
C865   C866    1.397   .     S
C865   H873    1.082   .     S
C865   C5040   1.401   .     D
C866   H874    1.082   .     S
C866   C5041   1.399   .     D
C867   C868    1.398   .     S
C867   H875    1.083   .     S
C867   C5044   1.400   .     D
C868   H876    1.082   .     S
C868   C5045   1.401   .     D
C869   C870    1.398   .     S
C869   H877    1.082   .     S
C869   C5052   1.401   .     D
C870   H878    1.081   .     S
C870   C5053   1.400   .     D
C871   C872    1.397   .     S
C871   H879    1.083   .     S
C871   C5056   1.400   .     D
C872   H880    1.082   .     S
C872   C5057   1.402   .     D
C881   C882    1.397   .     S
C881   H889    1.082   .     S
C881   C4149   1.401   .     D
C882   H890    1.082   .     S
C882   C4150   1.399   .     D
C883   C884    1.398   .     S
C883   H891    1.083   .     S
C883   C4153   1.400   .     D
C884   H892    1.082   .     S
C884   C4154   1.401   .     D
C885   C886    1.398   .     S
C885   H893    1.082   .     S
C885   C4161   1.401   .     D
C886   H894    1.081   .     S
C886   C4162   1.400   .     D
C887   C888    1.397   .     S
C887   H895    1.083   .     S
C887   C4165   1.400   .     D
C888   H896    1.082   .     S
C888   C4166   1.402   .     D
C897   C898    1.397   .     S
C897   H905    1.082   .     S
C897   C4176   1.401   .     D
C898   H906    1.082   .     S
C898   C4177   1.399   .     D
C899   C900    1.398   .     S
C899   H907    1.083   .     S
C899   C4180   1.400   .     D
C900   H908    1.082   .     S
C900   C4181   1.401   .     D
C901   C902    1.398   .     S
C901   H909    1.082   .     S
C901   C4188   1.401   .     D
C902   H910    1.081   .     S
C902   C4189   1.400   .     D
C903   C904    1.397   .     S
C903   H911    1.083   .     S
C903   C4192   1.400   .     D
C904   H912    1.082   .     S
C904   C4193   1.402   .     D
C913   C914    1.397   .     S
C913   H921    1.082   .     S
C913   C4203   1.401   .     D
C914   H922    1.082   .     S
C914   C4204   1.399   .     D
C915   C916    1.398   .     S
C915   H923    1.083   .     S
C915   C4207   1.400   .     D
C916   H924    1.082   .     S
C916   C4208   1.401   .     D
C917   C918    1.398   .     S
C917   H925    1.082   .     S
C917   C4215   1.401   .     D
C918   H926    1.081   .     S
C918   C4216   1.400   .     D
C919   C920    1.397   .     S
C919   H927    1.083   .     S
C919   C4219   1.400   .     D
C920   H928    1.082   .     S
C920   C4220   1.402   .     D
C929   C930    1.397   .     S
C929   H937    1.082   .     S
C929   C4230   1.401   .     D
C930   H938    1.082   .     S
C930   C4231   1.399   .     D
C931   C932    1.398   .     S
C931   H939    1.083   .     S
C931   C4234   1.400   .     D
C932   H940    1.082   .     S
C932   C4235   1.401   .     D
C933   C934    1.398   .     S
C933   H941    1.082   .     S
C933   C4242   1.401   .     D
C934   H942    1.081   .     S
C934   C4243   1.400   .     D
C935   C936    1.397   .     S
C935   H943    1.083   .     S
C935   C4246   1.400   .     D
C936   H944    1.082   .     S
C936   C4247   1.402   .     D
C945   C946    1.397   .     S
C945   H953    1.082   .     S
C945   C4257   1.401   .     D
C946   H954    1.082   .     S
C946   C4258   1.399   .     D
C947   C948    1.398   .     S
C947   H955    1.083   .     S
C947   C4261   1.400   .     D
C948   H956    1.082   .     S
C948   C4262   1.401   .     D
C949   C950    1.398   .     S
C949   H957    1.082   .     S
C949   C4269   1.401   .     D
C950   H958    1.081   .     S
C950   C4270   1.400   .     D
C951   C952    1.397   .     S
C951   H959    1.083   .     S
C951   C4273   1.400   .     D
C952   H960    1.082   .     S
C952   C4274   1.402   .     D
C961   C962    1.397   .     S
C961   H969    1.082   .     S
C961   C4284   1.401   .     D
C962   H970    1.082   .     S
C962   C4285   1.399   .     D
C963   C964    1.398   .     S
C963   H971    1.083   .     S
C963   C4288   1.400   .     D
C964   H972    1.082   .     S
C964   C4289   1.401   .     D
C965   C966    1.398   .     S
C965   H973    1.082   .     S
C965   C4296   1.401   .     D
C966   H974    1.081   .     S
C966   C4297   1.400   .     D
C967   C968    1.397   .     S
C967   H975    1.083   .     S
C967   C4300   1.400   .     D
C968   H976    1.082   .     S
C968   C4301   1.402   .     D
C977   C978    1.397   .     S
C977   H985    1.082   .     S
C977   C4311   1.401   .     D
C978   H986    1.082   .     S
C978   C4312   1.399   .     D
C979   C980    1.398   .     S
C979   H987    1.083   .     S
C979   C4315   1.400   .     D
C980   H988    1.082   .     S
C980   C4316   1.401   .     D
C981   C982    1.398   .     S
C981   H989    1.082   .     S
C981   C4323   1.401   .     D
C982   H990    1.081   .     S
C982   C4324   1.400   .     D
C983   C984    1.397   .     S
C983   H991    1.083   .     S
C983   C4327   1.400   .     D
C984   H992    1.082   .     S
C984   C4328   1.402   .     D
C993   C994    1.397   .     D
C993   H1001   1.082   .     S
C993   C5094   1.401   .     S
C994   H1002   1.082   .     S
C994   C5095   1.399   .     S
C995   C996    1.398   .     D
C995   H1003   1.083   .     S
C995   C5098   1.400   .     S
C996   H1004   1.082   .     S
C996   C5099   1.401   .     S
C997   C998    1.398   .     S
C997   H1005   1.082   .     S
C997   C5106   1.401   .     D
C998   H1006   1.081   .     S
C998   C5107   1.400   .     D
C999   C1000   1.397   .     S
C999   H1007   1.083   .     S
C999   C5110   1.400   .     D
C1000  H1008   1.082   .     S
C1000  C5111   1.402   .     D
C1009  C1010   1.397   .     S
C1009  H1017   1.082   .     S
C1009  C5067   1.401   .     D
C1010  H1018   1.082   .     S
C1010  C5068   1.399   .     D
C1011  C1012   1.398   .     S
C1011  H1019   1.083   .     S
C1011  C5071   1.400   .     D
C1012  H1020   1.082   .     S
C1012  C5072   1.401   .     D
C1013  C1014   1.398   .     S
C1013  H1021   1.082   .     S
C1013  C5079   1.401   .     D
C1014  H1022   1.081   .     S
C1014  C5080   1.400   .     D
C1015  C1016   1.397   .     S
C1015  H1023   1.083   .     S
C1015  C5083   1.400   .     D
C1016  H1024   1.082   .     S
C1016  C5084   1.402   .     D
C1025  C1026   1.397   .     S
C1025  H1033   1.082   .     S
C1025  C4338   1.401   .     D
C1026  H1034   1.082   .     S
C1026  C4339   1.399   .     D
C1027  C1028   1.398   .     S
C1027  H1035   1.083   .     S
C1027  C4342   1.400   .     D
C1028  H1036   1.082   .     S
C1028  C4343   1.401   .     D
C1029  C1030   1.398   .     D
C1029  H1037   1.082   .     S
C1029  C4350   1.401   .     S
C1030  H1038   1.081   .     S
C1030  C4351   1.400   .     S
C1031  C1032   1.397   .     D
C1031  H1039   1.083   .     S
C1031  C4354   1.400   .     S
C1032  H1040   1.082   .     S
C1032  C4355   1.402   .     S
C1041  C1042   1.397   .     S
C1041  H1049   1.082   .     S
C1041  C4365   1.401   .     D
C1042  H1050   1.082   .     S
C1042  C4366   1.399   .     D
C1043  C1044   1.398   .     S
C1043  H1051   1.083   .     S
C1043  C4369   1.400   .     D
C1044  H1052   1.082   .     S
C1044  C4370   1.401   .     D
C1045  C1046   1.398   .     D
C1045  H1053   1.082   .     S
C1045  C4377   1.401   .     S
C1046  H1054   1.081   .     S
C1046  C4378   1.400   .     S
C1047  C1048   1.397   .     D
C1047  H1055   1.083   .     S
C1047  C4381   1.400   .     S
C1048  H1056   1.082   .     S
C1048  C4382   1.402   .     S
C1057  C1058   1.397   .     D
C1057  H1065   1.082   .     S
C1057  C4932   1.401   .     S
C1058  H1066   1.082   .     S
C1058  C4933   1.399   .     S
C1059  C1060   1.398   .     D
C1059  H1067   1.083   .     S
C1059  C4936   1.400   .     S
C1060  H1068   1.082   .     S
C1060  C4937   1.401   .     S
C1061  C1062   1.398   .     S
C1061  H1069   1.082   .     S
C1061  C4944   1.401   .     D
C1062  H1070   1.081   .     S
C1062  C4945   1.400   .     D
C1063  C1064   1.397   .     S
C1063  H1071   1.083   .     S
C1063  C4948   1.400   .     D
C1064  H1072   1.082   .     S
C1064  C4949   1.402   .     D
C1073  C1074   1.397   .     S
C1073  H1081   1.082   .     S
C1073  C4959   1.401   .     D
C1074  H1082   1.082   .     S
C1074  C4960   1.399   .     D
C1075  C1076   1.398   .     S
C1075  H1083   1.083   .     S
C1075  C4963   1.400   .     D
C1076  H1084   1.082   .     S
C1076  C4964   1.401   .     D
C1077  C1078   1.398   .     S
C1077  H1085   1.082   .     S
C1077  C4971   1.401   .     D
C1078  H1086   1.081   .     S
C1078  C4972   1.400   .     D
C1079  C1080   1.397   .     S
C1079  H1087   1.083   .     S
C1079  C4975   1.400   .     D
C1080  H1088   1.082   .     S
C1080  C4976   1.402   .     D
C1089  C1090   1.397   .     S
C1089  H1097   1.082   .     S
C1089  C4392   1.401   .     D
C1090  H1098   1.082   .     S
C1090  C4393   1.399   .     D
C1091  C1092   1.398   .     S
C1091  H1099   1.083   .     S
C1091  C4396   1.400   .     D
C1092  H1100   1.082   .     S
C1092  C4397   1.401   .     D
C1093  C1094   1.398   .     D
C1093  H1101   1.082   .     S
C1093  C4404   1.401   .     S
C1094  H1102   1.081   .     S
C1094  C4405   1.400   .     S
C1095  C1096   1.397   .     D
C1095  H1103   1.083   .     S
C1095  C4408   1.400   .     S
C1096  H1104   1.082   .     S
C1096  C4409   1.402   .     S
C1105  C1106   1.397   .     S
C1105  H1113   1.082   .     S
C1105  C4419   1.401   .     D
C1106  H1114   1.082   .     S
C1106  C4420   1.399   .     D
C1107  C1108   1.398   .     S
C1107  H1115   1.083   .     S
C1107  C4423   1.400   .     D
C1108  H1116   1.082   .     S
C1108  C4424   1.401   .     D
C1109  C1110   1.398   .     D
C1109  H1117   1.082   .     S
C1109  C4431   1.401   .     S
C1110  H1118   1.081   .     S
C1110  C4432   1.400   .     S
C1111  C1112   1.397   .     D
C1111  H1119   1.083   .     S
C1111  C4435   1.400   .     S
C1112  H1120   1.082   .     S
C1112  C4436   1.402   .     S
C1121  C1122   1.397   .     S
C1121  H1129   1.082   .     S
C1121  C4446   1.401   .     D
C1122  H1130   1.082   .     S
C1122  C4447   1.399   .     D
C1123  C1124   1.398   .     S
C1123  H1131   1.083   .     S
C1123  C4450   1.400   .     D
C1124  H1132   1.082   .     S
C1124  C4451   1.401   .     D
C1125  C1126   1.398   .     S
C1125  H1133   1.082   .     S
C1125  C4458   1.401   .     D
C1126  H1134   1.081   .     S
C1126  C4459   1.400   .     D
C1127  C1128   1.397   .     S
C1127  H1135   1.083   .     S
C1127  C4462   1.400   .     D
C1128  H1136   1.082   .     S
C1128  C4463   1.402   .     D
C1137  C1138   1.397   .     D
C1137  H1145   1.082   .     S
C1137  C4473   1.401   .     S
C1138  H1146   1.082   .     S
C1138  C4474   1.399   .     S
C1139  C1140   1.398   .     D
C1139  H1147   1.083   .     S
C1139  C4477   1.400   .     S
C1140  H1148   1.082   .     S
C1140  C4478   1.401   .     S
C1141  C1142   1.398   .     D
C1141  H1149   1.082   .     S
C1141  C4485   1.401   .     S
C1142  H1150   1.081   .     S
C1142  C4486   1.400   .     S
C1143  C1144   1.397   .     D
C1143  H1151   1.083   .     S
C1143  C4489   1.400   .     S
C1144  H1152   1.082   .     S
C1144  C4490   1.402   .     S
C1153  C1154   1.397   .     S
C1153  H1161   1.082   .     S
C1153  C4500   1.401   .     D
C1154  H1162   1.082   .     S
C1154  C4501   1.399   .     D
C1155  C1156   1.398   .     S
C1155  H1163   1.083   .     S
C1155  C4504   1.400   .     D
C1156  H1164   1.082   .     S
C1156  C4505   1.401   .     D
C1157  C1158   1.398   .     S
C1157  H1165   1.082   .     S
C1157  C4512   1.401   .     D
C1158  H1166   1.081   .     S
C1158  C4513   1.400   .     D
C1159  C1160   1.397   .     S
C1159  H1167   1.083   .     S
C1159  C4516   1.400   .     D
C1160  H1168   1.082   .     S
C1160  C4517   1.402   .     D
C1169  C1170   1.397   .     D
C1169  H1177   1.082   .     S
C1169  C4878   1.401   .     S
C1170  H1178   1.082   .     S
C1170  C4879   1.399   .     S
C1171  C1172   1.398   .     D
C1171  H1179   1.083   .     S
C1171  C4882   1.400   .     S
C1172  H1180   1.082   .     S
C1172  C4883   1.401   .     S
C1173  C1174   1.398   .     S
C1173  H1181   1.082   .     S
C1173  C4890   1.401   .     D
C1174  H1182   1.081   .     S
C1174  C4891   1.400   .     D
C1175  C1176   1.397   .     S
C1175  H1183   1.083   .     S
C1175  C4894   1.400   .     D
C1176  H1184   1.082   .     S
C1176  C4895   1.402   .     D
C1185  C1186   1.397   .     S
C1185  H1193   1.082   .     S
C1185  C4527   1.401   .     D
C1186  H1194   1.082   .     S
C1186  C4528   1.399   .     D
C1187  C1188   1.398   .     S
C1187  H1195   1.083   .     S
C1187  C4531   1.400   .     D
C1188  H1196   1.082   .     S
C1188  C4532   1.401   .     D
C1189  C1190   1.398   .     D
C1189  H1197   1.082   .     S
C1189  C4539   1.401   .     S
C1190  H1198   1.081   .     S
C1190  C4540   1.400   .     S
C1191  C1192   1.397   .     D
C1191  H1199   1.083   .     S
C1191  C4543   1.400   .     S
C1192  H1200   1.082   .     S
C1192  C4544   1.402   .     S
C1201  C1202   1.397   .     S
C1201  H1209   1.082   .     S
C1201  C4905   1.401   .     D
C1202  H1210   1.082   .     S
C1202  C4906   1.399   .     D
C1203  C1204   1.398   .     S
C1203  H1211   1.083   .     S
C1203  C4909   1.400   .     D
C1204  H1212   1.082   .     S
C1204  C4910   1.401   .     D
C1205  C1206   1.398   .     D
C1205  H1213   1.082   .     S
C1205  C4917   1.401   .     S
C1206  H1214   1.081   .     S
C1206  C4918   1.400   .     S
C1207  C1208   1.397   .     D
C1207  H1215   1.083   .     S
C1207  C4921   1.400   .     S
C1208  H1216   1.082   .     S
C1208  C4922   1.402   .     S
C1217  C1218   1.397   .     D
C1217  H1225   1.082   .     S
C1217  C4554   1.401   .     S
C1218  H1226   1.082   .     S
C1218  C4555   1.399   .     S
C1219  C1220   1.398   .     D
C1219  H1227   1.083   .     S
C1219  C4558   1.400   .     S
C1220  H1228   1.082   .     S
C1220  C4559   1.401   .     S
C1221  C1222   1.398   .     S
C1221  H1229   1.082   .     S
C1221  C4566   1.401   .     D
C1222  H1230   1.081   .     S
C1222  C4567   1.400   .     D
C1223  C1224   1.397   .     S
C1223  H1231   1.083   .     S
C1223  C4570   1.400   .     D
C1224  H1232   1.082   .     S
C1224  C4571   1.402   .     D
C1233  C1234   1.397   .     S
C1233  H1241   1.082   .     S
C1233  C4581   1.401   .     D
C1234  H1242   1.082   .     S
C1234  C4582   1.399   .     D
C1235  C1236   1.398   .     S
C1235  H1243   1.083   .     S
C1235  C4585   1.400   .     D
C1236  H1244   1.082   .     S
C1236  C4586   1.401   .     D
C1237  C1238   1.398   .     S
C1237  H1245   1.082   .     S
C1237  C4593   1.401   .     D
C1238  H1246   1.081   .     S
C1238  C4594   1.400   .     D
C1239  C1240   1.397   .     S
C1239  H1247   1.083   .     S
C1239  C4597   1.400   .     D
C1240  H1248   1.082   .     S
C1240  C4598   1.402   .     D
C1249  C1250   1.397   .     S
C1249  H1257   1.082   .     S
C1249  C5013   1.401   .     D
C1250  H1258   1.082   .     S
C1250  C5014   1.399   .     D
C1251  C1252   1.398   .     S
C1251  H1259   1.083   .     S
C1251  C5017   1.400   .     D
C1252  H1260   1.082   .     S
C1252  C5018   1.401   .     D
C1253  C1254   1.398   .     D
C1253  H1261   1.082   .     S
C1253  C5025   1.401   .     S
C1254  H1262   1.081   .     S
C1254  C5026   1.400   .     S
C1255  C1256   1.397   .     D
C1255  H1263   1.083   .     S
C1255  C5029   1.400   .     S
C1256  H1264   1.082   .     S
C1256  C5030   1.402   .     S
C1265  C1266   1.397   .     S
C1265  H1273   1.082   .     S
C1265  C4986   1.401   .     D
C1266  H1274   1.082   .     S
C1266  C4987   1.399   .     D
C1267  C1268   1.398   .     S
C1267  H1275   1.083   .     S
C1267  C4990   1.400   .     D
C1268  H1276   1.082   .     S
C1268  C4991   1.401   .     D
C1269  C1270   1.398   .     D
C1269  H1277   1.082   .     S
C1269  C4998   1.401   .     S
C1270  H1278   1.081   .     S
C1270  C4999   1.400   .     S
C1271  C1272   1.397   .     D
C1271  H1279   1.083   .     S
C1271  C5002   1.400   .     S
C1272  H1280   1.082   .     S
C1272  C5003   1.402   .     S
C1281  C1282   1.397   .     S
C1281  H1289   1.082   .     S
C1281  C4608   1.401   .     D
C1282  H1290   1.082   .     S
C1282  C4609   1.399   .     D
C1283  C1284   1.398   .     S
C1283  H1291   1.083   .     S
C1283  C4612   1.400   .     D
C1284  H1292   1.082   .     S
C1284  C4613   1.401   .     D
C1285  C1286   1.398   .     D
C1285  H1293   1.082   .     S
C1285  C4620   1.401   .     S
C1286  H1294   1.081   .     S
C1286  C4621   1.400   .     S
C1287  C1288   1.397   .     D
C1287  H1295   1.083   .     S
C1287  C4624   1.400   .     S
C1288  H1296   1.082   .     S
C1288  C4625   1.402   .     S
C1297  C1298   1.397   .     D
C1297  H1305   1.082   .     S
C1297  C4635   1.401   .     S
C1298  H1306   1.082   .     S
C1298  C4636   1.399   .     S
C1299  C1300   1.398   .     D
C1299  H1307   1.083   .     S
C1299  C4639   1.400   .     S
C1300  H1308   1.082   .     S
C1300  C4640   1.401   .     S
C1301  C1302   1.398   .     D
C1301  H1309   1.082   .     S
C1301  C4647   1.401   .     S
C1302  H1310   1.081   .     S
C1302  C4648   1.400   .     S
C1303  C1304   1.397   .     D
C1303  H1311   1.083   .     S
C1303  C4651   1.400   .     S
C1304  H1312   1.082   .     S
C1304  C4652   1.402   .     S
C1313  C1314   1.397   .     S
C1313  H1321   1.082   .     S
C1313  C4662   1.401   .     D
C1314  H1322   1.082   .     S
C1314  C4663   1.399   .     D
C1315  C1316   1.398   .     S
C1315  H1323   1.083   .     S
C1315  C4666   1.400   .     D
C1316  H1324   1.082   .     S
C1316  C4667   1.401   .     D
C1317  C1318   1.398   .     S
C1317  H1325   1.082   .     S
C1317  C4674   1.401   .     D
C1318  H1326   1.081   .     S
C1318  C4675   1.400   .     D
C1319  C1320   1.397   .     S
C1319  H1327   1.083   .     S
C1319  C4678   1.400   .     D
C1320  H1328   1.082   .     S
C1320  C4679   1.402   .     D
C1329  C1330   1.397   .     S
C1329  H1337   1.082   .     S
C1329  C4689   1.401   .     D
C1330  H1338   1.082   .     S
C1330  C4690   1.399   .     D
C1331  C1332   1.398   .     S
C1331  H1339   1.083   .     S
C1331  C4693   1.400   .     D
C1332  H1340   1.082   .     S
C1332  C4694   1.401   .     D
C1333  C1334   1.398   .     D
C1333  H1341   1.082   .     S
C1333  C4701   1.401   .     S
C1334  H1342   1.081   .     S
C1334  C4702   1.400   .     S
C1335  C1336   1.397   .     D
C1335  H1343   1.083   .     S
C1335  C4705   1.400   .     S
C1336  H1344   1.082   .     S
C1336  C4706   1.402   .     S
C1345  C1346   1.397   .     S
C1345  H1353   1.082   .     S
C1345  C4716   1.401   .     D
C1346  H1354   1.082   .     S
C1346  C4717   1.399   .     D
C1347  C1348   1.398   .     S
C1347  H1355   1.083   .     S
C1347  C4720   1.400   .     D
C1348  H1356   1.082   .     S
C1348  C4721   1.401   .     D
C1349  C1350   1.398   .     D
C1349  H1357   1.082   .     S
C1349  C4728   1.401   .     S
C1350  H1358   1.081   .     S
C1350  C4729   1.400   .     S
C1351  C1352   1.397   .     D
C1351  H1359   1.083   .     S
C1351  C4732   1.400   .     S
C1352  H1360   1.082   .     S
C1352  C4733   1.402   .     S
C1361  C1362   1.397   .     D
C1361  H1369   1.082   .     S
C1361  C5229   1.401   .     S
C1362  H1370   1.082   .     S
C1362  C5230   1.399   .     S
C1363  C1364   1.398   .     D
C1363  H1371   1.083   .     S
C1363  C5233   1.400   .     S
C1364  H1372   1.082   .     S
C1364  C5234   1.401   .     S
C1365  C1366   1.398   .     S
C1365  H1373   1.082   .     S
C1365  C5241   1.401   .     D
C1366  H1374   1.081   .     S
C1366  C5242   1.400   .     D
C1367  C1368   1.397   .     S
C1367  H1375   1.083   .     S
C1367  C5245   1.400   .     D
C1368  H1376   1.082   .     S
C1368  C5246   1.402   .     D
C1377  C1378   1.397   .     S
C1377  H1385   1.082   .     S
C1377  C4743   1.401   .     D
C1378  H1386   1.082   .     S
C1378  C4744   1.399   .     D
C1379  C1380   1.398   .     S
C1379  H1387   1.083   .     S
C1379  C4747   1.400   .     D
C1380  H1388   1.082   .     S
C1380  C4748   1.401   .     D
C1381  C1382   1.398   .     S
C1381  H1389   1.082   .     S
C1381  C4755   1.401   .     D
C1382  H1390   1.081   .     S
C1382  C4756   1.400   .     D
C1383  C1384   1.397   .     S
C1383  H1391   1.083   .     S
C1383  C4759   1.400   .     D
C1384  H1392   1.082   .     S
C1384  C4760   1.402   .     D
C1393  C1394   1.397   .     S
C1393  H1401   1.082   .     S
C1393  C5256   1.401   .     D
C1394  H1402   1.082   .     S
C1394  C5257   1.399   .     D
C1395  C1396   1.398   .     S
C1395  H1403   1.083   .     S
C1395  C5260   1.400   .     D
C1396  H1404   1.082   .     S
C1396  C5261   1.401   .     D
C1397  C1398   1.398   .     D
C1397  H1405   1.082   .     S
C1397  C5268   1.401   .     S
C1398  H1406   1.081   .     S
C1398  C5269   1.400   .     S
C1399  C1400   1.397   .     D
C1399  H1407   1.083   .     S
C1399  C5272   1.400   .     S
C1400  H1408   1.082   .     S
C1400  C5273   1.402   .     S
C1409  C1410   1.397   .     D
C1409  H1417   1.082   .     S
C1409  C4770   1.401   .     S
C1410  H1418   1.082   .     S
C1410  C4771   1.399   .     S
C1411  C1412   1.398   .     D
C1411  H1419   1.083   .     S
C1411  C4774   1.400   .     S
C1412  H1420   1.082   .     S
C1412  C4775   1.401   .     S
C1413  C1414   1.398   .     S
C1413  H1421   1.082   .     S
C1413  C4782   1.401   .     D
C1414  H1422   1.081   .     S
C1414  C4783   1.400   .     D
C1415  C1416   1.397   .     S
C1415  H1423   1.083   .     S
C1415  C4786   1.400   .     D
C1416  H1424   1.082   .     S
C1416  C4787   1.402   .     D
C1425  C1426   1.397   .     S
C1425  H1433   1.082   .     S
C1425  C4797   1.401   .     D
C1426  H1434   1.082   .     S
C1426  C4798   1.399   .     D
C1427  C1428   1.398   .     S
C1427  H1435   1.083   .     S
C1427  C4801   1.400   .     D
C1428  H1436   1.082   .     S
C1428  C4802   1.401   .     D
C1429  C1430   1.398   .     D
C1429  H1437   1.082   .     S
C1429  C4809   1.401   .     S
C1430  H1438   1.081   .     S
C1430  C4810   1.400   .     S
C1431  C1432   1.397   .     D
C1431  H1439   1.083   .     S
C1431  C4813   1.400   .     S
C1432  H1440   1.082   .     S
C1432  C4814   1.402   .     S
C1441  C1442   1.397   .     S
C1441  H1449   1.082   .     S
C1441  C5283   1.401   .     D
C1442  H1450   1.082   .     S
C1442  C5284   1.399   .     D
C1443  C1444   1.398   .     S
C1443  H1451   1.083   .     S
C1443  C5287   1.400   .     D
C1444  H1452   1.082   .     S
C1444  C5288   1.401   .     D
C1445  C1446   1.398   .     D
C1445  H1453   1.082   .     S
C1445  C5295   1.401   .     S
C1446  H1454   1.081   .     S
C1446  C5296   1.400   .     S
C1447  C1448   1.397   .     D
C1447  H1455   1.083   .     S
C1447  C5299   1.400   .     S
C1448  H1456   1.082   .     S
C1448  C5300   1.402   .     S
C1457  C1458   1.397   .     S
C1457  H1465   1.082   .     S
C1457  C5310   1.401   .     D
C1458  H1466   1.082   .     S
C1458  C5311   1.399   .     D
C1459  C1460   1.398   .     S
C1459  H1467   1.083   .     S
C1459  C5314   1.400   .     D
C1460  H1468   1.082   .     S
C1460  C5315   1.401   .     D
C1461  C1462   1.398   .     S
C1461  H1469   1.082   .     S
C1461  C5322   1.401   .     D
C1462  H1470   1.081   .     S
C1462  C5323   1.400   .     D
C1463  C1464   1.397   .     S
C1463  H1471   1.083   .     S
C1463  C5326   1.400   .     D
C1464  H1472   1.082   .     S
C1464  C5327   1.402   .     D
C1473  C1474   1.397   .     D
C1473  H1481   1.082   .     S
C1473  C4824   1.401   .     S
C1474  H1482   1.082   .     S
C1474  C4825   1.399   .     S
C1475  C1476   1.398   .     D
C1475  H1483   1.083   .     S
C1475  C4828   1.400   .     S
C1476  H1484   1.082   .     S
C1476  C4829   1.401   .     S
C1477  C1478   1.398   .     S
C1477  H1485   1.082   .     S
C1477  C4836   1.401   .     D
C1478  H1486   1.081   .     S
C1478  C4837   1.400   .     D
C1479  C1480   1.397   .     S
C1479  H1487   1.083   .     S
C1479  C4840   1.400   .     D
C1480  H1488   1.082   .     S
C1480  C4841   1.402   .     D
C1489  C1490   1.397   .     S
C1489  H1497   1.082   .     S
C1489  C4851   1.401   .     D
C1490  H1498   1.082   .     S
C1490  C4852   1.399   .     D
C1491  C1492   1.398   .     S
C1491  H1499   1.083   .     S
C1491  C4855   1.400   .     D
C1492  H1500   1.082   .     S
C1492  C4856   1.401   .     D
C1493  C1494   1.398   .     D
C1493  H1501   1.082   .     S
C1493  C4863   1.401   .     S
C1494  H1502   1.081   .     S
C1494  C4864   1.400   .     S
C1495  C1496   1.397   .     D
C1495  H1503   1.083   .     S
C1495  C4867   1.400   .     S
C1496  H1504   1.082   .     S
C1496  C4868   1.402   .     S
C1505  C1506   1.397   .     S
C1505  H1513   1.082   .     S
C1505  C5202   1.401   .     D
C1506  H1514   1.082   .     S
C1506  C5203   1.399   .     D
C1507  C1508   1.398   .     S
C1507  H1515   1.083   .     S
C1507  C5206   1.400   .     D
C1508  H1516   1.082   .     S
C1508  C5207   1.401   .     D
C1509  C1510   1.398   .     D
C1509  H1517   1.082   .     S
C1509  C5214   1.401   .     S
C1510  H1518   1.081   .     S
C1510  C5215   1.400   .     S
C1511  C1512   1.397   .     D
C1511  H1519   1.083   .     S
C1511  C5218   1.400   .     S
C1512  H1520   1.082   .     S
C1512  C5219   1.402   .     S
C1521  C1522   1.397   .     S
C1521  H1529   1.082   .     S
C1521  C5175   1.401   .     D
C1522  H1530   1.082   .     S
C1522  C5176   1.399   .     D
C1523  C1524   1.398   .     S
C1523  H1531   1.083   .     S
C1523  C5179   1.400   .     D
C1524  H1532   1.082   .     S
C1524  C5180   1.401   .     D
C1525  C1526   1.398   .     S
C1525  H1533   1.082   .     S
C1525  C5187   1.401   .     D
C1526  H1534   1.081   .     S
C1526  C5188   1.400   .     D
C1527  C1528   1.397   .     S
C1527  H1535   1.083   .     S
C1527  C5191   1.400   .     D
C1528  H1536   1.082   .     S
C1528  C5192   1.402   .     D
C1537  C1538   1.397   .     S
C1537  H1545   1.082   .     S
C1537  C4878   1.401   .     D
C1538  H1546   1.082   .     S
C1538  C4879   1.399   .     D
C1539  C1540   1.398   .     S
C1539  H1547   1.083   .     S
C1539  C4882   1.400   .     D
C1540  H1548   1.082   .     S
C1540  C4883   1.401   .     D
C1541  C1542   1.398   .     D
C1541  H1549   1.082   .     S
C1541  C4890   1.401   .     S
C1542  H1550   1.081   .     S
C1542  C4891   1.400   .     S
C1543  C1544   1.397   .     D
C1543  H1551   1.083   .     S
C1543  C4894   1.400   .     S
C1544  H1552   1.082   .     S
C1544  C4895   1.402   .     S
C1553  C1554   1.397   .     D
C1553  H1561   1.082   .     S
C1553  C4500   1.401   .     S
C1554  H1562   1.082   .     S
C1554  C4501   1.399   .     S
C1555  C1556   1.398   .     D
C1555  H1563   1.083   .     S
C1555  C4504   1.400   .     S
C1556  H1564   1.082   .     S
C1556  C4505   1.401   .     S
C1557  C1558   1.398   .     D
C1557  H1565   1.082   .     S
C1557  C4512   1.401   .     S
C1558  H1566   1.081   .     S
C1558  C4513   1.400   .     S
C1559  C1560   1.397   .     D
C1559  H1567   1.083   .     S
C1559  C4516   1.400   .     S
C1560  H1568   1.082   .     S
C1560  C4517   1.402   .     S
C1569  C1570   1.397   .     D
C1569  H1577   1.082   .     S
C1569  C4905   1.401   .     S
C1570  H1578   1.082   .     S
C1570  C4906   1.399   .     S
C1571  C1572   1.398   .     D
C1571  H1579   1.083   .     S
C1571  C4909   1.400   .     S
C1572  H1580   1.082   .     S
C1572  C4910   1.401   .     S
C1573  C1574   1.398   .     S
C1573  H1581   1.082   .     S
C1573  C4917   1.401   .     D
C1574  H1582   1.081   .     S
C1574  C4918   1.400   .     D
C1575  C1576   1.397   .     S
C1575  H1583   1.083   .     S
C1575  C4921   1.400   .     D
C1576  H1584   1.082   .     S
C1576  C4922   1.402   .     D
C1585  C1586   1.397   .     D
C1585  H1593   1.082   .     S
C1585  C4527   1.401   .     S
C1586  H1594   1.082   .     S
C1586  C4528   1.399   .     S
C1587  C1588   1.398   .     D
C1587  H1595   1.083   .     S
C1587  C4531   1.400   .     S
C1588  H1596   1.082   .     S
C1588  C4532   1.401   .     S
C1589  C1590   1.398   .     S
C1589  H1597   1.082   .     S
C1589  C4539   1.401   .     D
C1590  H1598   1.081   .     S
C1590  C4540   1.400   .     D
C1591  C1592   1.397   .     S
C1591  H1599   1.083   .     S
C1591  C4543   1.400   .     D
C1592  H1600   1.082   .     S
C1592  C4544   1.402   .     D
C1601  C1602   1.397   .     S
C1601  H1609   1.082   .     S
C1601  C4932   1.401   .     D
C1602  H1610   1.082   .     S
C1602  C4933   1.399   .     D
C1603  C1604   1.398   .     S
C1603  H1611   1.083   .     S
C1603  C4936   1.400   .     D
C1604  H1612   1.082   .     S
C1604  C4937   1.401   .     D
C1605  C1606   1.398   .     D
C1605  H1613   1.082   .     S
C1605  C4944   1.401   .     S
C1606  H1614   1.081   .     S
C1606  C4945   1.400   .     S
C1607  C1608   1.397   .     D
C1607  H1615   1.083   .     S
C1607  C4948   1.400   .     S
C1608  H1616   1.082   .     S
C1608  C4949   1.402   .     S
C1617  C1618   1.397   .     D
C1617  H1625   1.082   .     S
C1617  C4959   1.401   .     S
C1618  H1626   1.082   .     S
C1618  C4960   1.399   .     S
C1619  C1620   1.398   .     D
C1619  H1627   1.083   .     S
C1619  C4963   1.400   .     S
C1620  H1628   1.082   .     S
C1620  C4964   1.401   .     S
C1621  C1622   1.398   .     D
C1621  H1629   1.082   .     S
C1621  C4971   1.401   .     S
C1622  H1630   1.081   .     S
C1622  C4972   1.400   .     S
C1623  C1624   1.397   .     D
C1623  H1631   1.083   .     S
C1623  C4975   1.400   .     S
C1624  H1632   1.082   .     S
C1624  C4976   1.402   .     S
C1633  C1634   1.397   .     D
C1633  H1641   1.082   .     S
C1633  C4338   1.401   .     S
C1634  H1642   1.082   .     S
C1634  C4339   1.399   .     S
C1635  C1636   1.398   .     D
C1635  H1643   1.083   .     S
C1635  C4342   1.400   .     S
C1636  H1644   1.082   .     S
C1636  C4343   1.401   .     S
C1637  C1638   1.398   .     S
C1637  H1645   1.082   .     S
C1637  C4350   1.401   .     D
C1638  H1646   1.081   .     S
C1638  C4351   1.400   .     D
C1639  C1640   1.397   .     S
C1639  H1647   1.083   .     S
C1639  C4354   1.400   .     D
C1640  H1648   1.082   .     S
C1640  C4355   1.402   .     D
C1649  C1650   1.397   .     D
C1649  H1657   1.082   .     S
C1649  C4365   1.401   .     S
C1650  H1658   1.082   .     S
C1650  C4366   1.399   .     S
C1651  C1652   1.398   .     D
C1651  H1659   1.083   .     S
C1651  C4369   1.400   .     S
C1652  H1660   1.082   .     S
C1652  C4370   1.401   .     S
C1653  C1654   1.398   .     S
C1653  H1661   1.082   .     S
C1653  C4377   1.401   .     D
C1654  H1662   1.081   .     S
C1654  C4378   1.400   .     D
C1655  C1656   1.397   .     S
C1655  H1663   1.083   .     S
C1655  C4381   1.400   .     D
C1656  H1664   1.082   .     S
C1656  C4382   1.402   .     D
C1665  C1666   1.397   .     D
C1665  H1673   1.082   .     S
C1665  C4986   1.401   .     S
C1666  H1674   1.082   .     S
C1666  C4987   1.399   .     S
C1667  C1668   1.398   .     D
C1667  H1675   1.083   .     S
C1667  C4990   1.400   .     S
C1668  H1676   1.082   .     S
C1668  C4991   1.401   .     S
C1669  C1670   1.398   .     S
C1669  H1677   1.082   .     S
C1669  C4998   1.401   .     D
C1670  H1678   1.081   .     S
C1670  C4999   1.400   .     D
C1671  C1672   1.397   .     S
C1671  H1679   1.083   .     S
C1671  C5002   1.400   .     D
C1672  H1680   1.082   .     S
C1672  C5003   1.402   .     D
C1681  C1682   1.397   .     D
C1681  H1689   1.082   .     S
C1681  C5013   1.401   .     S
C1682  H1690   1.082   .     S
C1682  C5014   1.399   .     S
C1683  C1684   1.398   .     D
C1683  H1691   1.083   .     S
C1683  C5017   1.400   .     S
C1684  H1692   1.082   .     S
C1684  C5018   1.401   .     S
C1685  C1686   1.398   .     S
C1685  H1693   1.082   .     S
C1685  C5025   1.401   .     D
C1686  H1694   1.081   .     S
C1686  C5026   1.400   .     D
C1687  C1688   1.397   .     S
C1687  H1695   1.083   .     S
C1687  C5029   1.400   .     D
C1688  H1696   1.082   .     S
C1688  C5030   1.402   .     D
C1697  C1698   1.397   .     D
C1697  H1705   1.082   .     S
C1697  C4581   1.401   .     S
C1698  H1706   1.082   .     S
C1698  C4582   1.399   .     S
C1699  C1700   1.398   .     D
C1699  H1707   1.083   .     S
C1699  C4585   1.400   .     S
C1700  H1708   1.082   .     S
C1700  C4586   1.401   .     S
C1701  C1702   1.398   .     D
C1701  H1709   1.082   .     S
C1701  C4593   1.401   .     S
C1702  H1710   1.081   .     S
C1702  C4594   1.400   .     S
C1703  C1704   1.397   .     D
C1703  H1711   1.083   .     S
C1703  C4597   1.400   .     S
C1704  H1712   1.082   .     S
C1704  C4598   1.402   .     S
C1713  C1714   1.397   .     S
C1713  H1721   1.082   .     S
C1713  C4554   1.401   .     D
C1714  H1722   1.082   .     S
C1714  C4555   1.399   .     D
C1715  C1716   1.398   .     S
C1715  H1723   1.083   .     S
C1715  C4558   1.400   .     D
C1716  H1724   1.082   .     S
C1716  C4559   1.401   .     D
C1717  C1718   1.398   .     D
C1717  H1725   1.082   .     S
C1717  C4566   1.401   .     S
C1718  H1726   1.081   .     S
C1718  C4567   1.400   .     S
C1719  C1720   1.397   .     D
C1719  H1727   1.083   .     S
C1719  C4570   1.400   .     S
C1720  H1728   1.082   .     S
C1720  C4571   1.402   .     S
C1729  C1730   1.397   .     D
C1729  H1737   1.082   .     S
C1729  C4392   1.401   .     S
C1730  H1738   1.082   .     S
C1730  C4393   1.399   .     S
C1731  C1732   1.398   .     D
C1731  H1739   1.083   .     S
C1731  C4396   1.400   .     S
C1732  H1740   1.082   .     S
C1732  C4397   1.401   .     S
C1733  C1734   1.398   .     S
C1733  H1741   1.082   .     S
C1733  C4404   1.401   .     D
C1734  H1742   1.081   .     S
C1734  C4405   1.400   .     D
C1735  C1736   1.397   .     S
C1735  H1743   1.083   .     S
C1735  C4408   1.400   .     D
C1736  H1744   1.082   .     S
C1736  C4409   1.402   .     D
C1745  C1746   1.397   .     D
C1745  H1753   1.082   .     S
C1745  C4419   1.401   .     S
C1746  H1754   1.082   .     S
C1746  C4420   1.399   .     S
C1747  C1748   1.398   .     D
C1747  H1755   1.083   .     S
C1747  C4423   1.400   .     S
C1748  H1756   1.082   .     S
C1748  C4424   1.401   .     S
C1749  C1750   1.398   .     S
C1749  H1757   1.082   .     S
C1749  C4431   1.401   .     D
C1750  H1758   1.081   .     S
C1750  C4432   1.400   .     D
C1751  C1752   1.397   .     S
C1751  H1759   1.083   .     S
C1751  C4435   1.400   .     D
C1752  H1760   1.082   .     S
C1752  C4436   1.402   .     D
C1761  C1762   1.397   .     D
C1761  H1769   1.082   .     S
C1761  C4446   1.401   .     S
C1762  H1770   1.082   .     S
C1762  C4447   1.399   .     S
C1763  C1764   1.398   .     D
C1763  H1771   1.083   .     S
C1763  C4450   1.400   .     S
C1764  H1772   1.082   .     S
C1764  C4451   1.401   .     S
C1765  C1766   1.398   .     D
C1765  H1773   1.082   .     S
C1765  C4458   1.401   .     S
C1766  H1774   1.081   .     S
C1766  C4459   1.400   .     S
C1767  C1768   1.397   .     D
C1767  H1775   1.083   .     S
C1767  C4462   1.400   .     S
C1768  H1776   1.082   .     S
C1768  C4463   1.402   .     S
C1777  C1778   1.397   .     S
C1777  H1785   1.082   .     S
C1777  C4473   1.401   .     D
C1778  H1786   1.082   .     S
C1778  C4474   1.399   .     D
C1779  C1780   1.398   .     S
C1779  H1787   1.083   .     S
C1779  C4477   1.400   .     D
C1780  H1788   1.082   .     S
C1780  C4478   1.401   .     D
C1781  C1782   1.398   .     S
C1781  H1789   1.082   .     S
C1781  C4485   1.401   .     D
C1782  H1790   1.081   .     S
C1782  C4486   1.400   .     D
C1783  C1784   1.397   .     S
C1783  H1791   1.083   .     S
C1783  C4489   1.400   .     D
C1784  H1792   1.082   .     S
C1784  C4490   1.402   .     D
C1793  C1794   1.397   .     D
C1793  H1801   1.082   .     S
C1793  C5040   1.401   .     S
C1794  H1802   1.082   .     S
C1794  C5041   1.399   .     S
C1795  C1796   1.398   .     D
C1795  H1803   1.083   .     S
C1795  C5044   1.400   .     S
C1796  H1804   1.082   .     S
C1796  C5045   1.401   .     S
C1797  C1798   1.398   .     D
C1797  H1805   1.082   .     S
C1797  C5052   1.401   .     S
C1798  H1806   1.081   .     S
C1798  C5053   1.400   .     S
C1799  C1800   1.397   .     D
C1799  H1807   1.083   .     S
C1799  C5056   1.400   .     S
C1800  H1808   1.082   .     S
C1800  C5057   1.402   .     S
C1809  C1810   1.397   .     D
C1809  H1817   1.082   .     S
C1809  C4149   1.401   .     S
C1810  H1818   1.082   .     S
C1810  C4150   1.399   .     S
C1811  C1812   1.398   .     D
C1811  H1819   1.083   .     S
C1811  C4153   1.400   .     S
C1812  H1820   1.082   .     S
C1812  C4154   1.401   .     S
C1813  C1814   1.398   .     D
C1813  H1821   1.082   .     S
C1813  C4161   1.401   .     S
C1814  H1822   1.081   .     S
C1814  C4162   1.400   .     S
C1815  C1816   1.397   .     D
C1815  H1823   1.083   .     S
C1815  C4165   1.400   .     S
C1816  H1824   1.082   .     S
C1816  C4166   1.402   .     S
C1825  C1826   1.397   .     D
C1825  H1833   1.082   .     S
C1825  C4095   1.401   .     S
C1826  H1834   1.082   .     S
C1826  C4096   1.399   .     S
C1827  C1828   1.398   .     D
C1827  H1835   1.083   .     S
C1827  C4099   1.400   .     S
C1828  H1836   1.082   .     S
C1828  C4100   1.401   .     S
C1829  C1830   1.398   .     D
C1829  H1837   1.082   .     S
C1829  C4107   1.401   .     S
C1830  H1838   1.081   .     S
C1830  C4108   1.400   .     S
C1831  C1832   1.397   .     D
C1831  H1839   1.083   .     S
C1831  C4111   1.400   .     S
C1832  H1840   1.082   .     S
C1832  C4112   1.402   .     S
C1841  C1842   1.397   .     D
C1841  H1849   1.082   .     S
C1841  C4122   1.401   .     S
C1842  H1850   1.082   .     S
C1842  C4123   1.399   .     S
C1843  C1844   1.398   .     D
C1843  H1851   1.083   .     S
C1843  C4126   1.400   .     S
C1844  H1852   1.082   .     S
C1844  C4127   1.401   .     S
C1845  C1846   1.398   .     D
C1845  H1853   1.082   .     S
C1845  C4134   1.401   .     S
C1846  H1854   1.081   .     S
C1846  C4135   1.400   .     S
C1847  C1848   1.397   .     D
C1847  H1855   1.083   .     S
C1847  C4138   1.400   .     S
C1848  H1856   1.082   .     S
C1848  C4139   1.402   .     S
C1857  C1858   1.397   .     D
C1857  H1865   1.082   .     S
C1857  C5067   1.401   .     S
C1858  H1866   1.082   .     S
C1858  C5068   1.399   .     S
C1859  C1860   1.398   .     D
C1859  H1867   1.083   .     S
C1859  C5071   1.400   .     S
C1860  H1868   1.082   .     S
C1860  C5072   1.401   .     S
C1861  C1862   1.398   .     D
C1861  H1869   1.082   .     S
C1861  C5079   1.401   .     S
C1862  H1870   1.081   .     S
C1862  C5080   1.400   .     S
C1863  C1864   1.397   .     D
C1863  H1871   1.083   .     S
C1863  C5083   1.400   .     S
C1864  H1872   1.082   .     S
C1864  C5084   1.402   .     S
C1873  C1874   1.397   .     S
C1873  H1881   1.082   .     S
C1873  C5094   1.401   .     D
C1874  H1882   1.082   .     S
C1874  C5095   1.399   .     D
C1875  C1876   1.398   .     S
C1875  H1883   1.083   .     S
C1875  C5098   1.400   .     D
C1876  H1884   1.082   .     S
C1876  C5099   1.401   .     D
C1877  C1878   1.398   .     D
C1877  H1885   1.082   .     S
C1877  C5106   1.401   .     S
C1878  H1886   1.081   .     S
C1878  C5107   1.400   .     S
C1879  C1880   1.397   .     D
C1879  H1887   1.083   .     S
C1879  C5110   1.400   .     S
C1880  H1888   1.082   .     S
C1880  C5111   1.402   .     S
C1889  C1890   1.397   .     D
C1889  H1897   1.082   .     S
C1889  C4311   1.401   .     S
C1890  H1898   1.082   .     S
C1890  C4312   1.399   .     S
C1891  C1892   1.398   .     D
C1891  H1899   1.083   .     S
C1891  C4315   1.400   .     S
C1892  H1900   1.082   .     S
C1892  C4316   1.401   .     S
C1893  C1894   1.398   .     D
C1893  H1901   1.082   .     S
C1893  C4323   1.401   .     S
C1894  H1902   1.081   .     S
C1894  C4324   1.400   .     S
C1895  C1896   1.397   .     D
C1895  H1903   1.083   .     S
C1895  C4327   1.400   .     S
C1896  H1904   1.082   .     S
C1896  C4328   1.402   .     S
C1905  C1906   1.397   .     D
C1905  H1913   1.082   .     S
C1905  C4284   1.401   .     S
C1906  H1914   1.082   .     S
C1906  C4285   1.399   .     S
C1907  C1908   1.398   .     D
C1907  H1915   1.083   .     S
C1907  C4288   1.400   .     S
C1908  H1916   1.082   .     S
C1908  C4289   1.401   .     S
C1909  C1910   1.398   .     D
C1909  H1917   1.082   .     S
C1909  C4296   1.401   .     S
C1910  H1918   1.081   .     S
C1910  C4297   1.400   .     S
C1911  C1912   1.397   .     D
C1911  H1919   1.083   .     S
C1911  C4300   1.400   .     S
C1912  H1920   1.082   .     S
C1912  C4301   1.402   .     S
C1921  C1922   1.397   .     D
C1921  H1929   1.082   .     S
C1921  C5121   1.401   .     S
C1922  H1930   1.082   .     S
C1922  C5122   1.399   .     S
C1923  C1924   1.398   .     D
C1923  H1931   1.083   .     S
C1923  C5125   1.400   .     S
C1924  H1932   1.082   .     S
C1924  C5126   1.401   .     S
C1925  C1926   1.398   .     D
C1925  H1933   1.082   .     S
C1925  C5133   1.401   .     S
C1926  H1934   1.081   .     S
C1926  C5134   1.400   .     S
C1927  C1928   1.397   .     D
C1927  H1935   1.083   .     S
C1927  C5137   1.400   .     S
C1928  H1936   1.082   .     S
C1928  C5138   1.402   .     S
C1937  C1938   1.397   .     D
C1937  H1945   1.082   .     S
C1937  C4041   1.401   .     S
C1938  H1946   1.082   .     S
C1938  C4042   1.399   .     S
C1939  C1940   1.398   .     D
C1939  H1947   1.083   .     S
C1939  C4045   1.400   .     S
C1940  H1948   1.082   .     S
C1940  C4046   1.401   .     S
C1941  C1942   1.398   .     D
C1941  H1949   1.082   .     S
C1941  C4053   1.401   .     S
C1942  H1950   1.081   .     S
C1942  C4054   1.400   .     S
C1943  C1944   1.397   .     D
C1943  H1951   1.083   .     S
C1943  C4057   1.400   .     S
C1944  H1952   1.082   .     S
C1944  C4058   1.402   .     S
C1953  C1954   1.397   .     S
C1953  H1961   1.082   .     S
C1953  C5148   1.401   .     D
C1954  H1962   1.082   .     S
C1954  C5149   1.399   .     D
C1955  C1956   1.398   .     S
C1955  H1963   1.083   .     S
C1955  C5152   1.400   .     D
C1956  H1964   1.082   .     S
C1956  C5153   1.401   .     D
C1957  C1958   1.398   .     D
C1957  H1965   1.082   .     S
C1957  C5160   1.401   .     S
C1958  H1966   1.081   .     S
C1958  C5161   1.400   .     S
C1959  C1960   1.397   .     D
C1959  H1967   1.083   .     S
C1959  C5164   1.400   .     S
C1960  H1968   1.082   .     S
C1960  C5165   1.402   .     S
C1969  C1970   1.397   .     D
C1969  H1977   1.082   .     S
C1969  C4068   1.401   .     S
C1970  H1978   1.082   .     S
C1970  C4069   1.399   .     S
C1971  C1972   1.398   .     D
C1971  H1979   1.083   .     S
C1971  C4072   1.400   .     S
C1972  H1980   1.082   .     S
C1972  C4073   1.401   .     S
C1973  C1974   1.398   .     D
C1973  H1981   1.082   .     S
C1973  C4080   1.401   .     S
C1974  H1982   1.081   .     S
C1974  C4081   1.400   .     S
C1975  C1976   1.397   .     D
C1975  H1983   1.083   .     S
C1975  C4084   1.400   .     S
C1976  H1984   1.082   .     S
C1976  C4085   1.402   .     S
C1985  C1986   1.397   .     D
C1985  H1993   1.082   .     S
C1985  C4176   1.401   .     S
C1986  H1994   1.082   .     S
C1986  C4177   1.399   .     S
C1987  C1988   1.398   .     D
C1987  H1995   1.083   .     S
C1987  C4180   1.400   .     S
C1988  H1996   1.082   .     S
C1988  C4181   1.401   .     S
C1989  C1990   1.398   .     D
C1989  H1997   1.082   .     S
C1989  C4188   1.401   .     S
C1990  H1998   1.081   .     S
C1990  C4189   1.400   .     S
C1991  C1992   1.397   .     D
C1991  H1999   1.083   .     S
C1991  C4192   1.400   .     S
C1992  H2000   1.082   .     S
C1992  C4193   1.402   .     S
C2001  C2002   1.397   .     D
C2001  H2009   1.082   .     S
C2001  C4203   1.401   .     S
C2002  H2010   1.082   .     S
C2002  C4204   1.399   .     S
C2003  C2004   1.398   .     D
C2003  H2011   1.083   .     S
C2003  C4207   1.400   .     S
C2004  H2012   1.082   .     S
C2004  C4208   1.401   .     S
C2005  C2006   1.398   .     D
C2005  H2013   1.082   .     S
C2005  C4215   1.401   .     S
C2006  H2014   1.081   .     S
C2006  C4216   1.400   .     S
C2007  C2008   1.397   .     D
C2007  H2015   1.083   .     S
C2007  C4219   1.400   .     S
C2008  H2016   1.082   .     S
C2008  C4220   1.402   .     S
C2017  C2018   1.397   .     D
C2017  H2025   1.082   .     S
C2017  C4230   1.401   .     S
C2018  H2026   1.082   .     S
C2018  C4231   1.399   .     S
C2019  C2020   1.398   .     D
C2019  H2027   1.083   .     S
C2019  C4234   1.400   .     S
C2020  H2028   1.082   .     S
C2020  C4235   1.401   .     S
C2021  C2022   1.398   .     D
C2021  H2029   1.082   .     S
C2021  C4242   1.401   .     S
C2022  H2030   1.081   .     S
C2022  C4243   1.400   .     S
C2023  C2024   1.397   .     D
C2023  H2031   1.083   .     S
C2023  C4246   1.400   .     S
C2024  H2032   1.082   .     S
C2024  C4247   1.402   .     S
C2033  C2034   1.397   .     D
C2033  H2041   1.082   .     S
C2033  C4257   1.401   .     S
C2034  H2042   1.082   .     S
C2034  C4258   1.399   .     S
C2035  C2036   1.398   .     D
C2035  H2043   1.083   .     S
C2035  C4261   1.400   .     S
C2036  H2044   1.082   .     S
C2036  C4262   1.401   .     S
C2037  C2038   1.398   .     D
C2037  H2045   1.082   .     S
C2037  C4269   1.401   .     S
C2038  H2046   1.081   .     S
C2038  C4270   1.400   .     S
C2039  C2040   1.397   .     D
C2039  H2047   1.083   .     S
C2039  C4273   1.400   .     S
C2040  H2048   1.082   .     S
C2040  C4274   1.402   .     S
C2049  C2050   1.397   .     D
C2049  H2057   1.082   .     S
C2049  C5175   1.401   .     S
C2050  H2058   1.082   .     S
C2050  C5176   1.399   .     S
C2051  C2052   1.398   .     D
C2051  H2059   1.083   .     S
C2051  C5179   1.400   .     S
C2052  H2060   1.082   .     S
C2052  C5180   1.401   .     S
C2053  C2054   1.398   .     D
C2053  H2061   1.082   .     S
C2053  C5187   1.401   .     S
C2054  H2062   1.081   .     S
C2054  C5188   1.400   .     S
C2055  C2056   1.397   .     D
C2055  H2063   1.083   .     S
C2055  C5191   1.400   .     S
C2056  H2064   1.082   .     S
C2056  C5192   1.402   .     S
C2065  C2066   1.397   .     D
C2065  H2073   1.082   .     S
C2065  C5202   1.401   .     S
C2066  H2074   1.082   .     S
C2066  C5203   1.399   .     S
C2067  C2068   1.398   .     D
C2067  H2075   1.083   .     S
C2067  C5206   1.400   .     S
C2068  H2076   1.082   .     S
C2068  C5207   1.401   .     S
C2069  C2070   1.398   .     S
C2069  H2077   1.082   .     S
C2069  C5214   1.401   .     D
C2070  H2078   1.081   .     S
C2070  C5215   1.400   .     D
C2071  C2072   1.397   .     S
C2071  H2079   1.083   .     S
C2071  C5218   1.400   .     D
C2072  H2080   1.082   .     S
C2072  C5219   1.402   .     D
C2081  C2082   1.397   .     D
C2081  H2089   1.082   .     S
C2081  C4851   1.401   .     S
C2082  H2090   1.082   .     S
C2082  C4852   1.399   .     S
C2083  C2084   1.398   .     D
C2083  H2091   1.083   .     S
C2083  C4855   1.400   .     S
C2084  H2092   1.082   .     S
C2084  C4856   1.401   .     S
C2085  C2086   1.398   .     S
C2085  H2093   1.082   .     S
C2085  C4863   1.401   .     D
C2086  H2094   1.081   .     S
C2086  C4864   1.400   .     D
C2087  C2088   1.397   .     S
C2087  H2095   1.083   .     S
C2087  C4867   1.400   .     D
C2088  H2096   1.082   .     S
C2088  C4868   1.402   .     D
C2097  C2098   1.397   .     S
C2097  H2105   1.082   .     S
C2097  C4824   1.401   .     D
C2098  H2106   1.082   .     S
C2098  C4825   1.399   .     D
C2099  C2100   1.398   .     S
C2099  H2107   1.083   .     S
C2099  C4828   1.400   .     D
C2100  H2108   1.082   .     S
C2100  C4829   1.401   .     D
C2101  C2102   1.398   .     D
C2101  H2109   1.082   .     S
C2101  C4836   1.401   .     S
C2102  H2110   1.081   .     S
C2102  C4837   1.400   .     S
C2103  C2104   1.397   .     D
C2103  H2111   1.083   .     S
C2103  C4840   1.400   .     S
C2104  H2112   1.082   .     S
C2104  C4841   1.402   .     S
C2113  C2114   1.397   .     S
C2113  H2121   1.082   .     S
C2113  C5229   1.401   .     D
C2114  H2122   1.082   .     S
C2114  C5230   1.399   .     D
C2115  C2116   1.398   .     S
C2115  H2123   1.083   .     S
C2115  C5233   1.400   .     D
C2116  H2124   1.082   .     S
C2116  C5234   1.401   .     D
C2117  C2118   1.398   .     D
C2117  H2125   1.082   .     S
C2117  C5241   1.401   .     S
C2118  H2126   1.081   .     S
C2118  C5242   1.400   .     S
C2119  C2120   1.397   .     D
C2119  H2127   1.083   .     S
C2119  C5245   1.400   .     S
C2120  H2128   1.082   .     S
C2120  C5246   1.402   .     S
C2129  C2130   1.397   .     D
C2129  H2137   1.082   .     S
C2129  C4716   1.401   .     S
C2130  H2138   1.082   .     S
C2130  C4717   1.399   .     S
C2131  C2132   1.398   .     D
C2131  H2139   1.083   .     S
C2131  C4720   1.400   .     S
C2132  H2140   1.082   .     S
C2132  C4721   1.401   .     S
C2133  C2134   1.398   .     S
C2133  H2141   1.082   .     S
C2133  C4728   1.401   .     D
C2134  H2142   1.081   .     S
C2134  C4729   1.400   .     D
C2135  C2136   1.397   .     S
C2135  H2143   1.083   .     S
C2135  C4732   1.400   .     D
C2136  H2144   1.082   .     S
C2136  C4733   1.402   .     D
C2145  C2146   1.397   .     D
C2145  H2153   1.082   .     S
C2145  C5256   1.401   .     S
C2146  H2154   1.082   .     S
C2146  C5257   1.399   .     S
C2147  C2148   1.398   .     D
C2147  H2155   1.083   .     S
C2147  C5260   1.400   .     S
C2148  H2156   1.082   .     S
C2148  C5261   1.401   .     S
C2149  C2150   1.398   .     S
C2149  H2157   1.082   .     S
C2149  C5268   1.401   .     D
C2150  H2158   1.081   .     S
C2150  C5269   1.400   .     D
C2151  C2152   1.397   .     S
C2151  H2159   1.083   .     S
C2151  C5272   1.400   .     D
C2152  H2160   1.082   .     S
C2152  C5273   1.402   .     D
C2161  C2162   1.397   .     D
C2161  H2169   1.082   .     S
C2161  C4743   1.401   .     S
C2162  H2170   1.082   .     S
C2162  C4744   1.399   .     S
C2163  C2164   1.398   .     D
C2163  H2171   1.083   .     S
C2163  C4747   1.400   .     S
C2164  H2172   1.082   .     S
C2164  C4748   1.401   .     S
C2165  C2166   1.398   .     D
C2165  H2173   1.082   .     S
C2165  C4755   1.401   .     S
C2166  H2174   1.081   .     S
C2166  C4756   1.400   .     S
C2167  C2168   1.397   .     D
C2167  H2175   1.083   .     S
C2167  C4759   1.400   .     S
C2168  H2176   1.082   .     S
C2168  C4760   1.402   .     S
C2177  C2178   1.397   .     D
C2177  H2185   1.082   .     S
C2177  C5283   1.401   .     S
C2178  H2186   1.082   .     S
C2178  C5284   1.399   .     S
C2179  C2180   1.398   .     D
C2179  H2187   1.083   .     S
C2179  C5287   1.400   .     S
C2180  H2188   1.082   .     S
C2180  C5288   1.401   .     S
C2181  C2182   1.398   .     S
C2181  H2189   1.082   .     S
C2181  C5295   1.401   .     D
C2182  H2190   1.081   .     S
C2182  C5296   1.400   .     D
C2183  C2184   1.397   .     S
C2183  H2191   1.083   .     S
C2183  C5299   1.400   .     D
C2184  H2192   1.082   .     S
C2184  C5300   1.402   .     D
C2193  C2194   1.397   .     D
C2193  H2201   1.082   .     S
C2193  C5310   1.401   .     S
C2194  H2202   1.082   .     S
C2194  C5311   1.399   .     S
C2195  C2196   1.398   .     D
C2195  H2203   1.083   .     S
C2195  C5314   1.400   .     S
C2196  H2204   1.082   .     S
C2196  C5315   1.401   .     S
C2197  C2198   1.398   .     D
C2197  H2205   1.082   .     S
C2197  C5322   1.401   .     S
C2198  H2206   1.081   .     S
C2198  C5323   1.400   .     S
C2199  C2200   1.397   .     D
C2199  H2207   1.083   .     S
C2199  C5326   1.400   .     S
C2200  H2208   1.082   .     S
C2200  C5327   1.402   .     S
C2209  C2210   1.397   .     S
C2209  H2217   1.082   .     S
C2209  C4770   1.401   .     D
C2210  H2218   1.082   .     S
C2210  C4771   1.399   .     D
C2211  C2212   1.398   .     S
C2211  H2219   1.083   .     S
C2211  C4774   1.400   .     D
C2212  H2220   1.082   .     S
C2212  C4775   1.401   .     D
C2213  C2214   1.398   .     D
C2213  H2221   1.082   .     S
C2213  C4782   1.401   .     S
C2214  H2222   1.081   .     S
C2214  C4783   1.400   .     S
C2215  C2216   1.397   .     D
C2215  H2223   1.083   .     S
C2215  C4786   1.400   .     S
C2216  H2224   1.082   .     S
C2216  C4787   1.402   .     S
C2225  C2226   1.397   .     D
C2225  H2233   1.082   .     S
C2225  C4797   1.401   .     S
C2226  H2234   1.082   .     S
C2226  C4798   1.399   .     S
C2227  C2228   1.398   .     D
C2227  H2235   1.083   .     S
C2227  C4801   1.400   .     S
C2228  H2236   1.082   .     S
C2228  C4802   1.401   .     S
C2229  C2230   1.398   .     S
C2229  H2237   1.082   .     S
C2229  C4809   1.401   .     D
C2230  H2238   1.081   .     S
C2230  C4810   1.400   .     D
C2231  C2232   1.397   .     S
C2231  H2239   1.083   .     S
C2231  C4813   1.400   .     D
C2232  H2240   1.082   .     S
C2232  C4814   1.402   .     D
C2241  C2242   1.397   .     D
C2241  H2249   1.082   .     S
C2241  C4608   1.401   .     S
C2242  H2250   1.082   .     S
C2242  C4609   1.399   .     S
C2243  C2244   1.398   .     D
C2243  H2251   1.083   .     S
C2243  C4612   1.400   .     S
C2244  H2252   1.082   .     S
C2244  C4613   1.401   .     S
C2245  C2246   1.398   .     S
C2245  H2253   1.082   .     S
C2245  C4620   1.401   .     D
C2246  H2254   1.081   .     S
C2246  C4621   1.400   .     D
C2247  C2248   1.397   .     S
C2247  H2255   1.083   .     S
C2247  C4624   1.400   .     D
C2248  H2256   1.082   .     S
C2248  C4625   1.402   .     D
C2257  C2258   1.397   .     S
C2257  H2265   1.082   .     S
C2257  C4635   1.401   .     D
C2258  H2266   1.082   .     S
C2258  C4636   1.399   .     D
C2259  C2260   1.398   .     S
C2259  H2267   1.083   .     S
C2259  C4639   1.400   .     D
C2260  H2268   1.082   .     S
C2260  C4640   1.401   .     D
C2261  C2262   1.398   .     S
C2261  H2269   1.082   .     S
C2261  C4647   1.401   .     D
C2262  H2270   1.081   .     S
C2262  C4648   1.400   .     D
C2263  C2264   1.397   .     S
C2263  H2271   1.083   .     S
C2263  C4651   1.400   .     D
C2264  H2272   1.082   .     S
C2264  C4652   1.402   .     D
C2273  C2274   1.397   .     D
C2273  H2281   1.082   .     S
C2273  C4662   1.401   .     S
C2274  H2282   1.082   .     S
C2274  C4663   1.399   .     S
C2275  C2276   1.398   .     D
C2275  H2283   1.083   .     S
C2275  C4666   1.400   .     S
C2276  H2284   1.082   .     S
C2276  C4667   1.401   .     S
C2277  C2278   1.398   .     D
C2277  H2285   1.082   .     S
C2277  C4674   1.401   .     S
C2278  H2286   1.081   .     S
C2278  C4675   1.400   .     S
C2279  C2280   1.397   .     D
C2279  H2287   1.083   .     S
C2279  C4678   1.400   .     S
C2280  H2288   1.082   .     S
C2280  C4679   1.402   .     S
C2289  C2290   1.397   .     D
C2289  H2297   1.082   .     S
C2289  C4689   1.401   .     S
C2290  H2298   1.082   .     S
C2290  C4690   1.399   .     S
C2291  C2292   1.398   .     D
C2291  H2299   1.083   .     S
C2291  C4693   1.400   .     S
C2292  H2300   1.082   .     S
C2292  C4694   1.401   .     S
C2293  C2294   1.398   .     S
C2293  H2301   1.082   .     S
C2293  C4701   1.401   .     D
C2294  H2302   1.081   .     S
C2294  C4702   1.400   .     D
C2295  C2296   1.397   .     S
C2295  H2303   1.083   .     S
C2295  C4705   1.400   .     D
C2296  H2304   1.082   .     S
C2296  C4706   1.402   .     D
C2305  C2306   1.397   .     S
C2305  H2313   1.082   .     S
C2305  C5337   1.401   .     D
C2306  H2314   1.082   .     S
C2306  C5338   1.399   .     D
C2307  C2308   1.398   .     S
C2307  H2315   1.083   .     S
C2307  C5341   1.400   .     D
C2308  H2316   1.082   .     S
C2308  C5342   1.401   .     D
C2309  C2310   1.398   .     D
C2309  H2317   1.082   .     S
C2309  C5349   1.401   .     S
C2310  H2318   1.081   .     S
C2310  C5350   1.400   .     S
C2311  C2312   1.397   .     D
C2311  H2319   1.083   .     S
C2311  C5353   1.400   .     S
C2312  H2320   1.082   .     S
C2312  C5354   1.402   .     S
C2321  C2322   1.397   .     D
C2321  H2329   1.082   .     S
C2321  C3582   1.401   .     S
C2322  H2330   1.082   .     S
C2322  C3583   1.399   .     S
C2323  C2324   1.398   .     D
C2323  H2331   1.083   .     S
C2323  C3586   1.400   .     S
C2324  H2332   1.082   .     S
C2324  C3587   1.401   .     S
C2325  C2326   1.398   .     S
C2325  H2333   1.082   .     S
C2325  C3594   1.401   .     D
C2326  H2334   1.081   .     S
C2326  C3595   1.400   .     D
C2327  C2328   1.397   .     S
C2327  H2335   1.083   .     S
C2327  C3598   1.400   .     D
C2328  H2336   1.082   .     S
C2328  C3599   1.402   .     D
C2337  C2338   1.397   .     D
C2337  H2345   1.082   .     S
C2337  C5364   1.401   .     S
C2338  H2346   1.082   .     S
C2338  C5365   1.399   .     S
C2339  C2340   1.398   .     D
C2339  H2347   1.083   .     S
C2339  C5368   1.400   .     S
C2340  H2348   1.082   .     S
C2340  C5369   1.401   .     S
C2341  C2342   1.398   .     D
C2341  H2349   1.082   .     S
C2341  C5376   1.401   .     S
C2342  H2350   1.081   .     S
C2342  C5377   1.400   .     S
C2343  C2344   1.397   .     D
C2343  H2351   1.083   .     S
C2343  C5380   1.400   .     S
C2344  H2352   1.082   .     S
C2344  C5381   1.402   .     S
C2353  C2354   1.397   .     D
C2353  H2361   1.082   .     S
C2353  C3609   1.401   .     S
C2354  H2362   1.082   .     S
C2354  C3610   1.399   .     S
C2355  C2356   1.398   .     D
C2355  H2363   1.083   .     S
C2355  C3613   1.400   .     S
C2356  H2364   1.082   .     S
C2356  C3614   1.401   .     S
C2357  C2358   1.398   .     S
C2357  H2365   1.082   .     S
C2357  C3621   1.401   .     D
C2358  H2366   1.081   .     S
C2358  C3622   1.400   .     D
C2359  C2360   1.397   .     S
C2359  H2367   1.083   .     S
C2359  C3625   1.400   .     D
C2360  H2368   1.082   .     S
C2360  C3626   1.402   .     D
C2369  C2370   1.397   .     S
C2369  H2377   1.082   .     S
C2369  C5391   1.401   .     D
C2370  H2378   1.082   .     S
C2370  C5392   1.399   .     D
C2371  C2372   1.398   .     S
C2371  H2379   1.083   .     S
C2371  C5395   1.400   .     D
C2372  H2380   1.082   .     S
C2372  C5396   1.401   .     D
C2373  C2374   1.398   .     D
C2373  H2381   1.082   .     S
C2373  C5403   1.401   .     S
C2374  H2382   1.081   .     S
C2374  C5404   1.400   .     S
C2375  C2376   1.397   .     D
C2375  H2383   1.083   .     S
C2375  C5407   1.400   .     S
C2376  H2384   1.082   .     S
C2376  C5408   1.402   .     S
C2385  C2386   1.397   .     D
C2385  H2393   1.082   .     S
C2385  C3474   1.401   .     S
C2386  H2394   1.082   .     S
C2386  C3475   1.399   .     S
C2387  C2388   1.398   .     D
C2387  H2395   1.083   .     S
C2387  C3478   1.400   .     S
C2388  H2396   1.082   .     S
C2388  C3479   1.401   .     S
C2389  C2390   1.398   .     S
C2389  H2397   1.082   .     S
C2389  C3486   1.401   .     D
C2390  H2398   1.081   .     S
C2390  C3487   1.400   .     D
C2391  C2392   1.397   .     S
C2391  H2399   1.083   .     S
C2391  C3490   1.400   .     D
C2392  H2400   1.082   .     S
C2392  C3491   1.402   .     D
C2401  C2402   1.397   .     S
C2401  H2409   1.082   .     S
C2401  C3420   1.401   .     D
C2402  H2410   1.082   .     S
C2402  C3421   1.399   .     D
C2403  C2404   1.398   .     S
C2403  H2411   1.083   .     S
C2403  C3424   1.400   .     D
C2404  H2412   1.082   .     S
C2404  C3425   1.401   .     D
C2405  C2406   1.398   .     D
C2405  H2413   1.082   .     S
C2405  C3432   1.401   .     S
C2406  H2414   1.081   .     S
C2406  C3433   1.400   .     S
C2407  C2408   1.397   .     D
C2407  H2415   1.083   .     S
C2407  C3436   1.400   .     S
C2408  H2416   1.082   .     S
C2408  C3437   1.402   .     S
C2417  C2418   1.397   .     D
C2417  H2425   1.082   .     S
C2417  C3447   1.401   .     S
C2418  H2426   1.082   .     S
C2418  C3448   1.399   .     S
C2419  C2420   1.398   .     D
C2419  H2427   1.083   .     S
C2419  C3451   1.400   .     S
C2420  H2428   1.082   .     S
C2420  C3452   1.401   .     S
C2421  C2422   1.398   .     S
C2421  H2429   1.082   .     S
C2421  C3459   1.401   .     D
C2422  H2430   1.081   .     S
C2422  C3460   1.400   .     D
C2423  C2424   1.397   .     S
C2423  H2431   1.083   .     S
C2423  C3463   1.400   .     D
C2424  H2432   1.082   .     S
C2424  C3464   1.402   .     D
C2433  C2434   1.397   .     D
C2433  H2441   1.082   .     S
C2433  C3636   1.401   .     S
C2434  H2442   1.082   .     S
C2434  C3637   1.399   .     S
C2435  C2436   1.398   .     D
C2435  H2443   1.083   .     S
C2435  C3640   1.400   .     S
C2436  H2444   1.082   .     S
C2436  C3641   1.401   .     S
C2437  C2438   1.398   .     S
C2437  H2445   1.082   .     S
C2437  C3648   1.401   .     D
C2438  H2446   1.081   .     S
C2438  C3649   1.400   .     D
C2439  C2440   1.397   .     S
C2439  H2447   1.083   .     S
C2439  C3652   1.400   .     D
C2440  H2448   1.082   .     S
C2440  C3653   1.402   .     D
C2449  C2450   1.397   .     S
C2449  H2457   1.082   .     S
C2449  C3663   1.401   .     D
C2450  H2458   1.082   .     S
C2450  C3664   1.399   .     D
C2451  C2452   1.398   .     S
C2451  H2459   1.083   .     S
C2451  C3667   1.400   .     D
C2452  H2460   1.082   .     S
C2452  C3668   1.401   .     D
C2453  C2454   1.398   .     S
C2453  H2461   1.082   .     S
C2453  C3675   1.401   .     D
C2454  H2462   1.081   .     S
C2454  C3676   1.400   .     D
C2455  C2456   1.397   .     S
C2455  H2463   1.083   .     S
C2455  C3679   1.400   .     D
C2456  H2464   1.082   .     S
C2456  C3680   1.402   .     D
C2465  C2466   1.397   .     D
C2465  H2473   1.082   .     S
C2465  C3690   1.401   .     S
C2466  H2474   1.082   .     S
C2466  C3691   1.399   .     S
C2467  C2468   1.398   .     D
C2467  H2475   1.083   .     S
C2467  C3694   1.400   .     S
C2468  H2476   1.082   .     S
C2468  C3695   1.401   .     S
C2469  C2470   1.398   .     S
C2469  H2477   1.082   .     S
C2469  C3702   1.401   .     D
C2470  H2478   1.081   .     S
C2470  C3703   1.400   .     D
C2471  C2472   1.397   .     S
C2471  H2479   1.083   .     S
C2471  C3706   1.400   .     D
C2472  H2480   1.082   .     S
C2472  C3707   1.402   .     D
C2481  C2482   1.397   .     D
C2481  H2489   1.082   .     S
C2481  C3717   1.401   .     S
C2482  H2490   1.082   .     S
C2482  C3718   1.399   .     S
C2483  C2484   1.398   .     D
C2483  H2491   1.083   .     S
C2483  C3721   1.400   .     S
C2484  H2492   1.082   .     S
C2484  C3722   1.401   .     S
C2485  C2486   1.398   .     D
C2485  H2493   1.082   .     S
C2485  C3729   1.401   .     S
C2486  H2494   1.081   .     S
C2486  C3730   1.400   .     S
C2487  C2488   1.397   .     D
C2487  H2495   1.083   .     S
C2487  C3733   1.400   .     S
C2488  H2496   1.082   .     S
C2488  C3734   1.402   .     S
C2497  C2498   1.397   .     D
C2497  H2505   1.082   .     S
C2497  C3555   1.401   .     S
C2498  H2506   1.082   .     S
C2498  C3556   1.399   .     S
C2499  C2500   1.398   .     D
C2499  H2507   1.083   .     S
C2499  C3559   1.400   .     S
C2500  H2508   1.082   .     S
C2500  C3560   1.401   .     S
C2501  C2502   1.398   .     S
C2501  H2509   1.082   .     S
C2501  C3567   1.401   .     D
C2502  H2510   1.081   .     S
C2502  C3568   1.400   .     D
C2503  C2504   1.397   .     S
C2503  H2511   1.083   .     S
C2503  C3571   1.400   .     D
C2504  H2512   1.082   .     S
C2504  C3572   1.402   .     D
C2513  C2514   1.397   .     D
C2513  H2521   1.082   .     S
C2513  C5418   1.401   .     S
C2514  H2522   1.082   .     S
C2514  C5419   1.399   .     S
C2515  C2516   1.398   .     D
C2515  H2523   1.083   .     S
C2515  C5422   1.400   .     S
C2516  H2524   1.082   .     S
C2516  C5423   1.401   .     S
C2517  C2518   1.398   .     D
C2517  H2525   1.082   .     S
C2517  C5430   1.401   .     S
C2518  H2526   1.081   .     S
C2518  C5431   1.400   .     S
C2519  C2520   1.397   .     D
C2519  H2527   1.083   .     S
C2519  C5434   1.400   .     S
C2520  H2528   1.082   .     S
C2520  C5435   1.402   .     S
C2529  C2530   1.397   .     S
C2529  H2537   1.082   .     S
C2529  C3528   1.401   .     D
C2530  H2538   1.082   .     S
C2530  C3529   1.399   .     D
C2531  C2532   1.398   .     S
C2531  H2539   1.083   .     S
C2531  C3532   1.400   .     D
C2532  H2540   1.082   .     S
C2532  C3533   1.401   .     D
C2533  C2534   1.398   .     S
C2533  H2541   1.082   .     S
C2533  C3540   1.401   .     D
C2534  H2542   1.081   .     S
C2534  C3541   1.400   .     D
C2535  C2536   1.397   .     S
C2535  H2543   1.083   .     S
C2535  C3544   1.400   .     D
C2536  H2544   1.082   .     S
C2536  C3545   1.402   .     D
C2545  C2546   1.397   .     S
C2545  H2553   1.082   .     S
C2545  C3501   1.401   .     D
C2546  H2554   1.082   .     S
C2546  C3502   1.399   .     D
C2547  C2548   1.398   .     S
C2547  H2555   1.083   .     S
C2547  C3505   1.400   .     D
C2548  H2556   1.082   .     S
C2548  C3506   1.401   .     D
C2549  C2550   1.398   .     S
C2549  H2557   1.082   .     S
C2549  C3513   1.401   .     D
C2550  H2558   1.081   .     S
C2550  C3514   1.400   .     D
C2551  C2552   1.397   .     S
C2551  H2559   1.083   .     S
C2551  C3517   1.400   .     D
C2552  H2560   1.082   .     S
C2552  C3518   1.402   .     D
C2561  C2562   1.397   .     D
C2561  H2569   1.082   .     S
C2561  C3231   1.401   .     S
C2562  H2570   1.082   .     S
C2562  C3232   1.399   .     S
C2563  C2564   1.398   .     D
C2563  H2571   1.083   .     S
C2563  C3235   1.400   .     S
C2564  H2572   1.082   .     S
C2564  C3236   1.401   .     S
C2565  C2566   1.398   .     S
C2565  H2573   1.082   .     S
C2565  C3243   1.401   .     D
C2566  H2574   1.081   .     S
C2566  C3244   1.400   .     D
C2567  C2568   1.397   .     S
C2567  H2575   1.083   .     S
C2567  C3247   1.400   .     D
C2568  H2576   1.082   .     S
C2568  C3248   1.402   .     D
C2577  C2578   1.397   .     D
C2577  H2585   1.082   .     S
C2577  C5445   1.401   .     S
C2578  H2586   1.082   .     S
C2578  C5446   1.399   .     S
C2579  C2580   1.398   .     D
C2579  H2587   1.083   .     S
C2579  C5449   1.400   .     S
C2580  H2588   1.082   .     S
C2580  C5450   1.401   .     S
C2581  C2582   1.398   .     S
C2581  H2589   1.082   .     S
C2581  C5457   1.401   .     D
C2582  H2590   1.081   .     S
C2582  C5458   1.400   .     D
C2583  C2584   1.397   .     S
C2583  H2591   1.083   .     S
C2583  C5461   1.400   .     D
C2584  H2592   1.082   .     S
C2584  C5462   1.402   .     D
C2593  C2594   1.397   .     S
C2593  H2601   1.082   .     S
C2593  C3177   1.401   .     D
C2594  H2602   1.082   .     S
C2594  C3178   1.399   .     D
C2595  C2596   1.398   .     S
C2595  H2603   1.083   .     S
C2595  C3181   1.400   .     D
C2596  H2604   1.082   .     S
C2596  C3182   1.401   .     D
C2597  C2598   1.398   .     D
C2597  H2605   1.082   .     S
C2597  C3189   1.401   .     S
C2598  H2606   1.081   .     S
C2598  C3190   1.400   .     S
C2599  C2600   1.397   .     D
C2599  H2607   1.083   .     S
C2599  C3193   1.400   .     S
C2600  H2608   1.082   .     S
C2600  C3194   1.402   .     S
C2609  C2610   1.397   .     D
C2609  H2617   1.082   .     S
C2609  C3204   1.401   .     S
C2610  H2618   1.082   .     S
C2610  C3205   1.399   .     S
C2611  C2612   1.398   .     D
C2611  H2619   1.083   .     S
C2611  C3208   1.400   .     S
C2612  H2620   1.082   .     S
C2612  C3209   1.401   .     S
C2613  C2614   1.398   .     D
C2613  H2621   1.082   .     S
C2613  C3216   1.401   .     S
C2614  H2622   1.081   .     S
C2614  C3217   1.400   .     S
C2615  C2616   1.397   .     D
C2615  H2623   1.083   .     S
C2615  C3220   1.400   .     S
C2616  H2624   1.082   .     S
C2616  C3221   1.402   .     S
C2625  C2626   1.397   .     D
C2625  H2633   1.082   .     S
C2625  C3312   1.401   .     S
C2626  H2634   1.082   .     S
C2626  C3313   1.399   .     S
C2627  C2628   1.398   .     D
C2627  H2635   1.083   .     S
C2627  C3316   1.400   .     S
C2628  H2636   1.082   .     S
C2628  C3317   1.401   .     S
C2629  C2630   1.398   .     S
C2629  H2637   1.082   .     S
C2629  C3324   1.401   .     D
C2630  H2638   1.081   .     S
C2630  C3325   1.400   .     D
C2631  C2632   1.397   .     S
C2631  H2639   1.083   .     S
C2631  C3328   1.400   .     D
C2632  H2640   1.082   .     S
C2632  C3329   1.402   .     D
C2641  C2642   1.397   .     D
C2641  H2649   1.082   .     S
C2641  C3339   1.401   .     S
C2642  H2650   1.082   .     S
C2642  C3340   1.399   .     S
C2643  C2644   1.398   .     D
C2643  H2651   1.083   .     S
C2643  C3343   1.400   .     S
C2644  H2652   1.082   .     S
C2644  C3344   1.401   .     S
C2645  C2646   1.398   .     S
C2645  H2653   1.082   .     S
C2645  C3351   1.401   .     D
C2646  H2654   1.081   .     S
C2646  C3352   1.400   .     D
C2647  C2648   1.397   .     S
C2647  H2655   1.083   .     S
C2647  C3355   1.400   .     D
C2648  H2656   1.082   .     S
C2648  C3356   1.402   .     D
C2657  C2658   1.397   .     S
C2657  H2665   1.082   .     S
C2657  C3366   1.401   .     D
C2658  H2666   1.082   .     S
C2658  C3367   1.399   .     D
C2659  C2660   1.398   .     S
C2659  H2667   1.083   .     S
C2659  C3370   1.400   .     D
C2660  H2668   1.082   .     S
C2660  C3371   1.401   .     D
C2661  C2662   1.398   .     D
C2661  H2669   1.082   .     S
C2661  C3378   1.401   .     S
C2662  H2670   1.081   .     S
C2662  C3379   1.400   .     S
C2663  C2664   1.397   .     D
C2663  H2671   1.083   .     S
C2663  C3382   1.400   .     S
C2664  H2672   1.082   .     S
C2664  C3383   1.402   .     S
C2673  C2674   1.397   .     D
C2673  H2681   1.082   .     S
C2673  C3393   1.401   .     S
C2674  H2682   1.082   .     S
C2674  C3394   1.399   .     S
C2675  C2676   1.398   .     D
C2675  H2683   1.083   .     S
C2675  C3397   1.400   .     S
C2676  H2684   1.082   .     S
C2676  C3398   1.401   .     S
C2677  C2678   1.398   .     D
C2677  H2685   1.082   .     S
C2677  C3405   1.401   .     S
C2678  H2686   1.081   .     S
C2678  C3406   1.400   .     S
C2679  C2680   1.397   .     D
C2679  H2687   1.083   .     S
C2679  C3409   1.400   .     S
C2680  H2688   1.082   .     S
C2680  C3410   1.402   .     S
C2689  C2690   1.397   .     S
C2689  H2697   1.082   .     S
C2689  C5472   1.401   .     D
C2690  H2698   1.082   .     S
C2690  C5473   1.399   .     D
C2691  C2692   1.398   .     S
C2691  H2699   1.083   .     S
C2691  C5476   1.400   .     D
C2692  H2700   1.082   .     S
C2692  C5477   1.401   .     D
C2693  C2694   1.398   .     D
C2693  H2701   1.082   .     S
C2693  C5484   1.401   .     S
C2694  H2702   1.081   .     S
C2694  C5485   1.400   .     S
C2695  C2696   1.397   .     D
C2695  H2703   1.083   .     S
C2695  C5488   1.400   .     S
C2696  H2704   1.082   .     S
C2696  C5489   1.402   .     S
C2705  C2706   1.397   .     S
C2705  H2713   1.082   .     S
C2705  C3123   1.401   .     D
C2706  H2714   1.082   .     S
C2706  C3124   1.399   .     D
C2707  C2708   1.398   .     S
C2707  H2715   1.083   .     S
C2707  C3127   1.400   .     D
C2708  H2716   1.082   .     S
C2708  C3128   1.401   .     D
C2709  C2710   1.398   .     D
C2709  H2717   1.082   .     S
C2709  C3135   1.401   .     S
C2710  H2718   1.081   .     S
C2710  C3136   1.400   .     S
C2711  C2712   1.397   .     D
C2711  H2719   1.083   .     S
C2711  C3139   1.400   .     S
C2712  H2720   1.082   .     S
C2712  C3140   1.402   .     S
C2721  C2722   1.397   .     D
C2721  H2729   1.082   .     S
C2721  C5499   1.401   .     S
C2722  H2730   1.082   .     S
C2722  C5500   1.399   .     S
C2723  C2724   1.398   .     D
C2723  H2731   1.083   .     S
C2723  C5503   1.400   .     S
C2724  H2732   1.082   .     S
C2724  C5504   1.401   .     S
C2725  C2726   1.398   .     S
C2725  H2733   1.082   .     S
C2725  C5511   1.401   .     D
C2726  H2734   1.081   .     S
C2726  C5512   1.400   .     D
C2727  C2728   1.397   .     S
C2727  H2735   1.083   .     S
C2727  C5515   1.400   .     D
C2728  H2736   1.082   .     S
C2728  C5516   1.402   .     D
C2737  C2738   1.397   .     D
C2737  H2745   1.082   .     S
C2737  C3150   1.401   .     S
C2738  H2746   1.082   .     S
C2738  C3151   1.399   .     S
C2739  C2740   1.398   .     D
C2739  H2747   1.083   .     S
C2739  C3154   1.400   .     S
C2740  H2748   1.082   .     S
C2740  C3155   1.401   .     S
C2741  C2742   1.398   .     S
C2741  H2749   1.082   .     S
C2741  C3162   1.401   .     D
C2742  H2750   1.081   .     S
C2742  C3163   1.400   .     D
C2743  C2744   1.397   .     S
C2743  H2751   1.083   .     S
C2743  C3166   1.400   .     D
C2744  H2752   1.082   .     S
C2744  C3167   1.402   .     D
C2753  C2754   1.397   .     S
C2753  H2761   1.082   .     S
C2753  C5526   1.401   .     D
C2754  H2762   1.082   .     S
C2754  C5527   1.399   .     D
C2755  C2756   1.398   .     S
C2755  H2763   1.083   .     S
C2755  C5530   1.400   .     D
C2756  H2764   1.082   .     S
C2756  C5531   1.401   .     D
C2757  C2758   1.398   .     D
C2757  H2765   1.082   .     S
C2757  C5538   1.401   .     S
C2758  H2766   1.081   .     S
C2758  C5539   1.400   .     S
C2759  C2760   1.397   .     D
C2759  H2767   1.083   .     S
C2759  C5542   1.400   .     S
C2760  H2768   1.082   .     S
C2760  C5543   1.402   .     S
C2769  C2770   1.397   .     D
C2769  H2777   1.082   .     S
C2769  C5553   1.401   .     S
C2770  H2778   1.082   .     S
C2770  C5554   1.399   .     S
C2771  C2772   1.398   .     D
C2771  H2779   1.083   .     S
C2771  C5557   1.400   .     S
C2772  H2780   1.082   .     S
C2772  C5558   1.401   .     S
C2773  C2774   1.398   .     D
C2773  H2781   1.082   .     S
C2773  C5565   1.401   .     S
C2774  H2782   1.081   .     S
C2774  C5566   1.400   .     S
C2775  C2776   1.397   .     D
C2775  H2783   1.083   .     S
C2775  C5569   1.400   .     S
C2776  H2784   1.082   .     S
C2776  C5570   1.402   .     S
C2785  C2786   1.397   .     S
C2785  H2793   1.082   .     S
C2785  C3285   1.401   .     D
C2786  H2794   1.082   .     S
C2786  C3286   1.399   .     D
C2787  C2788   1.398   .     S
C2787  H2795   1.083   .     S
C2787  C3289   1.400   .     D
C2788  H2796   1.082   .     S
C2788  C3290   1.401   .     D
C2789  C2790   1.398   .     S
C2789  H2797   1.082   .     S
C2789  C3297   1.401   .     D
C2790  H2798   1.081   .     S
C2790  C3298   1.400   .     D
C2791  C2792   1.397   .     S
C2791  H2799   1.083   .     S
C2791  C3301   1.400   .     D
C2792  H2800   1.082   .     S
C2792  C3302   1.402   .     D
C2801  C2802   1.397   .     D
C2801  H2809   1.082   .     S
C2801  C3258   1.401   .     S
C2802  H2810   1.082   .     S
C2802  C3259   1.399   .     S
C2803  C2804   1.398   .     D
C2803  H2811   1.083   .     S
C2803  C3262   1.400   .     S
C2804  H2812   1.082   .     S
C2804  C3263   1.401   .     S
C2805  C2806   1.398   .     S
C2805  H2813   1.082   .     S
C2805  C3270   1.401   .     D
C2806  H2814   1.081   .     S
C2806  C3271   1.400   .     D
C2807  C2808   1.397   .     S
C2807  H2815   1.083   .     S
C2807  C3274   1.400   .     D
C2808  H2816   1.082   .     S
C2808  C3275   1.402   .     D
C2817  C2818   1.397   .     D
C2817  H2825   1.082   .     S
C2817  C3933   1.401   .     S
C2818  H2826   1.082   .     S
C2818  C3934   1.399   .     S
C2819  C2820   1.398   .     D
C2819  H2827   1.083   .     S
C2819  C3937   1.400   .     S
C2820  H2828   1.082   .     S
C2820  C3938   1.401   .     S
C2821  C2822   1.398   .     D
C2821  H2829   1.082   .     S
C2821  C3945   1.401   .     S
C2822  H2830   1.081   .     S
C2822  C3946   1.400   .     S
C2823  C2824   1.397   .     D
C2823  H2831   1.083   .     S
C2823  C3949   1.400   .     S
C2824  H2832   1.082   .     S
C2824  C3950   1.402   .     S
C2833  C2834   1.397   .     D
C2833  H2841   1.082   .     S
C2833  C3960   1.401   .     S
C2834  H2842   1.082   .     S
C2834  C3961   1.399   .     S
C2835  C2836   1.398   .     D
C2835  H2843   1.083   .     S
C2835  C3964   1.400   .     S
C2836  H2844   1.082   .     S
C2836  C3965   1.401   .     S
C2837  C2838   1.398   .     D
C2837  H2845   1.082   .     S
C2837  C3972   1.401   .     S
C2838  H2846   1.081   .     S
C2838  C3973   1.400   .     S
C2839  C2840   1.397   .     D
C2839  H2847   1.083   .     S
C2839  C3976   1.400   .     S
C2840  H2848   1.082   .     S
C2840  C3977   1.402   .     S
C2849  C2850   1.397   .     D
C2849  H2857   1.082   .     S
C2849  C3987   1.401   .     S
C2850  H2858   1.082   .     S
C2850  C3988   1.399   .     S
C2851  C2852   1.398   .     D
C2851  H2859   1.083   .     S
C2851  C3991   1.400   .     S
C2852  H2860   1.082   .     S
C2852  C3992   1.401   .     S
C2853  C2854   1.398   .     D
C2853  H2861   1.082   .     S
C2853  C3999   1.401   .     S
C2854  H2862   1.081   .     S
C2854  C4000   1.400   .     S
C2855  C2856   1.397   .     D
C2855  H2863   1.083   .     S
C2855  C4003   1.400   .     S
C2856  H2864   1.082   .     S
C2856  C4004   1.402   .     S
C2865  C2866   1.397   .     D
C2865  H2873   1.082   .     S
C2865  C4014   1.401   .     S
C2866  H2874   1.082   .     S
C2866  C4015   1.399   .     S
C2867  C2868   1.398   .     D
C2867  H2875   1.083   .     S
C2867  C4018   1.400   .     S
C2868  H2876   1.082   .     S
C2868  C4019   1.401   .     S
C2869  C2870   1.398   .     D
C2869  H2877   1.082   .     S
C2869  C4026   1.401   .     S
C2870  H2878   1.081   .     S
C2870  C4027   1.400   .     S
C2871  C2872   1.397   .     D
C2871  H2879   1.083   .     S
C2871  C4030   1.400   .     S
C2872  H2880   1.082   .     S
C2872  C4031   1.402   .     S
C2881  C2882   1.397   .     D
C2881  H2889   1.082   .     S
C2881  C3825   1.401   .     S
C2882  H2890   1.082   .     S
C2882  C3826   1.399   .     S
C2883  C2884   1.398   .     D
C2883  H2891   1.083   .     S
C2883  C3829   1.400   .     S
C2884  H2892   1.082   .     S
C2884  C3830   1.401   .     S
C2885  C2886   1.398   .     D
C2885  H2893   1.082   .     S
C2885  C3837   1.401   .     S
C2886  H2894   1.081   .     S
C2886  C3838   1.400   .     S
C2887  C2888   1.397   .     D
C2887  H2895   1.083   .     S
C2887  C3841   1.400   .     S
C2888  H2896   1.082   .     S
C2888  C3842   1.402   .     S
C2897  C2898   1.397   .     D
C2897  H2905   1.082   .     S
C2897  C3798   1.401   .     S
C2898  H2906   1.082   .     S
C2898  C3799   1.399   .     S
C2899  C2900   1.398   .     D
C2899  H2907   1.083   .     S
C2899  C3802   1.400   .     S
C2900  H2908   1.082   .     S
C2900  C3803   1.401   .     S
C2901  C2902   1.398   .     D
C2901  H2909   1.082   .     S
C2901  C3810   1.401   .     S
C2902  H2910   1.081   .     S
C2902  C3811   1.400   .     S
C2903  C2904   1.397   .     D
C2903  H2911   1.083   .     S
C2903  C3814   1.400   .     S
C2904  H2912   1.082   .     S
C2904  C3815   1.402   .     S
C2913  C2914   1.397   .     D
C2913  H2921   1.082   .     S
C2913  C5580   1.401   .     S
C2914  H2922   1.082   .     S
C2914  C5581   1.399   .     S
C2915  C2916   1.398   .     D
C2915  H2923   1.083   .     S
C2915  C5584   1.400   .     S
C2916  H2924   1.082   .     S
C2916  C5585   1.401   .     S
C2917  C2918   1.398   .     D
C2917  H2925   1.082   .     S
C2917  C5592   1.401   .     S
C2918  H2926   1.081   .     S
C2918  C5593   1.400   .     S
C2919  C2920   1.397   .     D
C2919  H2927   1.083   .     S
C2919  C5596   1.400   .     S
C2920  H2928   1.082   .     S
C2920  C5597   1.402   .     S
C2929  C2930   1.397   .     S
C2929  H2937   1.082   .     S
C2929  C3852   1.401   .     D
C2930  H2938   1.082   .     S
C2930  C3853   1.399   .     D
C2931  C2932   1.398   .     S
C2931  H2939   1.083   .     S
C2931  C3856   1.400   .     D
C2932  H2940   1.082   .     S
C2932  C3857   1.401   .     D
C2933  C2934   1.398   .     D
C2933  H2941   1.082   .     S
C2933  C3864   1.401   .     S
C2934  H2942   1.081   .     S
C2934  C3865   1.400   .     S
C2935  C2936   1.397   .     D
C2935  H2943   1.083   .     S
C2935  C3868   1.400   .     S
C2936  H2944   1.082   .     S
C2936  C3869   1.402   .     S
C2945  C2946   1.397   .     D
C2945  H2953   1.082   .     S
C2945  C5607   1.401   .     S
C2946  H2954   1.082   .     S
C2946  C5608   1.399   .     S
C2947  C2948   1.398   .     D
C2947  H2955   1.083   .     S
C2947  C5611   1.400   .     S
C2948  H2956   1.082   .     S
C2948  C5612   1.401   .     S
C2949  C2950   1.398   .     D
C2949  H2957   1.082   .     S
C2949  C5619   1.401   .     S
C2950  H2958   1.081   .     S
C2950  C5620   1.400   .     S
C2951  C2952   1.397   .     D
C2951  H2959   1.083   .     S
C2951  C5623   1.400   .     S
C2952  H2960   1.082   .     S
C2952  C5624   1.402   .     S
C2961  C2962   1.397   .     S
C2961  H2969   1.082   .     S
C2961  C5634   1.401   .     D
C2962  H2970   1.082   .     S
C2962  C5635   1.399   .     D
C2963  C2964   1.398   .     S
C2963  H2971   1.083   .     S
C2963  C5638   1.400   .     D
C2964  H2972   1.082   .     S
C2964  C5639   1.401   .     D
C2965  C2966   1.398   .     D
C2965  H2973   1.082   .     S
C2965  C5646   1.401   .     S
C2966  H2974   1.081   .     S
C2966  C5647   1.400   .     S
C2967  C2968   1.397   .     D
C2967  H2975   1.083   .     S
C2967  C5650   1.400   .     S
C2968  H2976   1.082   .     S
C2968  C5651   1.402   .     S
C2977  C2978   1.397   .     D
C2977  H2985   1.082   .     S
C2977  C3879   1.401   .     S
C2978  H2986   1.082   .     S
C2978  C3880   1.399   .     S
C2979  C2980   1.398   .     D
C2979  H2987   1.083   .     S
C2979  C3883   1.400   .     S
C2980  H2988   1.082   .     S
C2980  C3884   1.401   .     S
C2981  C2982   1.398   .     D
C2981  H2989   1.082   .     S
C2981  C3891   1.401   .     S
C2982  H2990   1.081   .     S
C2982  C3892   1.400   .     S
C2983  C2984   1.397   .     D
C2983  H2991   1.083   .     S
C2983  C3895   1.400   .     S
C2984  H2992   1.082   .     S
C2984  C3896   1.402   .     S
C2993  C2994   1.397   .     D
C2993  H3001   1.082   .     S
C2993  C3906   1.401   .     S
C2994  H3002   1.082   .     S
C2994  C3907   1.399   .     S
C2995  C2996   1.398   .     D
C2995  H3003   1.083   .     S
C2995  C3910   1.400   .     S
C2996  H3004   1.082   .     S
C2996  C3911   1.401   .     S
C2997  C2998   1.398   .     D
C2997  H3005   1.082   .     S
C2997  C3918   1.401   .     S
C2998  H3006   1.081   .     S
C2998  C3919   1.400   .     S
C2999  C3000   1.397   .     D
C2999  H3007   1.083   .     S
C2999  C3922   1.400   .     S
C3000  H3008   1.082   .     S
C3000  C3923   1.402   .     S
C3009  C3010   1.397   .     D
C3009  H3017   1.082   .     S
C3009  C5661   1.401   .     S
C3010  H3018   1.082   .     S
C3010  C5662   1.399   .     S
C3011  C3012   1.398   .     D
C3011  H3019   1.083   .     S
C3011  C5665   1.400   .     S
C3012  H3020   1.082   .     S
C3012  C5666   1.401   .     S
C3013  C3014   1.398   .     D
C3013  H3021   1.082   .     S
C3013  C5673   1.401   .     S
C3014  H3022   1.081   .     S
C3014  C5674   1.400   .     S
C3015  C3016   1.397   .     D
C3015  H3023   1.083   .     S
C3015  C5677   1.400   .     S
C3016  H3024   1.082   .     S
C3016  C5678   1.402   .     S
C3025  C3026   1.397   .     D
C3025  H3033   1.082   .     S
C3025  C5688   1.401   .     S
C3026  H3034   1.082   .     S
C3026  C5689   1.399   .     S
C3027  C3028   1.398   .     D
C3027  H3035   1.083   .     S
C3027  C5692   1.400   .     S
C3028  H3036   1.082   .     S
C3028  C5693   1.401   .     S
C3029  C3030   1.398   .     D
C3029  H3037   1.082   .     S
C3029  C5700   1.401   .     S
C3030  H3038   1.081   .     S
C3030  C5701   1.400   .     S
C3031  C3032   1.397   .     D
C3031  H3039   1.083   .     S
C3031  C5704   1.400   .     S
C3032  H3040   1.082   .     S
C3032  C5705   1.402   .     S
C3041  C3042   1.397   .     D
C3041  H3049   1.082   .     S
C3041  C3771   1.401   .     S
C3042  H3050   1.082   .     S
C3042  C3772   1.399   .     S
C3043  C3044   1.398   .     D
C3043  H3051   1.083   .     S
C3043  C3775   1.400   .     S
C3044  H3052   1.082   .     S
C3044  C3776   1.401   .     S
C3045  C3046   1.398   .     D
C3045  H3053   1.082   .     S
C3045  C3783   1.401   .     S
C3046  H3054   1.081   .     S
C3046  C3784   1.400   .     S
C3047  C3048   1.397   .     D
C3047  H3055   1.083   .     S
C3047  C3787   1.400   .     S
C3048  H3056   1.082   .     S
C3048  C3788   1.402   .     S
C3057  C3058   1.397   .     D
C3057  H3065   1.082   .     S
C3057  C3744   1.401   .     S
C3058  H3066   1.082   .     S
C3058  C3745   1.399   .     S
C3059  C3060   1.398   .     D
C3059  H3067   1.083   .     S
C3059  C3748   1.400   .     S
C3060  H3068   1.082   .     S
C3060  C3749   1.401   .     S
C3061  C3062   1.398   .     D
C3061  H3069   1.082   .     S
C3061  C3756   1.401   .     S
C3062  H3070   1.081   .     S
C3062  C3757   1.400   .     S
C3063  C3064   1.397   .     D
C3063  H3071   1.083   .     S
C3063  C3760   1.400   .     S
C3064  H3072   1.082   .     S
C3064  C3761   1.402   .     S
N3073  C7505   1.355   .     S
N3073  C7599   1.355   .     D
N3074  C7507   1.355   .     D
N3074  C7514   1.355   .     S
N3075  C7596   1.355   .     D
N3075  C7509   1.355   .     S
N3076  C7511   1.355   .     S
N3076  C7506   1.355   .     D
N3077  C7513   1.355   .     D
N3077  C7508   1.355   .     S
N3078  C7515   1.355   .     D
N3078  C7594   1.355   .     S
N3079  C7517   1.355   .     S
N3079  C7526   1.355   .     D
N3080  C7521   1.355   .     D
N3080  C7516   1.355   .     S
N3081  C7522   1.355   .     D
N3081  C7592   1.355   .     S
N3082  C7524   1.355   .     D
N3082  C7519   1.355   .     S
N3083  C7525   1.355   .     D
N3083  C7520   1.355   .     S
N3084  C7527   1.355   .     S
N3084  C7587   1.355   .     D
N3085  C7528   1.355   .     S
N3085  C7588   1.355   .     D
N3086  C7530   1.355   .     D
N3086  C7538   1.355   .     S
N3087  C7531   1.355   .     S
N3087  C7537   1.355   .     D
N3088  C7534   1.355   .     D
N3088  C7529   1.355   .     S
N3089  C7536   1.355   .     S
N3089  C7533   1.355   .     D
N3090  C7539   1.355   .     D
N3090  C7546   1.355   .     S
N3091  C7547   1.355   .     D
N3091  C7540   1.355   1_544 S
N3092  C7543   1.355   1_554 S
N3092  C7582   1.355   1_545 D
N3093  C7544   1.355   .     S
N3093  C7583   1.355   .     D
N3094  C7545   1.355   .     S
N3094  C7541   1.355   1_554 D
N3095  C7585   1.355   .     S
N3095  C7548   1.355   1_545 D
N3096  C7556   1.355   .     S
N3096  C7550   1.355   1_455 D
N3097  C7552   1.355   .     S
N3097  C7558   1.355   1_545 D
N3098  C7554   1.355   .     D
N3098  C7560   1.355   1_445 S
N3099  C7555   1.355   1_545 S
N3099  C7577   1.355   1_455 D
N3100  C7557   1.355   .     D
N3100  C7553   1.355   .     S
N3101  C7561   1.355   .     D
N3101  C7568   1.355   1_455 S
N3102  C7562   1.355   .     D
N3102  C7567   1.355   1_454 S
N3103  C7574   1.355   .     S
N3103  C7563   1.355   1_554 D
N3104  C7564   1.355   .     D
N3104  C7570   1.355   .     S
N3105  C7565   1.355   .     S
N3105  C7576   1.355   .     D
N3106  C7569   1.355   1_455 D
N3106  C7571   1.355   1_554 S
N3107  C7572   1.355   .     S
N3107  C7573   1.355   1_455 D
N3108  C7575   1.355   .     S
N3108  C7566   1.355   1_554 D
N3109  C7578   1.355   .     S
N3109  C7579   1.355   1_545 D
N3110  C7580   1.355   .     D
N3110  C7551   1.355   .     S
N3111  C7581   1.355   .     S
N3111  C7559   1.355   1_455 D
N3112  C7549   1.355   .     S
N3112  C7584   1.355   1_554 D
N3113  C7586   1.355   .     S
N3113  C7542   1.355   1_545 D
N3114  C7589   1.355   .     D
N3114  C7532   1.355   .     S
N3115  C7590   1.355   .     D
N3115  C7535   1.355   .     S
N3116  C7591   1.355   .     D
N3116  C7523   1.355   .     S
N3117  C7593   1.355   .     S
N3117  C7518   1.355   .     D
N3118  C7595   1.355   .     S
N3118  C7510   1.355   .     D
N3119  C7597   1.355   .     D
N3119  C7512   1.355   .     S
N3120  C7598   1.355   .     D
N3120  C7600   1.355   .     S
C3121  C3133   1.385   .     S
C3121  N3134   1.354   .     S
C3121  C3386   1.407   .     D
C3122  C3132   1.385   .     S
C3122  C3133   1.363   .     D
C3122  H3144   1.082   .     S
C3123  C3131   1.483   .     S
C3124  N3125   1.427   .     S
N3125  C3126   1.295   .     D
C3126  C3127   1.462   .     S
C3126  H3145   1.084   .     S
C3128  C3129   1.468   .     S
C3129  C5849   1.401   .     S
C3129  C5847   1.401   .     D
C3130  N5713   1.429   .     S
C3130  C5848   1.400   .     D
C3130  C5850   1.400   .     S
C3131  C3132   1.407   .     S
C3131  C7586   1.408   .     D
C3132  N3134   1.354   .     D
C3133  H3146   1.082   .     S
C3135  C3143   1.483   .     S
C3136  N3137   1.427   .     S
N3137  C3138   1.295   .     D
C3138  C3139   1.462   .     S
C3138  H3147   1.084   .     S
C3140  C3141   1.468   .     S
C3141  C7331   1.400   .     S
C3141  C7330   1.401   .     D
C3142  N5745   1.430   .     S
C3142  C7329   1.400   .     D
C3142  C7332   1.400   .     S
C3143  C3364   1.407   .     S
C3143  C7655   1.408   .     D
C3148  C3160   1.385   .     S
C3148  N3161   1.354   .     D
C3148  C3332   1.407   .     S
C3149  C3159   1.385   .     S
C3149  C3160   1.363   .     D
C3149  H3171   1.082   .     S
C3150  C3158   1.483   .     S
C3151  N3152   1.427   .     S
N3152  C3153   1.295   .     D
C3153  C3154   1.462   .     S
C3153  H3172   1.084   .     S
C3155  C3156   1.468   .     S
C3156  C5829   1.401   .     S
C3156  C5827   1.401   .     D
C3157  N5714   1.429   .     S
C3157  C5828   1.400   .     D
C3157  C5830   1.400   .     S
C3158  C3159   1.407   .     D
C3158  C7547   1.408   .     S
C3159  N3161   1.354   .     S
C3160  H3173   1.082   .     S
C3162  C3170   1.483   .     S
C3163  N3164   1.427   .     S
N3164  C3165   1.295   .     D
C3165  C3166   1.462   .     S
C3165  H3174   1.084   .     S
C3167  C3168   1.468   .     S
C3168  C7339   1.400   .     S
C3168  C7338   1.401   .     D
C3169  N5755   1.430   .     S
C3169  C7337   1.400   .     D
C3169  C7340   1.400   .     S
C3170  C3310   1.407   .     D
C3170  C7649   1.408   .     S
C3175  C3187   1.385   .     S
C3175  N3188   1.354   .     S
C3175  C5573   1.407   .     D
C3176  C3186   1.385   .     S
C3176  C3187   1.363   .     D
C3176  H3198   1.082   .     S
C3177  C3185   1.483   .     S
C3178  N3179   1.427   .     S
N3179  C3180   1.295   .     D
C3180  C3181   1.462   .     S
C3180  H3199   1.084   .     S
C3182  C3183   1.468   .     S
C3183  C6639   1.401   .     S
C3183  C6637   1.401   .     D
C3184  N5715   1.429   .     S
C3184  C6638   1.400   .     D
C3184  C6640   1.400   .     S
C3185  C3186   1.407   .     S
C3185  C7549   1.408   .     D
C3186  N3188   1.354   .     D
C3187  H3200   1.082   .     S
C3189  C3197   1.483   .     S
C3190  N3191   1.427   .     S
N3191  C3192   1.295   .     D
C3192  C3193   1.462   .     S
C3192  H3201   1.084   .     S
C3194  C3195   1.468   .     S
C3195  C7227   1.400   .     S
C3195  C7226   1.401   .     D
C3196  N5746   1.430   .     S
C3196  C7225   1.400   .     D
C3196  C7228   1.400   .     S
C3197  C5551   1.407   .     S
C3197  C7886   1.408   .     D
C3202  C3214   1.385   .     S
C3202  N3215   1.354   .     D
C3202  C5546   1.407   .     S
C3203  C3213   1.385   .     S
C3203  C3214   1.363   .     D
C3203  H3225   1.082   .     S
C3204  C3212   1.483   .     S
C3205  N3206   1.427   .     S
N3206  C3207   1.295   .     D
C3207  C3208   1.462   .     S
C3207  H3226   1.084   .     S
C3209  C3210   1.468   .     S
C3210  C6649   1.401   .     D
C3210  C6647   1.401   .     S
C3211  N5716   1.429   .     S
C3211  C6648   1.400   .     S
C3211  C6650   1.400   .     D
C3212  C3213   1.407   .     D
C3212  C7548   1.408   .     S
C3213  N3215   1.354   .     S
C3214  H3227   1.082   .     S
C3216  C3224   1.483   .     S
C3217  N3218   1.427   .     S
N3218  C3219   1.295   .     D
C3219  C3220   1.462   .     S
C3219  H3228   1.084   .     S
C3221  C3222   1.468   .     S
C3222  C7219   1.400   .     S
C3222  C7218   1.401   .     D
C3223  N5775   1.430   .     S
C3223  C7217   1.400   .     D
C3223  C7220   1.400   .     S
C3224  C5524   1.407   .     D
C3224  C7883   1.408   .     S
C3229  C3241   1.385   .     S
C3229  N3242   1.354   .     D
C3229  C3278   1.407   .     S
C3230  C3240   1.385   .     S
C3230  C3241   1.363   .     D
C3230  H3252   1.082   .     S
C3231  C3239   1.483   .     S
C3232  N3233   1.427   .     S
N3233  C3234   1.295   .     D
C3234  C3235   1.462   .     S
C3234  H3253   1.084   .     S
C3236  C3237   1.468   .     S
C3237  C5869   1.401   .     S
C3237  C5867   1.401   .     D
C3238  N5743   1.429   .     S
C3238  C5868   1.400   .     D
C3238  C5870   1.400   .     S
C3239  C3240   1.407   .     D
C3239  C7583   1.408   .     S
C3240  N3242   1.354   .     S
C3241  H3254   1.082   .     S
C3243  C3251   1.483   .     S
C3244  N3245   1.427   .     S
N3245  C3246   1.295   .     D
C3246  C3247   1.462   .     S
C3246  H3255   1.084   .     S
C3248  C3249   1.468   .     S
C3249  C7235   1.400   .     S
C3249  C7234   1.401   .     D
C3250  N5756   1.430   .     S
C3250  C7233   1.400   .     D
C3250  C7236   1.400   .     S
C3251  C3256   1.407   .     D
C3251  C7637   1.408   .     S
C3256  C3268   1.385   .     S
C3256  N3269   1.354   .     S
C3257  C3267   1.385   .     S
C3257  C3268   1.363   .     D
C3257  H3279   1.082   .     S
C3258  C3266   1.483   .     S
C3259  N3260   1.427   .     S
N3260  C3261   1.295   .     D
C3261  C3262   1.462   .     S
C3261  H3280   1.084   .     S
C3263  C3264   1.468   .     S
C3264  C6629   1.401   .     S
C3264  C6627   1.401   .     D
C3265  N5717   1.429   .     S
C3265  C6628   1.400   .     D
C3265  C6630   1.400   .     S
C3266  C3267   1.407   .     S
C3266  C7544   1.408   .     D
C3267  N3269   1.354   .     D
C3268  H3281   1.082   .     S
C3270  C3278   1.483   .     S
C3271  N3272   1.427   .     S
N3272  C3273   1.295   .     D
C3273  C3274   1.462   .     S
C3273  H3282   1.084   .     S
C3275  C3276   1.468   .     S
C3276  C7211   1.400   .     S
C3276  C7210   1.401   .     D
C3277  N5748   1.430   .     S
C3277  C7209   1.400   .     D
C3277  C7212   1.400   .     S
C3278  C7877   1.408   .     D
C3283  C3295   1.385   .     S
C3283  N3296   1.354   .     S
C3283  C5465   1.407   .     D
C3284  C3294   1.385   .     S
C3284  C3295   1.363   .     D
C3284  H3306   1.082   .     S
C3285  C3293   1.483   .     S
C3286  N3287   1.427   .     S
N3287  C3288   1.295   .     D
C3288  C3289   1.462   .     S
C3288  H3307   1.084   .     S
C3290  C3291   1.468   .     S
C3291  C6619   1.401   .     S
C3291  C6617   1.401   .     D
C3292  N5718   1.429   .     S
C3292  C6618   1.400   .     D
C3292  C6620   1.400   .     S
C3293  C3294   1.407   .     S
C3293  C7543   1.408   .     D
C3294  N3296   1.354   .     D
C3295  H3308   1.082   .     S
C3297  C3305   1.483   .     S
C3298  N3299   1.427   .     S
N3299  C3300   1.295   .     D
C3300  C3301   1.462   .     S
C3300  H3309   1.084   .     S
C3302  C3303   1.468   .     S
C3303  C7203   1.400   .     S
C3303  C7202   1.401   .     D
C3304  N5776   1.430   .     S
C3304  C7201   1.400   .     D
C3304  C7204   1.400   .     S
C3305  C5443   1.407   .     S
C3305  C7880   1.408   .     D
C3310  C3322   1.385   .     S
C3310  N3323   1.354   .     S
C3311  C3321   1.385   .     S
C3311  C3322   1.363   .     D
C3311  H3333   1.082   .     S
C3312  C3320   1.483   .     S
C3313  N3314   1.427   .     S
N3314  C3315   1.295   .     D
C3315  C3316   1.462   .     S
C3315  H3334   1.084   .     S
C3317  C3318   1.468   .     S
C3318  C6669   1.401   .     D
C3318  C6667   1.401   .     S
C3319  N5719   1.429   .     S
C3319  C6668   1.400   .     S
C3319  C6670   1.400   .     D
C3320  C3321   1.407   .     S
C3320  C7540   1.408   .     D
C3321  N3323   1.354   .     D
C3322  H3335   1.082   .     S
C3324  C3332   1.483   .     S
C3325  N3326   1.427   .     S
N3326  C3327   1.295   .     D
C3327  C3328   1.462   .     S
C3327  H3336   1.084   .     S
C3329  C3330   1.468   .     S
C3330  C7267   1.400   .     S
C3330  C7266   1.401   .     D
C3331  N5749   1.430   .     S
C3331  C7265   1.400   .     D
C3331  C7268   1.400   .     S
C3332  C7646   1.408   .     D
C3337  C3349   1.385   .     S
C3337  N3350   1.354   .     D
C3337  C5519   1.407   .     S
C3338  C3348   1.385   .     S
C3338  C3349   1.363   .     D
C3338  H3360   1.082   .     S
C3339  C3347   1.483   .     S
C3340  N3341   1.427   .     S
N3341  C3342   1.295   .     D
C3342  C3343   1.462   .     S
C3342  H3361   1.084   .     S
C3344  C3345   1.468   .     S
C3345  C5809   1.401   .     S
C3345  C5807   1.401   .     D
C3346  N5720   1.429   .     S
C3346  C5808   1.400   .     D
C3346  C5810   1.400   .     S
C3347  C3348   1.407   .     D
C3347  C7539   1.408   .     S
C3348  N3350   1.354   .     S
C3349  H3362   1.082   .     S
C3351  C3359   1.483   .     S
C3352  N3353   1.427   .     S
N3353  C3354   1.295   .     D
C3354  C3355   1.462   .     S
C3354  H3363   1.084   .     S
C3356  C3357   1.468   .     S
C3357  C7259   1.400   .     S
C3357  C7258   1.401   .     D
C3358  N5750   1.430   .     S
C3358  C7257   1.400   .     D
C3358  C7260   1.400   .     S
C3359  C5497   1.407   .     D
C3359  C7874   1.408   .     S
C3364  C3376   1.385   .     S
C3364  N3377   1.354   .     D
C3365  C3375   1.385   .     S
C3365  C3376   1.363   .     D
C3365  H3387   1.082   .     S
C3366  C3374   1.483   .     S
C3367  N3368   1.427   .     S
N3368  C3369   1.295   .     D
C3369  C3370   1.462   .     S
C3369  H3388   1.084   .     S
C3371  C3372   1.468   .     S
C3372  C6659   1.401   .     S
C3372  C6657   1.401   .     D
C3373  N5721   1.429   .     S
C3373  C6658   1.400   .     D
C3373  C6660   1.400   .     S
C3374  C3375   1.407   .     D
C3374  C7542   1.408   .     S
C3375  N3377   1.354   .     S
C3376  H3389   1.082   .     S
C3378  C3386   1.483   .     S
C3379  N3380   1.427   .     S
N3380  C3381   1.295   .     D
C3381  C3382   1.462   .     S
C3381  H3390   1.084   .     S
C3383  C3384   1.468   .     S
C3384  C7283   1.400   .     D
C3384  C7282   1.401   .     S
C3385  N5757   1.430   .     S
C3385  C7281   1.400   .     S
C3385  C7284   1.400   .     D
C3386  C7643   1.408   .     S
C3391  C3403   1.385   .     S
C3391  N3404   1.354   .     D
C3391  C5492   1.407   .     S
C3392  C3402   1.385   .     S
C3392  C3403   1.363   .     D
C3392  H3414   1.082   .     S
C3393  C3401   1.483   .     S
C3394  N3395   1.427   .     S
N3395  C3396   1.295   .     D
C3396  C3397   1.462   .     S
C3396  H3415   1.084   .     S
C3398  C3399   1.468   .     S
C3399  C5799   1.401   .     D
C3399  C5797   1.401   .     S
C3400  N5722   1.429   .     S
C3400  C5798   1.400   .     S
C3400  C5800   1.400   .     D
C3401  C3402   1.407   .     D
C3401  C7541   1.408   .     S
C3402  N3404   1.354   .     S
C3403  H3416   1.082   .     S
C3405  C3413   1.483   .     S
C3406  N3407   1.427   .     S
N3407  C3408   1.295   .     D
C3408  C3409   1.462   .     S
C3408  H3417   1.084   .     S
C3410  C3411   1.468   .     S
C3411  C7275   1.400   .     S
C3411  C7274   1.401   .     D
C3412  N5754   1.430   .     S
C3412  C7273   1.400   .     D
C3412  C7276   1.400   .     S
C3413  C5470   1.407   .     D
C3413  C7871   1.408   .     S
C3418  C3430   1.385   .     S
C3418  N3431   1.354   .     S
C3418  C3737   1.407   .     D
C3419  C3429   1.385   .     S
C3419  C3430   1.363   .     D
C3419  H3441   1.082   .     S
C3420  C3428   1.483   .     S
C3421  N3422   1.427   .     S
N3422  C3423   1.295   .     D
C3423  C3424   1.462   .     S
C3423  H3442   1.084   .     S
C3425  C3426   1.468   .     S
C3426  C5929   1.401   .     S
C3426  C5927   1.401   .     D
C3427  N5715   1.429   .     S
C3427  C5928   1.400   .     D
C3427  C5930   1.400   .     S
C3428  C3429   1.407   .     S
C3428  C7575   1.408   .     D
C3429  N3431   1.354   .     D
C3430  H3443   1.082   .     S
C3432  C3440   1.483   .     S
C3433  N3434   1.427   .     S
N3434  C3435   1.295   .     D
C3435  C3436   1.462   .     S
C3435  H3444   1.084   .     S
C3437  C3438   1.468   .     S
C3438  C7371   1.400   .     S
C3438  C7370   1.401   .     D
C3439  N5747   1.430   .     S
C3439  C7369   1.400   .     D
C3439  C7372   1.400   .     S
C3440  C3715   1.407   .     S
C3440  C7688   1.408   .     D
C3445  C3457   1.385   .     S
C3445  N3458   1.354   .     D
C3445  C3710   1.407   .     S
C3446  C3456   1.385   .     S
C3446  C3457   1.363   .     D
C3446  H3468   1.082   .     S
C3447  C3455   1.483   .     S
C3448  N3449   1.427   .     S
N3449  C3450   1.295   .     D
C3450  C3451   1.462   .     S
C3450  H3469   1.084   .     S
C3452  C3453   1.468   .     S
C3453  C5919   1.401   .     S
C3453  C5917   1.401   .     D
C3454  N5716   1.429   .     S
C3454  C5918   1.400   .     D
C3454  C5920   1.400   .     S
C3455  C3456   1.407   .     D
C3455  C7576   1.408   .     S
C3456  N3458   1.354   .     S
C3457  H3470   1.082   .     S
C3459  C3467   1.483   .     S
C3460  N3461   1.427   .     S
N3461  C3462   1.295   .     D
C3462  C3463   1.462   .     S
C3462  H3471   1.084   .     S
C3464  C3465   1.468   .     S
C3465  C7195   1.400   .     S
C3465  C7194   1.401   .     D
C3466  N5756   1.430   .     S
C3466  C7193   1.400   .     D
C3466  C7196   1.400   .     S
C3467  C3688   1.407   .     D
C3467  C7685   1.408   .     S
C3472  C3484   1.385   .     S
C3472  N3485   1.354   .     D
C3472  C3656   1.407   .     S
C3473  C3483   1.385   .     S
C3473  C3484   1.363   .     D
C3473  H3495   1.082   .     S
C3474  C3482   1.483   .     S
C3475  N3476   1.427   .     S
N3476  C3477   1.295   .     D
C3477  C3478   1.462   .     S
C3477  H3496   1.084   .     S
C3479  C3480   1.468   .     S
C3480  C5939   1.401   .     S
C3480  C5937   1.401   .     D
C3481  N5723   1.429   .     S
C3481  C5938   1.400   .     D
C3481  C5940   1.400   .     S
C3482  C3483   1.407   .     D
C3482  C7562   1.408   .     S
C3483  N3485   1.354   .     S
C3484  H3497   1.082   .     S
C3486  C3494   1.483   .     S
C3487  N3488   1.427   .     S
N3488  C3489   1.295   .     D
C3489  C3490   1.462   .     S
C3489  H3498   1.084   .     S
C3491  C3492   1.468   .     S
C3492  C7187   1.400   .     S
C3492  C7186   1.401   .     D
C3493  N5746   1.430   .     S
C3493  C7185   1.400   .     D
C3493  C7188   1.400   .     S
C3494  C3634   1.407   .     D
C3494  C7679   1.408   .     S
C3499  C3511   1.385   .     S
C3499  N3512   1.354   .     S
C3499  C5384   1.407   .     D
C3500  C3510   1.385   .     S
C3500  C3511   1.363   .     D
C3500  H3522   1.082   .     S
C3501  C3509   1.483   .     S
C3502  N3503   1.427   .     S
N3503  C3504   1.295   .     D
C3504  C3505   1.462   .     S
C3504  H3523   1.084   .     S
C3506  C3507   1.468   .     S
C3507  C6579   1.401   .     S
C3507  C6577   1.401   .     D
C3508  N5717   1.429   .     S
C3508  C6578   1.400   .     D
C3508  C6580   1.400   .     S
C3509  C3510   1.407   .     S
C3509  C7572   1.408   .     D
C3510  N3512   1.354   .     D
C3511  H3524   1.082   .     S
C3513  C3521   1.483   .     S
C3514  N3515   1.427   .     S
N3515  C3516   1.295   .     D
C3516  C3517   1.462   .     S
C3516  H3525   1.084   .     S
C3518  C3519   1.468   .     S
C3519  C7403   1.400   .     S
C3519  C7402   1.401   .     D
C3520  N5751   1.430   .     S
C3520  C7401   1.400   .     D
C3520  C7404   1.400   .     S
C3521  C5362   1.407   .     S
C3521  C7862   1.408   .     D
C3526  C3538   1.385   .     S
C3526  N3539   1.354   .     S
C3526  C3629   1.407   .     D
C3527  C3537   1.385   .     S
C3527  C3538   1.363   .     D
C3527  H3549   1.082   .     S
C3528  C3536   1.483   .     S
C3529  N3530   1.427   .     S
N3530  C3531   1.295   .     D
C3531  C3532   1.462   .     S
C3531  H3550   1.084   .     S
C3533  C3534   1.468   .     S
C3534  C5959   1.401   .     S
C3534  C5957   1.401   .     D
C3535  N5718   1.429   .     S
C3535  C5958   1.400   .     D
C3535  C5960   1.400   .     S
C3536  C3537   1.407   .     S
C3536  C7571   1.408   .     D
C3537  N3539   1.354   .     D
C3538  H3551   1.082   .     S
C3540  C3548   1.483   .     S
C3541  N3542   1.427   .     S
N3542  C3543   1.295   .     D
C3543  C3544   1.462   .     S
C3543  H3552   1.084   .     S
C3545  C3546   1.468   .     S
C3546  C7395   1.400   .     S
C3546  C7394   1.401   .     D
C3547  N5752   1.430   .     S
C3547  C7393   1.400   .     D
C3547  C7396   1.400   .     S
C3548  C3607   1.407   .     S
C3548  C7670   1.408   .     D
C3553  C3565   1.385   .     S
C3553  N3566   1.354   .     D
C3553  C3602   1.407   .     S
C3554  C3564   1.385   .     S
C3554  C3565   1.363   .     D
C3554  H3576   1.082   .     S
C3555  C3563   1.483   .     S
C3556  N3557   1.427   .     S
N3557  C3558   1.295   .     D
C3558  C3559   1.462   .     S
C3558  H3577   1.084   .     S
C3560  C3561   1.468   .     S
C3561  C5969   1.401   .     S
C3561  C5967   1.401   .     D
C3562  N5724   1.429   .     S
C3562  C5968   1.400   .     D
C3562  C5970   1.400   .     S
C3563  C3564   1.407   .     D
C3563  C7564   1.408   .     S
C3564  N3566   1.354   .     S
C3565  H3578   1.082   .     S
C3567  C3575   1.483   .     S
C3568  N3569   1.427   .     S
N3569  C3570   1.295   .     D
C3570  C3571   1.462   .     S
C3570  H3579   1.084   .     S
C3572  C3573   1.468   .     S
C3573  C7123   1.400   .     S
C3573  C7122   1.401   .     D
C3574  N5748   1.430   .     S
C3574  C7121   1.400   .     D
C3574  C7124   1.400   .     S
C3575  C3580   1.407   .     D
C3575  C7667   1.408   .     S
C3580  C3592   1.385   .     S
C3580  N3593   1.354   .     S
C3581  C3591   1.385   .     S
C3581  C3592   1.363   .     D
C3581  H3603   1.082   .     S
C3582  C3590   1.483   .     S
C3583  N3584   1.427   .     S
N3584  C3585   1.295   .     D
C3585  C3586   1.462   .     S
C3585  H3604   1.084   .     S
C3587  C3588   1.468   .     S
C3588  C5889   1.401   .     S
C3588  C5887   1.401   .     D
C3589  N5713   1.429   .     S
C3589  C5888   1.400   .     D
C3589  C5890   1.400   .     S
C3590  C3591   1.407   .     S
C3590  C7570   1.408   .     D
C3591  N3593   1.354   .     D
C3592  H3605   1.082   .     S
C3594  C3602   1.483   .     S
C3595  N3596   1.427   .     S
N3596  C3597   1.295   .     D
C3597  C3598   1.462   .     S
C3597  H3606   1.084   .     S
C3599  C3600   1.468   .     S
C3600  C7139   1.400   .     S
C3600  C7138   1.401   .     D
C3601  N5753   1.430   .     S
C3601  C7137   1.400   .     D
C3601  C7140   1.400   .     S
C3602  C7865   1.408   .     D
C3607  C3619   1.385   .     S
C3607  N3620   1.354   .     D
C3608  C3618   1.385   .     S
C3608  C3619   1.363   .     D
C3608  H3630   1.082   .     S
C3609  C3617   1.483   .     S
C3610  N3611   1.427   .     S
N3611  C3612   1.295   .     D
C3612  C3613   1.462   .     S
C3612  H3631   1.084   .     S
C3614  C3615   1.468   .     S
C3615  C6599   1.401   .     S
C3615  C6597   1.401   .     D
C3616  N5714   1.429   .     S
C3616  C6598   1.400   .     D
C3616  C6600   1.400   .     S
C3617  C3618   1.407   .     D
C3617  C7569   1.408   .     S
C3618  N3620   1.354   .     S
C3619  H3632   1.082   .     S
C3621  C3629   1.483   .     S
C3622  N3623   1.427   .     S
N3623  C3624   1.295   .     D
C3624  C3625   1.462   .     S
C3624  H3633   1.084   .     S
C3626  C3627   1.468   .     S
C3627  C7131   1.400   .     S
C3627  C7130   1.401   .     D
C3628  N5774   1.430   .     S
C3628  C7129   1.400   .     D
C3628  C7132   1.400   .     S
C3629  C7664   1.408   .     S
C3634  C3646   1.385   .     S
C3634  N3647   1.354   .     S
C3635  C3645   1.385   .     S
C3635  C3646   1.363   .     D
C3635  H3657   1.082   .     S
C3636  C3644   1.483   .     S
C3637  N3638   1.427   .     S
N3638  C3639   1.295   .     D
C3639  C3640   1.462   .     S
C3639  H3658   1.084   .     S
C3641  C3642   1.468   .     S
C3642  C5909   1.401   .     D
C3642  C5907   1.401   .     S
C3643  N5719   1.429   .     S
C3643  C5908   1.400   .     S
C3643  C5910   1.400   .     D
C3644  C3645   1.407   .     S
C3644  C7567   1.408   .     D
C3645  N3647   1.354   .     D
C3646  H3659   1.082   .     S
C3648  C3656   1.483   .     S
C3649  N3650   1.427   .     S
N3650  C3651   1.295   .     D
C3651  C3652   1.462   .     S
C3651  H3660   1.084   .     S
C3653  C3654   1.468   .     S
C3654  C7163   1.400   .     S
C3654  C7162   1.401   .     D
C3655  N5754   1.430   .     S
C3655  C7161   1.400   .     D
C3655  C7164   1.400   .     S
C3656  C7856   1.408   .     D
C3661  C3673   1.385   .     S
C3661  N3674   1.354   .     S
C3661  C5411   1.407   .     D
C3662  C3672   1.385   .     S
C3662  C3673   1.363   .     D
C3662  H3684   1.082   .     S
C3663  C3671   1.483   .     S
C3664  N3665   1.427   .     S
N3665  C3666   1.295   .     D
C3666  C3667   1.462   .     S
C3666  H3685   1.084   .     S
C3668  C3669   1.468   .     S
C3669  C5899   1.401   .     S
C3669  C5897   1.401   .     D
C3670  N5720   1.429   .     S
C3670  C5898   1.400   .     D
C3670  C5900   1.400   .     S
C3671  C3672   1.407   .     S
C3671  C7568   1.408   .     D
C3672  N3674   1.354   .     D
C3673  H3686   1.082   .     S
C3675  C3683   1.483   .     S
C3676  N3677   1.427   .     S
N3677  C3678   1.295   .     D
C3678  C3679   1.462   .     S
C3678  H3687   1.084   .     S
C3680  C3681   1.468   .     S
C3681  C7171   1.400   .     S
C3681  C7170   1.401   .     D
C3682  N5757   1.430   .     S
C3682  C7169   1.400   .     D
C3682  C7172   1.400   .     S
C3683  C5389   1.407   .     S
C3683  C7853   1.408   .     D
C3688  C3700   1.385   .     S
C3688  N3701   1.354   .     S
C3689  C3699   1.385   .     S
C3689  C3700   1.363   .     D
C3689  H3711   1.082   .     S
C3690  C3698   1.483   .     S
C3691  N3692   1.427   .     S
N3692  C3693   1.295   .     D
C3693  C3694   1.462   .     S
C3693  H3712   1.084   .     S
C3695  C3696   1.468   .     S
C3696  C6569   1.401   .     S
C3696  C6567   1.401   .     D
C3697  N5721   1.429   .     S
C3697  C6568   1.400   .     D
C3697  C6570   1.400   .     S
C3698  C3699   1.407   .     S
C3698  C7565   1.408   .     D
C3699  N3701   1.354   .     D
C3700  H3713   1.082   .     S
C3702  C3710   1.483   .     S
C3703  N3704   1.427   .     S
N3704  C3705   1.295   .     D
C3705  C3706   1.462   .     S
C3705  H3714   1.084   .     S
C3707  C3708   1.468   .     S
C3708  C7147   1.400   .     S
C3708  C7146   1.401   .     D
C3709  N5750   1.430   .     S
C3709  C7145   1.400   .     D
C3709  C7148   1.400   .     S
C3710  C7676   1.408   .     D
C3715  C3727   1.385   .     S
C3715  N3728   1.354   .     D
C3716  C3726   1.385   .     S
C3716  C3727   1.363   .     D
C3716  H3738   1.082   .     S
C3717  C3725   1.483   .     S
C3718  N3719   1.427   .     S
N3719  C3720   1.295   .     D
C3720  C3721   1.462   .     S
C3720  H3739   1.084   .     S
C3722  C3723   1.468   .     S
C3723  C6559   1.401   .     D
C3723  C6557   1.401   .     S
C3724  N5722   1.429   .     S
C3724  C6558   1.400   .     S
C3724  C6560   1.400   .     D
C3725  C3726   1.407   .     D
C3725  C7566   1.408   .     S
C3726  N3728   1.354   .     S
C3727  H3740   1.082   .     S
C3729  C3737   1.483   .     S
C3730  N3731   1.427   .     S
N3731  C3732   1.295   .     D
C3732  C3733   1.462   .     S
C3732  H3741   1.084   .     S
C3734  C3735   1.468   .     S
C3735  C7155   1.400   .     S
C3735  C7154   1.401   .     D
C3736  N5749   1.430   .     S
C3736  C7153   1.400   .     D
C3736  C7156   1.400   .     S
C3737  C7673   1.408   .     S
C3742  C3754   1.385   .     S
C3742  N3755   1.354   .     S
C3742  C3980   1.407   .     D
C3743  C3753   1.385   .     S
C3743  C3754   1.363   .     D
C3743  H3765   1.082   .     S
C3744  C3752   1.483   .     S
C3745  N3746   1.427   .     S
N3746  C3747   1.295   .     D
C3747  C3748   1.462   .     S
C3747  H3766   1.084   .     S
C3749  C3750   1.468   .     S
C3750  C6039   1.401   .     S
C3750  C6037   1.401   .     D
C3751  N5717   1.429   .     S
C3751  C6038   1.400   .     D
C3751  C6040   1.400   .     S
C3752  C3753   1.407   .     S
C3752  C7581   1.408   .     D
C3753  N3755   1.354   .     D
C3754  H3767   1.082   .     S
C3756  C3764   1.483   .     S
C3757  N3758   1.427   .     S
N3758  C3759   1.295   .     D
C3759  C3760   1.462   .     S
C3759  H3768   1.084   .     S
C3761  C3762   1.468   .     S
C3762  C7291   1.400   .     S
C3762  C7290   1.401   .     D
C3763  N5752   1.430   .     S
C3763  C7289   1.400   .     D
C3763  C7292   1.400   .     S
C3764  C3958   1.407   .     S
C3764  C7622   1.408   .     D
C3769  C3781   1.385   .     S
C3769  N3782   1.354   .     D
C3769  C3953   1.407   .     S
C3770  C3780   1.385   .     S
C3770  C3781   1.363   .     D
C3770  H3792   1.082   .     S
C3771  C3779   1.483   .     S
C3772  N3773   1.427   .     S
N3773  C3774   1.295   .     D
C3774  C3775   1.462   .     S
C3774  H3793   1.084   .     S
C3776  C3777   1.468   .     S
C3777  C6049   1.401   .     S
C3777  C6047   1.401   .     D
C3778  N5718   1.429   .     S
C3778  C6048   1.400   .     D
C3778  C6050   1.400   .     S
C3779  C3780   1.407   .     D
C3779  C7554   1.408   .     S
C3780  N3782   1.354   .     S
C3781  H3794   1.082   .     S
C3783  C3791   1.483   .     S
C3784  N3785   1.427   .     S
N3785  C3786   1.295   .     D
C3786  C3787   1.462   .     S
C3786  H3795   1.084   .     S
C3788  C3789   1.468   .     S
C3789  C7299   1.400   .     S
C3789  C7298   1.401   .     D
C3790  N5751   1.430   .     S
C3790  C7297   1.400   .     D
C3790  C7300   1.400   .     S
C3791  C3931   1.407   .     D
C3791  C7619   1.408   .     S
C3796  C3808   1.385   .     S
C3796  N3809   1.354   .     S
C3796  C3926   1.407   .     D
C3797  C3807   1.385   .     S
C3797  C3808   1.363   .     D
C3797  H3819   1.082   .     S
C3798  C3806   1.483   .     S
C3799  N3800   1.427   .     S
N3800  C3801   1.295   .     D
C3801  C3802   1.462   .     S
C3801  H3820   1.084   .     S
C3803  C3804   1.468   .     S
C3804  C6719   1.401   .     S
C3804  C6717   1.401   .     D
C3805  N5713   1.429   .     S
C3805  C6718   1.400   .     D
C3805  C6720   1.400   .     S
C3806  C3807   1.407   .     S
C3806  C7578   1.408   .     D
C3807  N3809   1.354   .     D
C3808  H3821   1.082   .     S
C3810  C3818   1.483   .     S
C3811  N3812   1.427   .     S
N3812  C3813   1.295   .     D
C3813  C3814   1.462   .     S
C3813  H3822   1.084   .     S
C3815  C3816   1.468   .     S
C3816  C7323   1.400   .     S
C3816  C7322   1.401   .     D
C3817  N5755   1.430   .     S
C3817  C7321   1.400   .     D
C3817  C7324   1.400   .     S
C3818  C3904   1.407   .     S
C3818  C7610   1.408   .     D
C3823  C3835   1.385   .     S
C3823  N3836   1.354   .     S
C3823  C3899   1.407   .     D
C3824  C3834   1.385   .     S
C3824  C3835   1.363   .     D
C3824  H3846   1.082   .     S
C3825  C3833   1.483   .     S
C3826  N3827   1.427   .     S
N3827  C3828   1.295   .     D
C3828  C3829   1.462   .     S
C3828  H3847   1.084   .     S
C3830  C3831   1.468   .     S
C3831  C6729   1.401   .     S
C3831  C6727   1.401   .     D
C3832  N5741   1.429   .     S
C3832  C6728   1.400   .     D
C3832  C6730   1.400   .     S
C3833  C3834   1.407   .     S
C3833  C7551   1.408   .     D
C3834  N3836   1.354   .     D
C3835  H3848   1.082   .     S
C3837  C3845   1.483   .     S
C3838  N3839   1.427   .     S
N3839  C3840   1.295   .     D
C3840  C3841   1.462   .     S
C3840  H3849   1.084   .     S
C3842  C3843   1.468   .     S
C3843  C7107   1.400   .     S
C3843  C7106   1.401   .     D
C3844  N5753   1.430   .     S
C3844  C7105   1.400   .     D
C3844  C7108   1.400   .     S
C3845  C3877   1.407   .     S
C3845  C7607   1.408   .     D
C3850  C3862   1.385   .     S
C3850  N3863   1.354   .     D
C3850  C5654   1.407   .     S
C3851  C3861   1.385   .     S
C3851  C3862   1.363   .     D
C3851  H3873   1.082   .     S
C3852  C3860   1.483   .     S
C3853  N3854   1.427   .     S
N3854  C3855   1.295   .     D
C3855  C3856   1.462   .     S
C3855  H3874   1.084   .     S
C3857  C3858   1.468   .     S
C3858  C6059   1.401   .     S
C3858  C6057   1.401   .     D
C3859  N5714   1.429   .     S
C3859  C6058   1.400   .     D
C3859  C6060   1.400   .     S
C3860  C3861   1.407   .     D
C3860  C7577   1.408   .     S
C3861  N3863   1.354   .     S
C3862  H3875   1.082   .     S
C3864  C3872   1.483   .     S
C3865  N3866   1.427   .     S
N3866  C3867   1.295   .     D
C3867  C3868   1.462   .     S
C3867  H3876   1.084   .     S
C3869  C3870   1.468   .     S
C3870  C7315   1.400   .     D
C3870  C7314   1.401   .     S
C3871  N5745   1.430   .     S
C3871  C7313   1.400   .     S
C3871  C7316   1.400   .     D
C3872  C5632   1.407   .     D
C3872  C7844   1.408   .     S
C3877  C3889   1.385   .     S
C3877  N3890   1.354   .     D
C3878  C3888   1.385   .     S
C3878  C3889   1.363   .     D
C3878  H3900   1.082   .     S
C3879  C3887   1.483   .     S
C3880  N3881   1.427   .     S
N3881  C3882   1.295   .     D
C3882  C3883   1.462   .     S
C3882  H3901   1.084   .     S
C3884  C3885   1.468   .     S
C3885  C5989   1.401   .     S
C3885  C5987   1.401   .     D
C3886  N5715   1.429   .     S
C3886  C5988   1.400   .     D
C3886  C5990   1.400   .     S
C3887  C3888   1.407   .     D
C3887  C7580   1.408   .     S
C3888  N3890   1.354   .     S
C3889  H3902   1.082   .     S
C3891  C3899   1.483   .     S
C3892  N3893   1.427   .     S
N3893  C3894   1.295   .     D
C3894  C3895   1.462   .     S
C3894  H3903   1.084   .     S
C3896  C3897   1.468   .     S
C3897  C7091   1.400   .     S
C3897  C7090   1.401   .     D
C3898  N5756   1.430   .     S
C3898  C7089   1.400   .     D
C3898  C7092   1.400   .     S
C3899  C7835   1.408   .     S
C3904  C3916   1.385   .     S
C3904  N3917   1.354   .     D
C3905  C3915   1.385   .     S
C3905  C3916   1.363   .     D
C3905  H3927   1.082   .     S
C3906  C3914   1.483   .     S
C3907  N3908   1.427   .     S
N3908  C3909   1.295   .     D
C3909  C3910   1.462   .     S
C3909  H3928   1.084   .     S
C3911  C3912   1.468   .     S
C3912  C6689   1.401   .     S
C3912  C6687   1.401   .     D
C3913  N5716   1.429   .     S
C3913  C6688   1.400   .     D
C3913  C6690   1.400   .     S
C3914  C3915   1.407   .     D
C3914  C7579   1.408   .     S
C3915  N3917   1.354   .     S
C3916  H3929   1.082   .     S
C3918  C3926   1.483   .     S
C3919  N3920   1.427   .     S
N3920  C3921   1.295   .     D
C3921  C3922   1.462   .     S
C3921  H3930   1.084   .     S
C3923  C3924   1.468   .     S
C3924  C7307   1.400   .     S
C3924  C7306   1.401   .     D
C3925  N5747   1.430   .     S
C3925  C7305   1.400   .     D
C3925  C7308   1.400   .     S
C3926  C7601   1.408   .     S
C3931  C3943   1.385   .     S
C3931  N3944   1.354   .     S
C3932  C3942   1.385   .     S
C3932  C3943   1.363   .     D
C3932  H3954   1.082   .     S
C3933  C3941   1.483   .     S
C3934  N3935   1.427   .     S
N3935  C3936   1.295   .     D
C3936  C3937   1.462   .     S
C3936  H3955   1.084   .     S
C3938  C3939   1.468   .     S
C3939  C6709   1.401   .     S
C3939  C6707   1.401   .     D
C3940  N5719   1.429   .     S
C3940  C6708   1.400   .     D
C3940  C6710   1.400   .     S
C3941  C3942   1.407   .     S
C3941  C7560   1.408   .     D
C3942  N3944   1.354   .     D
C3943  H3956   1.082   .     S
C3945  C3953   1.483   .     S
C3946  N3947   1.427   .     S
N3947  C3948   1.295   .     D
C3948  C3949   1.462   .     S
C3948  H3957   1.084   .     S
C3950  C3951   1.468   .     S
C3951  C7067   1.400   .     S
C3951  C7066   1.401   .     D
C3952  N5757   1.430   .     S
C3952  C7065   1.400   .     D
C3952  C7068   1.400   .     S
C3953  C7616   1.408   .     D
C3958  C3970   1.385   .     S
C3958  N3971   1.354   .     D
C3959  C3969   1.385   .     S
C3959  C3970   1.363   .     D
C3959  H3981   1.082   .     S
C3960  C3968   1.483   .     S
C3961  N3962   1.427   .     S
N3962  C3963   1.295   .     D
C3963  C3964   1.462   .     S
C3963  H3982   1.084   .     S
C3965  C3966   1.468   .     S
C3966  C6699   1.401   .     S
C3966  C6697   1.401   .     D
C3967  N5720   1.429   .     S
C3967  C6698   1.400   .     D
C3967  C6700   1.400   .     S
C3968  C3969   1.407   .     D
C3968  C7559   1.408   .     S
C3969  N3971   1.354   .     S
C3970  H3983   1.082   .     S
C3972  C3980   1.483   .     S
C3973  N3974   1.427   .     S
N3974  C3975   1.295   .     D
C3975  C3976   1.462   .     S
C3975  H3984   1.084   .     S
C3977  C3978   1.468   .     S
C3978  C7059   1.400   .     S
C3978  C7058   1.401   .     D
C3979  N5754   1.430   .     S
C3979  C7057   1.400   .     D
C3979  C7060   1.400   .     S
C3980  C7613   1.408   .     S
C3985  C3997   1.385   .     S
C3985  N3998   1.354   .     D
C3985  C5681   1.407   .     S
C3986  C3996   1.385   .     S
C3986  C3997   1.363   .     D
C3986  H4008   1.082   .     S
C3987  C3995   1.483   .     S
C3988  N3989   1.427   .     S
N3989  C3990   1.295   .     D
C3990  C3991   1.462   .     S
C3990  H4009   1.084   .     S
C3992  C3993   1.468   .     S
C3993  C5999   1.401   .     S
C3993  C5997   1.401   .     D
C3994  N5721   1.429   .     S
C3994  C5998   1.400   .     D
C3994  C6000   1.400   .     S
C3995  C3996   1.407   .     D
C3995  C7558   1.408   .     S
C3996  N3998   1.354   .     S
C3997  H4010   1.082   .     S
C3999  C4007   1.483   .     S
C4000  N4001   1.427   .     S
N4001  C4002   1.295   .     D
C4002  C4003   1.462   .     S
C4002  H4011   1.084   .     S
C4004  C4005   1.468   .     S
C4005  C7051   1.400   .     S
C4005  C7050   1.401   .     D
C4006  N5749   1.430   .     S
C4006  C7049   1.400   .     D
C4006  C7052   1.400   .     S
C4007  C5659   1.407   .     D
C4007  C7847   1.408   .     S
C4012  C4024   1.385   .     S
C4012  N4025   1.354   .     D
C4012  C5708   1.407   .     S
C4013  C4023   1.385   .     S
C4013  C4024   1.363   .     D
C4013  H4035   1.082   .     S
C4014  C4022   1.483   .     S
C4015  N4016   1.427   .     S
N4016  C4017   1.295   .     D
C4017  C4018   1.462   .     S
C4017  H4036   1.084   .     S
C4019  C4020   1.468   .     S
C4020  C6009   1.401   .     S
C4020  C6007   1.401   .     D
C4021  N5722   1.429   .     S
C4021  C6008   1.400   .     D
C4021  C6010   1.400   .     S
C4022  C4023   1.407   .     D
C4022  C7557   1.408   .     S
C4023  N4025   1.354   .     S
C4024  H4037   1.082   .     S
C4026  C4034   1.483   .     S
C4027  N4028   1.427   .     S
N4028  C4029   1.295   .     D
C4029  C4030   1.462   .     S
C4029  H4038   1.084   .     S
C4031  C4032   1.468   .     S
C4032  C7043   1.400   .     S
C4032  C7042   1.401   .     D
C4033  N5750   1.430   .     S
C4033  C7041   1.400   .     D
C4033  C7044   1.400   .     S
C4034  C5686   1.407   .     D
C4034  C7850   1.408   .     S
C4039  C4051   1.385   .     S
C4039  N4052   1.354   .     S
C4039  C4331   1.407   .     D
C4040  C4050   1.385   .     S
C4040  C4051   1.363   .     D
C4040  H4062   1.082   .     S
C4041  C4049   1.483   .     S
C4042  N4043   1.427   .     S
N4043  C4044   1.295   .     D
C4044  C4045   1.462   .     S
C4044  H4063   1.084   .     S
C4046  C4047   1.468   .     S
C4047  C6439   1.401   .     S
C4047  C6437   1.401   .     D
C4048  N5725   1.429   .     S
C4048  C6438   1.400   .     D
C4048  C6440   1.400   .     S
C4049  C4050   1.407   .     S
C4049  C7512   1.408   .     D
C4050  N4052   1.354   .     D
C4051  H4064   1.082   .     S
C4053  C4061   1.483   .     S
C4054  N4055   1.427   .     S
N4055  C4056   1.295   .     D
C4056  C4057   1.462   .     S
C4056  H4065   1.084   .     S
C4058  C4059   1.468   .     S
C4059  C6987   1.400   .     S
C4059  C6986   1.401   .     D
C4060  N5758   1.430   .     S
C4060  C6985   1.400   .     D
C4060  C6988   1.400   .     S
C4061  C4309   1.407   .     S
C4061  C7748   1.408   .     D
C4066  C4078   1.385   .     S
C4066  N4079   1.354   .     S
C4066  C5087   1.407   .     D
C4067  C4077   1.385   .     S
C4067  C4078   1.363   .     D
C4067  H4089   1.082   .     S
C4068  C4076   1.483   .     S
C4069  N4070   1.427   .     S
N4070  C4071   1.295   .     D
C4071  C4072   1.462   .     S
C4071  H4090   1.084   .     S
C4073  C4074   1.468   .     S
C4074  C6129   1.401   .     S
C4074  C6127   1.401   .     D
C4075  N5726   1.429   .     S
C4075  C6128   1.400   .     D
C4075  C6130   1.400   .     S
C4076  C4077   1.407   .     S
C4076  C7511   1.408   .     D
C4077  N4079   1.354   .     D
C4078  H4091   1.082   .     S
C4080  C4088   1.483   .     S
C4081  N4082   1.427   .     S
N4082  C4083   1.295   .     D
C4083  C4084   1.462   .     S
C4083  H4092   1.084   .     S
C4085  C4086   1.468   .     S
C4086  C6979   1.400   .     S
C4086  C6978   1.401   .     D
C4087  N5771   1.430   .     S
C4087  C6977   1.400   .     D
C4087  C6980   1.400   .     S
C4088  C5065   1.407   .     S
C4088  C7817   1.408   .     D
C4093  C4105   1.385   .     S
C4093  C4223   1.407   .     D
C4093  N4106   1.354   1_545 S
C4094  C4104   1.385   .     S
C4094  H4116   1.082   .     S
C4094  C4105   1.363   1_565 D
C4095  C4103   1.483   .     S
C4096  N4097   1.427   .     S
N4097  C4098   1.295   .     D
C4098  C4099   1.462   .     S
C4098  H4117   1.084   .     S
C4100  C4101   1.468   .     S
C4101  C6169   1.401   .     S
C4101  C6167   1.401   .     D
C4102  N5727   1.429   .     S
C4102  C6168   1.400   .     D
C4102  C6170   1.400   .     S
C4103  C4104   1.407   .     S
C4103  C7595   1.408   .     D
C4104  N4106   1.354   .     D
C4105  H4118   1.082   .     S
C4105  C4094   1.363   1_545 D
N4106  C4093   1.354   1_565 S
C4107  C4115   1.483   .     S
C4108  N4109   1.427   .     S
N4109  C4110   1.295   .     D
C4110  C4111   1.462   .     S
C4110  H4119   1.084   .     S
C4112  C4113   1.468   .     S
C4113  C7459   1.400   .     S
C4113  C7458   1.401   .     D
C4114  N5759   1.430   .     S
C4114  C7457   1.400   .     D
C4114  C7460   1.400   .     S
C4115  C4201   1.407   .     S
C4115  C7730   1.408   .     D
C4120  C4132   1.385   .     S
C4120  N4133   1.354   .     D
C4120  C4196   1.407   .     S
C4121  C4131   1.385   .     S
C4121  C4132   1.363   .     D
C4121  H4143   1.082   .     S
C4122  C4130   1.483   .     S
C4123  N4124   1.427   .     S
N4124  C4125   1.295   .     D
C4125  C4126   1.462   .     S
C4125  H4144   1.084   .     S
C4127  C4128   1.468   .     S
C4128  C6159   1.401   .     S
C4128  C6157   1.401   .     D
C4129  N5728   1.429   .     S
C4129  C6158   1.400   .     D
C4129  C6160   1.400   .     S
C4130  C4131   1.407   .     D
C4130  C7596   1.408   .     S
C4131  N4133   1.354   .     S
C4132  H4145   1.082   .     S
C4134  C4142   1.483   .     S
C4135  N4136   1.427   .     S
N4136  C4137   1.295   .     D
C4137  C4138   1.462   .     S
C4137  H4146   1.084   .     S
C4139  C4140   1.468   .     S
C4140  C7467   1.400   .     S
C4140  C7466   1.401   .     D
C4141  N5769   1.430   .     S
C4141  C7465   1.400   .     D
C4141  C7468   1.400   .     S
C4142  C4174   1.407   .     D
C4142  C7727   1.408   .     S
C4147  C4159   1.385   .     S
C4147  N4160   1.354   .     S
C4147  C4250   1.407   .     D
C4148  C4158   1.385   .     S
C4148  C4159   1.363   .     D
C4148  H4170   1.082   .     S
C4149  C4157   1.483   .     S
C4150  N4151   1.427   .     S
N4151  C4152   1.295   .     D
C4152  C4153   1.462   .     S
C4152  H4171   1.084   .     S
C4154  C4155   1.468   .     S
C4155  C6139   1.401   .     S
C4155  C6137   1.401   .     D
C4156  N5735   1.429   .     S
C4156  C6138   1.400   .     D
C4156  C6140   1.400   .     S
C4157  C4158   1.407   .     S
C4157  C7514   1.408   .     D
C4158  N4160   1.354   .     D
C4159  H4172   1.082   .     S
C4161  C4169   1.483   .     S
C4162  N4163   1.427   .     S
N4163  C4164   1.295   .     D
C4164  C4165   1.462   .     S
C4164  H4173   1.084   .     S
C4166  C4167   1.468   .     S
C4167  C6971   1.400   .     S
C4167  C6970   1.401   .     D
C4168  N5762   1.430   .     S
C4168  C6969   1.400   .     D
C4168  C6972   1.400   .     S
C4169  C4228   1.407   .     S
C4169  C7733   1.408   .     D
C4174  C4186   1.385   .     S
C4174  N4187   1.354   .     S
C4175  C4185   1.385   .     S
C4175  C4186   1.363   .     D
C4175  H4197   1.082   .     S
C4176  C4184   1.483   .     S
C4177  N4178   1.427   .     S
N4178  C4179   1.295   .     D
C4179  C4180   1.462   .     S
C4179  H4198   1.084   .     S
C4181  C4182   1.468   .     S
C4182  C6469   1.401   .     S
C4182  C6467   1.401   .     D
C4183  N5729   1.429   .     S
C4183  C6468   1.400   .     D
C4183  C6470   1.400   .     S
C4184  C4185   1.407   .     S
C4184  C7509   1.408   .     D
C4185  N4187   1.354   .     D
C4186  H4199   1.082   .     S
C4188  C4196   1.483   .     S
C4189  N4190   1.427   .     S
N4190  C4191   1.295   .     D
C4191  C4192   1.462   .     S
C4191  H4200   1.084   .     S
C4193  C4194   1.468   .     S
C4194  C6947   1.400   .     S
C4194  C6946   1.401   .     D
C4195  N5760   1.430   .     S
C4195  C6945   1.400   .     D
C4195  C6948   1.400   .     S
C4196  C7724   1.408   .     D
C4201  C4213   1.385   .     S
C4201  N4214   1.354   1_545 D
C4202  C4212   1.385   .     S
C4202  H4224   1.082   .     S
C4202  C4213   1.363   1_565 D
C4203  C4211   1.483   .     S
C4204  N4205   1.427   .     S
N4205  C4206   1.295   .     D
C4206  C4207   1.462   .     S
C4206  H4225   1.084   .     S
C4208  C4209   1.468   .     S
C4209  C6459   1.401   .     S
C4209  C6457   1.401   .     D
C4210  N5730   1.429   .     S
C4210  C6458   1.400   .     D
C4210  C6460   1.400   .     S
C4211  C4212   1.407   .     D
C4211  C7510   1.408   .     S
C4212  N4214   1.354   .     S
C4213  H4226   1.082   .     S
C4213  C4202   1.363   1_545 D
N4214  C4201   1.354   1_565 D
C4215  C4223   1.483   .     S
C4216  N4217   1.427   .     S
N4217  C4218   1.295   .     D
C4218  C4219   1.462   .     S
C4218  H4227   1.084   .     S
C4220  C4221   1.468   .     S
C4221  C6955   1.400   .     S
C4221  C6954   1.401   .     D
C4222  N5767   1.430   .     S
C4222  C6953   1.400   .     D
C4222  C6956   1.400   .     S
C4223  C7721   1.408   .     S
C4228  C4240   1.385   .     S
C4228  N4241   1.354   .     D
C4229  C4239   1.385   .     S
C4229  C4240   1.363   .     D
C4229  H4251   1.082   .     S
C4230  C4238   1.483   .     S
C4231  N4232   1.427   .     S
N4232  C4233   1.295   .     D
C4233  C4234   1.462   .     S
C4233  H4252   1.084   .     S
C4235  C4236   1.468   .     S
C4236  C6089   1.401   .     S
C4236  C6087   1.401   .     D
C4237  N5731   1.429   .     S
C4237  C6088   1.400   .     D
C4237  C6090   1.400   .     S
C4238  C4239   1.407   .     D
C4238  C7507   1.408   .     S
C4239  N4241   1.354   .     S
C4240  H4253   1.082   .     S
C4242  C4250   1.483   .     S
C4243  N4244   1.427   .     S
N4244  C4245   1.295   .     D
C4245  C4246   1.462   .     S
C4245  H4254   1.084   .     S
C4247  C4248   1.468   .     S
C4248  C6931   1.400   .     S
C4248  C6930   1.401   .     D
C4249  N5764   1.430   .     S
C4249  C6929   1.400   .     D
C4249  C6932   1.400   .     S
C4250  C7832   1.408   .     S
C4255  C4267   1.385   .     S
C4255  C5060   1.407   .     D
C4255  N4268   1.354   1_545 S
C4256  C4266   1.385   .     S
C4256  H4278   1.082   .     S
C4256  C4267   1.363   1_565 D
C4257  C4265   1.483   .     S
C4258  N4259   1.427   .     S
N4259  C4260   1.295   .     D
C4260  C4261   1.462   .     S
C4260  H4279   1.084   .     S
C4262  C4263   1.468   .     S
C4263  C6079   1.401   .     S
C4263  C6077   1.401   .     D
C4264  N5732   1.429   .     S
C4264  C6078   1.400   .     D
C4264  C6080   1.400   .     S
C4265  C4266   1.407   .     S
C4265  C7508   1.408   .     D
C4266  N4268   1.354   .     D
C4267  H4280   1.082   .     S
C4267  C4256   1.363   1_545 D
N4268  C4255   1.354   1_565 S
C4269  C4277   1.483   .     S
C4270  N4271   1.427   .     S
N4271  C4272   1.295   .     D
C4272  C4273   1.462   .     S
C4272  H4281   1.084   .     S
C4274  C4275   1.468   .     S
C4275  C6939   1.400   .     S
C4275  C6938   1.401   .     D
C4276  N5763   1.430   .     S
C4276  C6937   1.400   .     D
C4276  C6940   1.400   .     S
C4277  C5038   1.407   .     S
C4277  C7829   1.408   .     D
C4282  C4294   1.385   .     S
C4282  C5141   1.407   .     S
C4282  N4295   1.354   1_565 D
C4283  C4293   1.385   .     S
C4283  H4305   1.082   .     S
C4283  C4294   1.363   1_545 D
C4284  C4292   1.483   .     S
C4285  N4286   1.427   .     S
N4286  C4287   1.295   .     D
C4287  C4288   1.462   .     S
C4287  H4306   1.084   .     S
C4289  C4290   1.468   .     S
C4290  C6489   1.401   .     S
C4290  C6487   1.401   .     D
C4291  N5733   1.429   .     S
C4291  C6488   1.400   .     D
C4291  C6490   1.400   .     S
C4292  C4293   1.407   .     D
C4292  C7598   1.408   .     S
C4293  N4295   1.354   .     S
C4294  H4307   1.082   .     S
C4294  C4283   1.363   1_565 D
N4295  C4282   1.354   1_545 D
C4296  C4304   1.483   .     S
C4297  N4298   1.427   .     S
N4298  C4299   1.295   .     D
C4299  C4300   1.462   .     S
C4299  H4308   1.084   .     S
C4301  C4302   1.468   .     S
C4302  C7019   1.400   .     S
C4302  C7018   1.401   .     D
C4303  N5761   1.430   .     S
C4303  C7017   1.400   .     D
C4303  C7020   1.400   .     S
C4304  C5119   1.407   .     D
C4304  C7823   1.408   .     S
C4309  C4321   1.385   .     S
C4309  N4322   1.354   .     D
C4310  C4320   1.385   .     S
C4310  C4321   1.363   .     D
C4310  H4332   1.082   .     S
C4311  C4319   1.483   .     S
C4312  N4313   1.427   .     S
N4313  C4314   1.295   .     D
C4314  C4315   1.462   .     S
C4314  H4333   1.084   .     S
C4316  C4317   1.468   .     S
C4317  C6109   1.401   .     S
C4317  C6107   1.401   .     D
C4318  N5734   1.429   .     S
C4318  C6108   1.400   .     D
C4318  C6110   1.400   .     S
C4319  C4320   1.407   .     D
C4319  C7597   1.408   .     S
C4320  N4322   1.354   .     S
C4321  H4334   1.082   .     S
C4323  C4331   1.483   .     S
C4324  N4325   1.427   .     S
N4325  C4326   1.295   .     D
C4326  C4327   1.462   .     S
C4326  H4335   1.084   .     S
C4328  C4329   1.468   .     S
C4329  C7443   1.400   .     S
C4329  C7442   1.401   .     D
C4330  N5770   1.430   .     S
C4330  C7441   1.400   .     D
C4330  C7444   1.400   .     S
C4331  C7739   1.408   .     S
C4336  C4348   1.385   .     S
C4336  C5006   1.407   .     D
C4336  N4349   1.354   1_655 S
C4337  C4347   1.385   .     S
C4337  H4359   1.082   .     S
C4337  C4348   1.363   1_455 D
C4338  C4346   1.483   .     S
C4339  N4340   1.427   .     S
N4340  C4341   1.295   .     D
C4341  C4342   1.462   .     S
C4341  H4360   1.084   .     S
C4343  C4344   1.468   .     S
C4344  C6429   1.401   .     S
C4344  C6427   1.401   .     D
C4345  N5727   1.429   .     S
C4345  C6428   1.400   .     D
C4345  C6430   1.400   .     S
C4346  C4347   1.407   .     S
C4346  C7528   1.408   .     D
C4347  N4349   1.354   .     D
C4348  H4361   1.082   .     S
C4348  C4337   1.363   1_655 D
N4349  C4336   1.354   1_455 S
C4350  C4358   1.483   .     S
C4351  N4352   1.427   .     S
N4352  C4353   1.295   .     D
C4353  C4354   1.462   .     S
C4353  H4362   1.084   .     S
C4355  C4356   1.468   .     S
C4356  C6923   1.400   .     S
C4356  C6922   1.401   .     D
C4357  N5762   1.430   .     S
C4357  C6921   1.400   .     D
C4357  C6924   1.400   .     S
C4358  C4984   1.407   .     S
C4358  C7805   1.408   .     D
C4363  C4375   1.385   .     S
C4363  C5033   1.407   .     D
C4363  N4376   1.354   1_655 S
C4364  C4374   1.385   .     S
C4364  H4386   1.082   .     S
C4364  C4375   1.363   1_455 D
C4365  C4373   1.483   .     S
C4366  N4367   1.427   .     S
N4367  C4368   1.295   .     D
C4368  C4369   1.462   .     S
C4368  H4387   1.084   .     S
C4370  C4371   1.468   .     S
C4371  C6419   1.401   .     D
C4371  C6417   1.401   .     S
C4372  N5728   1.429   .     S
C4372  C6418   1.400   .     S
C4372  C6420   1.400   .     D
C4373  C4374   1.407   .     S
C4373  C7527   1.408   .     D
C4374  N4376   1.354   .     D
C4375  H4388   1.082   .     S
C4375  C4364   1.363   1_655 D
N4376  C4363   1.354   1_455 S
C4377  C4385   1.483   .     S
C4378  N4379   1.427   .     S
N4379  C4380   1.295   .     D
C4380  C4381   1.462   .     S
C4380  H4389   1.084   .     S
C4382  C4383   1.468   .     S
C4383  C6915   1.400   .     S
C4383  C6914   1.401   .     D
C4384  N5772   1.430   .     S
C4384  C6913   1.400   .     D
C4384  C6916   1.400   .     S
C4385  C5011   1.407   .     S
C4385  C7808   1.408   .     D
C4390  C4402   1.385   .     S
C4390  N4403   1.354   .     S
C4390  C4925   1.407   .     D
C4391  C4401   1.385   .     S
C4391  C4402   1.363   .     D
C4391  H4413   1.082   .     S
C4392  C4400   1.483   .     S
C4393  N4394   1.427   .     S
N4394  C4395   1.295   .     D
C4395  C4396   1.462   .     S
C4395  H4414   1.084   .     S
C4397  C4398   1.468   .     S
C4398  C6269   1.401   .     D
C4398  C6267   1.401   .     S
C4399  N5729   1.429   .     S
C4399  C6268   1.400   .     S
C4399  C6270   1.400   .     D
C4400  C4401   1.407   .     S
C4400  C7531   1.408   .     D
C4401  N4403   1.354   .     D
C4402  H4415   1.082   .     S
C4404  C4412   1.483   .     S
C4405  N4406   1.427   .     S
N4406  C4407   1.295   .     D
C4407  C4408   1.462   .     S
C4407  H4416   1.084   .     S
C4409  C4410   1.468   .     S
C4410  C6843   1.400   .     S
C4410  C6842   1.401   .     D
C4411  N5763   1.430   .     S
C4411  C6841   1.400   .     D
C4411  C6844   1.400   .     S
C4412  C4903   1.407   .     S
C4412  C7814   1.408   .     D
C4417  C4429   1.385   .     S
C4417  N4430   1.354   .     D
C4417  C4547   1.407   .     S
C4418  C4428   1.385   .     S
C4418  C4429   1.363   .     D
C4418  H4440   1.082   .     S
C4419  C4427   1.483   .     S
C4420  N4421   1.427   .     S
N4421  C4422   1.295   .     D
C4422  C4423   1.462   .     S
C4422  H4441   1.084   .     S
C4424  C4425   1.468   .     S
C4425  C6409   1.401   .     S
C4425  C6407   1.401   .     D
C4426  N5730   1.429   .     S
C4426  C6408   1.400   .     D
C4426  C6410   1.400   .     S
C4427  C4428   1.407   .     D
C4427  C7530   1.408   .     S
C4428  N4430   1.354   .     S
C4429  H4442   1.082   .     S
C4431  C4439   1.483   .     S
C4432  N4433   1.427   .     S
N4433  C4434   1.295   .     D
C4434  C4435   1.462   .     S
C4434  H4443   1.084   .     S
C4436  C4437   1.468   .     S
C4437  C6835   1.400   .     S
C4437  C6834   1.401   .     D
C4438  N5764   1.430   .     S
C4438  C6833   1.400   .     D
C4438  C6836   1.400   .     S
C4439  C4525   1.407   .     D
C4439  C7766   1.408   .     S
C4444  C4456   1.385   .     S
C4444  C4898   1.407   .     S
C4444  N4457   1.354   1_455 D
C4445  C4455   1.385   .     S
C4445  H4467   1.082   .     S
C4445  C4456   1.363   1_655 D
C4446  C4454   1.483   .     S
C4447  N4448   1.427   .     S
N4448  C4449   1.295   .     D
C4449  C4450   1.462   .     S
C4449  H4468   1.084   .     S
C4451  C4452   1.468   .     S
C4452  C6259   1.401   .     D
C4452  C6257   1.401   .     S
C4453  N5731   1.429   .     S
C4453  C6258   1.400   .     S
C4453  C6260   1.400   .     D
C4454  C4455   1.407   .     D
C4454  C7533   1.408   .     S
C4455  N4457   1.354   .     S
C4456  H4469   1.082   .     S
C4456  C4445   1.363   1_455 D
N4457  C4444   1.354   1_655 D
C4458  C4466   1.483   .     S
C4459  N4460   1.427   .     S
N4460  C4461   1.295   .     D
C4461  C4462   1.462   .     S
C4461  H4470   1.084   .     S
C4463  C4464   1.468   .     S
C4464  C6859   1.400   .     S
C4464  C6858   1.401   .     D
C4465  N5767   1.430   .     S
C4465  C6857   1.400   .     D
C4465  C6860   1.400   .     S
C4466  C4876   1.407   .     D
C4466  C7811   1.408   .     S
C4471  C4483   1.385   .     S
C4471  C4520   1.407   .     D
C4471  N4484   1.354   1_455 S
C4472  C4482   1.385   .     S
C4472  H4494   1.082   .     S
C4472  C4483   1.363   1_655 D
C4473  C4481   1.483   .     S
C4474  N4475   1.427   .     S
N4475  C4476   1.295   .     D
C4476  C4477   1.462   .     S
C4476  H4495   1.084   .     S
C4478  C4479   1.468   .     S
C4479  C6399   1.401   .     S
C4479  C6397   1.401   .     D
C4480  N5732   1.429   .     S
C4480  C6398   1.400   .     D
C4480  C6400   1.400   .     S
C4481  C4482   1.407   .     S
C4481  C7532   1.408   .     D
C4482  N4484   1.354   .     D
C4483  H4496   1.082   .     S
C4483  C4472   1.363   1_455 D
N4484  C4471   1.354   1_655 S
C4485  C4493   1.483   .     S
C4486  N4487   1.427   .     S
N4487  C4488   1.295   .     D
C4488  C4489   1.462   .     S
C4488  H4497   1.084   .     S
C4490  C4491   1.468   .     S
C4491  C6851   1.400   .     S
C4491  C6850   1.401   .     D
C4492  N5760   1.430   .     S
C4492  C6849   1.400   .     D
C4492  C6852   1.400   .     S
C4493  C4498   1.407   .     S
C4493  C7763   1.408   .     D
C4498  C4510   1.385   .     S
C4498  N4511   1.354   1_455 D
C4499  C4509   1.385   .     S
C4499  H4521   1.082   .     S
C4499  C4510   1.363   1_655 D
C4500  C4508   1.483   .     S
C4501  N4502   1.427   .     S
N4502  C4503   1.295   .     D
C4503  C4504   1.462   .     S
C4503  H4522   1.084   .     S
C4505  C4506   1.468   .     S
C4506  C6199   1.401   .     D
C4506  C6197   1.401   .     S
C4507  N5725   1.429   .     S
C4507  C6198   1.400   .     S
C4507  C6200   1.400   .     D
C4508  C4509   1.407   .     D
C4508  C7589   1.408   .     S
C4509  N4511   1.354   .     S
C4510  H4523   1.082   .     S
C4510  C4499   1.363   1_455 D
N4511  C4498   1.354   1_655 D
C4512  C4520   1.483   .     S
C4513  N4514   1.427   .     S
N4514  C4515   1.295   .     D
C4515  C4516   1.462   .     S
C4515  H4524   1.084   .     S
C4517  C4518   1.468   .     S
C4518  C7499   1.400   .     S
C4518  C7498   1.401   .     D
C4519  N5765   1.430   .     S
C4519  C7497   1.400   .     D
C4519  C7500   1.400   .     S
C4520  C7760   1.408   .     S
C4525  C4537   1.385   .     S
C4525  N4538   1.354   .     S
C4526  C4536   1.385   .     S
C4526  C4537   1.363   .     D
C4526  H4548   1.082   .     S
C4527  C4535   1.483   .     S
C4528  N4529   1.427   .     S
N4529  C4530   1.295   .     D
C4530  C4531   1.462   .     S
C4530  H4549   1.084   .     S
C4532  C4533   1.468   .     S
C4533  C6179   1.401   .     S
C4533  C6177   1.401   .     D
C4534  N5726   1.429   .     S
C4534  C6178   1.400   .     D
C4534  C6180   1.400   .     S
C4535  C4536   1.407   .     S
C4535  C7538   1.408   .     D
C4536  N4538   1.354   .     D
C4537  H4550   1.082   .     S
C4539  C4547   1.483   .     S
C4540  N4541   1.427   .     S
N4541  C4542   1.295   .     D
C4542  C4543   1.462   .     S
C4542  H4551   1.084   .     S
C4544  C4545   1.468   .     S
C4545  C6883   1.400   .     S
C4545  C6882   1.401   .     D
C4546  N5768   1.430   .     S
C4546  C6881   1.400   .     D
C4546  C6884   1.400   .     S
C4547  C7754   1.408   .     D
C4552  C4564   1.385   .     S
C4552  N4565   1.354   .     S
C4552  C4979   1.407   .     D
C4553  C4563   1.385   .     S
C4553  C4564   1.363   .     D
C4553  H4575   1.082   .     S
C4554  C4562   1.483   .     S
C4555  N4556   1.427   .     S
N4556  C4557   1.295   .     D
C4557  C4558   1.462   .     S
C4557  H4576   1.084   .     S
C4559  C4560   1.468   .     S
C4560  C6379   1.401   .     S
C4560  C6377   1.401   .     D
C4561  N5733   1.429   .     S
C4561  C6378   1.400   .     D
C4561  C6380   1.400   .     S
C4562  C4563   1.407   .     S
C4562  C7535   1.408   .     D
C4563  N4565   1.354   .     D
C4564  H4577   1.082   .     S
C4566  C4574   1.483   .     S
C4567  N4568   1.427   .     S
N4568  C4569   1.295   .     D
C4569  C4570   1.462   .     S
C4569  H4578   1.084   .     S
C4571  C4572   1.468   .     S
C4572  C6899   1.400   .     S
C4572  C6898   1.401   .     D
C4573  N5766   1.430   .     S
C4573  C6897   1.400   .     D
C4573  C6900   1.400   .     S
C4574  C4957   1.407   .     S
C4574  C7802   1.408   .     D
C4579  C4591   1.385   .     S
C4579  N4592   1.354   .     D
C4579  C4952   1.407   .     S
C4580  C4590   1.385   .     S
C4580  C4591   1.363   .     D
C4580  H4602   1.082   .     S
C4581  C4589   1.483   .     S
C4582  N4583   1.427   .     S
N4583  C4584   1.295   .     D
C4584  C4585   1.462   .     S
C4584  H4603   1.084   .     S
C4586  C4587   1.468   .     S
C4587  C6389   1.401   .     D
C4587  C6387   1.401   .     S
C4588  N5734   1.429   .     S
C4588  C6388   1.400   .     S
C4588  C6390   1.400   .     D
C4589  C4590   1.407   .     D
C4589  C7534   1.408   .     S
C4590  N4592   1.354   .     S
C4591  H4604   1.082   .     S
C4593  C4601   1.483   .     S
C4594  N4595   1.427   .     S
N4595  C4596   1.295   .     D
C4596  C4597   1.462   .     S
C4596  H4605   1.084   .     S
C4598  C4599   1.468   .     S
C4599  C6891   1.400   .     S
C4599  C6890   1.401   .     D
C4600  N5773   1.430   .     S
C4600  C6889   1.400   .     D
C4600  C6892   1.400   .     S
C4601  C4930   1.407   .     D
C4601  C7799   1.408   .     S
C4606  C4618   1.385   .     S
C4606  N4619   1.354   .     S
C4606  C5222   1.407   .     D
C4607  C4617   1.385   .     S
C4607  C4618   1.363   .     D
C4607  H4629   1.082   .     S
C4608  C4616   1.483   .     S
C4609  N4610   1.427   .     S
N4610  C4611   1.295   .     D
C4611  C4612   1.462   .     S
C4611  H4630   1.084   .     S
C4613  C4614   1.468   .     S
C4614  C6349   1.401   .     D
C4614  C6347   1.401   .     S
C4615  N5729   1.429   .     S
C4615  C6348   1.400   .     S
C4615  C6350   1.400   .     D
C4616  C4617   1.407   .     S
C4616  C7520   1.408   .     D
C4617  N4619   1.354   .     D
C4618  H4631   1.082   .     S
C4620  C4628   1.483   .     S
C4621  N4622   1.427   .     S
N4622  C4623   1.295   .     D
C4623  C4624   1.462   .     S
C4623  H4632   1.084   .     S
C4625  C4626   1.468   .     S
C4626  C6763   1.400   .     S
C4626  C6762   1.401   .     D
C4627  N5767   1.430   .     S
C4627  C6761   1.400   .     D
C4627  C6764   1.400   .     S
C4628  C5200   1.407   .     S
C4628  C7796   1.408   .     D
C4633  C4645   1.385   .     S
C4633  C5195   1.407   .     D
C4633  N4646   1.354   1_554 S
C4634  C4644   1.385   .     S
C4634  H4656   1.082   .     S
C4634  C4645   1.363   1_556 D
C4635  C4643   1.483   .     S
C4636  N4637   1.427   .     S
N4637  C4638   1.295   .     D
C4638  C4639   1.462   .     S
C4638  H4657   1.084   .     S
C4640  C4641   1.468   .     S
C4641  C6339   1.401   .     S
C4641  C6337   1.401   .     D
C4642  N5730   1.429   .     S
C4642  C6338   1.400   .     D
C4642  C6340   1.400   .     S
C4643  C4644   1.407   .     S
C4643  C7519   1.408   .     D
C4644  N4646   1.354   .     D
C4645  H4658   1.082   .     S
C4645  C4634   1.363   1_554 D
N4646  C4633   1.354   1_556 S
C4647  C4655   1.483   .     S
C4648  N4649   1.427   .     S
N4649  C4650   1.295   .     D
C4650  C4651   1.462   .     S
C4650  H4659   1.084   .     S
C4652  C4653   1.468   .     S
C4653  C6755   1.400   .     S
C4653  C6754   1.401   .     D
C4654  N5760   1.430   .     S
C4654  C6753   1.400   .     D
C4654  C6756   1.400   .     S
C4655  C5173   1.407   .     S
C4655  C7793   1.408   .     D
C4660  C4672   1.385   .     S
C4660  C4844   1.407   .     S
C4660  N4673   1.354   1_554 D
C4661  C4671   1.385   .     S
C4661  H4683   1.082   .     S
C4661  C4672   1.363   1_556 D
C4662  C4670   1.483   .     S
C4663  N4664   1.427   .     S
N4664  C4665   1.295   .     D
C4665  C4666   1.462   .     S
C4665  H4684   1.084   .     S
C4667  C4668   1.468   .     S
C4668  C6519   1.401   .     D
C4668  C6517   1.401   .     S
C4669  N5731   1.429   .     S
C4669  C6518   1.400   .     S
C4669  C6520   1.400   .     D
C4670  C4671   1.407   .     D
C4670  C7518   1.408   .     S
C4671  N4673   1.354   .     S
C4672  H4685   1.082   .     S
C4672  C4661   1.363   1_554 D
N4673  C4660   1.354   1_556 D
C4674  C4682   1.483   .     S
C4675  N4676   1.427   .     S
N4676  C4677   1.295   .     D
C4677  C4678   1.462   .     S
C4677  H4686   1.084   .     S
C4679  C4680   1.468   .     S
C4680  C6747   1.400   .     S
C4680  C6746   1.401   .     D
C4681  N5763   1.430   .     S
C4681  C6745   1.400   .     D
C4681  C6748   1.400   .     S
C4682  C4822   1.407   .     D
C4682  C7715   1.408   .     S
C4687  C4699   1.385   .     S
C4687  N4700   1.354   .     S
C4687  C4871   1.407   .     D
C4688  C4698   1.385   .     S
C4688  C4699   1.363   .     D
C4688  H4710   1.082   .     S
C4689  C4697   1.483   .     S
C4690  N4691   1.427   .     S
N4691  C4692   1.295   .     D
C4692  C4693   1.462   .     S
C4692  H4711   1.084   .     S
C4694  C4695   1.468   .     S
C4695  C6529   1.401   .     S
C4695  C6527   1.401   .     D
C4696  N5732   1.429   .     S
C4696  C6528   1.400   .     D
C4696  C6530   1.400   .     S
C4697  C4698   1.407   .     S
C4697  C7517   1.408   .     D
C4698  N4700   1.354   .     D
C4699  H4712   1.082   .     S
C4701  C4709   1.483   .     S
C4702  N4703   1.427   .     S
N4703  C4704   1.295   .     D
C4704  C4705   1.462   .     S
C4704  H4713   1.084   .     S
C4706  C4707   1.468   .     S
C4707  C6739   1.400   .     S
C4707  C6738   1.401   .     D
C4708  N5764   1.430   .     S
C4708  C6737   1.400   .     D
C4708  C6740   1.400   .     S
C4709  C4849   1.407   .     S
C4709  C7718   1.408   .     D
C4714  C4726   1.385   .     S
C4714  C5303   1.407   .     D
C4714  N4727   1.354   1_556 S
C4715  C4725   1.385   .     S
C4715  H4737   1.082   .     S
C4715  C4726   1.363   1_554 D
C4716  C4724   1.483   .     S
C4717  N4718   1.427   .     S
N4718  C4719   1.295   .     D
C4719  C4720   1.462   .     S
C4719  H4738   1.084   .     S
C4721  C4722   1.468   .     S
C4722  C6369   1.401   .     S
C4722  C6367   1.401   .     D
C4723  N5725   1.429   .     S
C4723  C6368   1.400   .     D
C4723  C6370   1.400   .     S
C4724  C4725   1.407   .     S
C4724  C7592   1.408   .     D
C4725  N4727   1.354   .     D
C4726  H4739   1.082   .     S
C4726  C4715   1.363   1_556 D
N4727  C4714   1.354   1_554 S
C4728  C4736   1.483   .     S
C4729  N4730   1.427   .     S
N4730  C4731   1.295   .     D
C4731  C4732   1.462   .     S
C4731  H4740   1.084   .     S
C4733  C4734   1.468   .     S
C4734  C6827   1.400   .     S
C4734  C6826   1.401   .     D
C4735  N5768   1.430   .     S
C4735  C6825   1.400   .     D
C4735  C6828   1.400   .     S
C4736  C5281   1.407   .     S
C4736  C7787   1.408   .     D
C4741  C4753   1.385   .     S
C4741  N4754   1.354   .     D
C4741  C4790   1.407   .     S
C4742  C4752   1.385   .     S
C4742  C4753   1.363   .     D
C4742  H4764   1.082   .     S
C4743  C4751   1.483   .     S
C4744  N4745   1.427   .     S
N4745  C4746   1.295   .     D
C4746  C4747   1.462   .     S
C4746  H4765   1.084   .     S
C4748  C4749   1.468   .     S
C4749  C6549   1.401   .     D
C4749  C6547   1.401   .     S
C4750  N5726   1.429   .     S
C4750  C6548   1.400   .     S
C4750  C6550   1.400   .     D
C4751  C4752   1.407   .     D
C4751  C7591   1.408   .     S
C4752  N4754   1.354   .     S
C4753  H4766   1.082   .     S
C4755  C4763   1.483   .     S
C4756  N4757   1.427   .     S
N4757  C4758   1.295   .     D
C4758  C4759   1.462   .     S
C4758  H4767   1.084   .     S
C4760  C4761   1.468   .     S
C4761  C7435   1.400   .     S
C4761  C7434   1.401   .     D
C4762  N5765   1.430   .     S
C4762  C7433   1.400   .     D
C4762  C7436   1.400   .     S
C4763  C4768   1.407   .     D
C4763  C7697   1.408   .     S
C4768  C4780   1.385   .     S
C4768  N4781   1.354   .     S
C4769  C4779   1.385   .     S
C4769  C4780   1.363   .     D
C4769  H4791   1.082   .     S
C4770  C4778   1.483   .     S
C4771  N4772   1.427   .     S
N4772  C4773   1.295   .     D
C4773  C4774   1.462   .     S
C4773  H4792   1.084   .     S
C4775  C4776   1.468   .     S
C4776  C6499   1.401   .     S
C4776  C6497   1.401   .     D
C4777  N5727   1.429   .     S
C4777  C6498   1.400   .     D
C4777  C6500   1.400   .     S
C4778  C4779   1.407   .     S
C4778  C7523   1.408   .     D
C4779  N4781   1.354   .     D
C4780  H4793   1.082   .     S
C4782  C4790   1.483   .     S
C4783  N4784   1.427   .     S
N4784  C4785   1.295   .     D
C4785  C4786   1.462   .     S
C4785  H4794   1.084   .     S
C4787  C4788   1.468   .     S
C4788  C7427   1.400   .     D
C4788  C7426   1.401   .     S
C4789  N5769   1.430   .     S
C4789  C7425   1.400   .     S
C4789  C7428   1.400   .     D
C4790  C7694   1.408   .     D
C4795  C4807   1.385   .     S
C4795  C5276   1.407   .     D
C4795  N4808   1.354   1_556 S
C4796  C4806   1.385   .     S
C4796  H4818   1.082   .     S
C4796  C4807   1.363   1_554 D
C4797  C4805   1.483   .     S
C4798  N4799   1.427   .     S
N4799  C4800   1.295   .     D
C4800  C4801   1.462   .     S
C4800  H4819   1.084   .     S
C4802  C4803   1.468   .     S
C4803  C6279   1.401   .     D
C4803  C6277   1.401   .     S
C4804  N5728   1.429   .     S
C4804  C6278   1.400   .     S
C4804  C6280   1.400   .     D
C4805  C4806   1.407   .     S
C4805  C7594   1.408   .     D
C4806  N4808   1.354   .     D
C4807  H4820   1.082   .     S
C4807  C4796   1.363   1_556 D
N4808  C4795   1.354   1_554 S
C4809  C4817   1.483   .     S
C4810  N4811   1.427   .     S
N4811  C4812   1.295   .     D
C4812  C4813   1.462   .     S
C4812  H4821   1.084   .     S
C4814  C4815   1.468   .     S
C4815  C7419   1.400   .     S
C4815  C7418   1.401   .     D
C4816  N5759   1.430   .     S
C4816  C7417   1.400   .     D
C4816  C7420   1.400   .     S
C4817  C5254   1.407   .     S
C4817  C7784   1.408   .     D
C4822  C4834   1.385   .     S
C4822  N4835   1.354   1_554 S
C4823  C4833   1.385   .     S
C4823  H4845   1.082   .     S
C4823  C4834   1.363   1_556 D
C4824  C4832   1.483   .     S
C4825  N4826   1.427   .     S
N4826  C4827   1.295   .     D
C4827  C4828   1.462   .     S
C4827  H4846   1.084   .     S
C4829  C4830   1.468   .     S
C4830  C6309   1.401   .     S
C4830  C6307   1.401   .     D
C4831  N5733   1.429   .     S
C4831  C6308   1.400   .     D
C4831  C6310   1.400   .     S
C4832  C4833   1.407   .     S
C4832  C7593   1.408   .     D
C4833  N4835   1.354   .     D
C4834  H4847   1.082   .     S
C4834  C4823   1.363   1_554 D
N4835  C4822   1.354   1_556 S
C4836  C4844   1.483   .     S
C4837  N4838   1.427   .     S
N4838  C4839   1.295   .     D
C4839  C4840   1.462   .     S
C4839  H4848   1.084   .     S
C4841  C4842   1.468   .     S
C4842  C7411   1.400   .     S
C4842  C7410   1.401   .     D
C4843  N5770   1.430   .     S
C4843  C7409   1.400   .     D
C4843  C7412   1.400   .     S
C4844  C7709   1.408   .     D
C4849  C4861   1.385   .     S
C4849  N4862   1.354   .     D
C4850  C4860   1.385   .     S
C4850  C4861   1.363   .     D
C4850  H4872   1.082   .     S
C4851  C4859   1.483   .     S
C4852  N4853   1.427   .     S
N4853  C4854   1.295   .     D
C4854  C4855   1.462   .     S
C4854  H4873   1.084   .     S
C4856  C4857   1.468   .     S
C4857  C6299   1.401   .     S
C4857  C6297   1.401   .     D
C4858  N5734   1.429   .     S
C4858  C6298   1.400   .     D
C4858  C6300   1.400   .     S
C4859  C4860   1.407   .     D
C4859  C7526   1.408   .     S
C4860  N4862   1.354   .     S
C4861  H4874   1.082   .     S
C4863  C4871   1.483   .     S
C4864  N4865   1.427   .     S
N4865  C4866   1.295   .     D
C4866  C4867   1.462   .     S
C4866  H4875   1.084   .     S
C4868  C4869   1.468   .     S
C4869  C6787   1.400   .     S
C4869  C6786   1.401   .     D
C4870  N5761   1.430   .     S
C4870  C6785   1.400   .     D
C4870  C6788   1.400   .     S
C4871  C7712   1.408   .     S
C4876  C4888   1.385   .     S
C4876  N4889   1.354   1_455 S
C4877  C4887   1.385   .     S
C4877  H4899   1.082   .     S
C4877  C4888   1.363   1_655 D
C4878  C4886   1.483   .     S
C4879  N4880   1.427   .     S
N4880  C4881   1.295   .     D
C4881  C4882   1.462   .     S
C4881  H4900   1.084   .     S
C4883  C4884   1.468   .     S
C4884  C6209   1.401   .     S
C4884  C6207   1.401   .     D
C4885  N5736   1.429   .     S
C4885  C6208   1.400   .     D
C4885  C6210   1.400   .     S
C4886  C4887   1.407   .     S
C4886  C7536   1.408   .     D
C4887  N4889   1.354   .     D
C4888  H4901   1.082   .     S
C4888  C4877   1.363   1_455 D
N4889  C4876   1.354   1_655 S
C4890  C4898   1.483   .     S
C4891  N4892   1.427   .     S
N4892  C4893   1.295   .     D
C4893  C4894   1.462   .     S
C4893  H4902   1.084   .     S
C4895  C4896   1.468   .     S
C4896  C6867   1.400   .     S
C4896  C6866   1.401   .     D
C4897  N5771   1.430   .     S
C4897  C6865   1.400   .     D
C4897  C6868   1.400   .     S
C4898  C7757   1.408   .     D
C4903  C4915   1.385   .     S
C4903  N4916   1.354   .     D
C4904  C4914   1.385   .     S
C4904  C4915   1.363   .     D
C4904  H4926   1.082   .     S
C4905  C4913   1.483   .     S
C4906  N4907   1.427   .     S
N4907  C4908   1.295   .     D
C4908  C4909   1.462   .     S
C4908  H4927   1.084   .     S
C4910  C4911   1.468   .     S
C4911  C6189   1.401   .     S
C4911  C6187   1.401   .     D
C4912  N5737   1.429   .     S
C4912  C6188   1.400   .     D
C4912  C6190   1.400   .     S
C4913  C4914   1.407   .     D
C4913  C7537   1.408   .     S
C4914  N4916   1.354   .     S
C4915  H4928   1.082   .     S
C4917  C4925   1.483   .     S
C4918  N4919   1.427   .     S
N4919  C4920   1.295   .     D
C4920  C4921   1.462   .     S
C4920  H4929   1.084   .     S
C4922  C4923   1.468   .     S
C4923  C6875   1.400   .     S
C4923  C6874   1.401   .     D
C4924  N5758   1.430   .     S
C4924  C6873   1.400   .     D
C4924  C6876   1.400   .     S
C4925  C7751   1.408   .     S
C4930  C4942   1.385   .     S
C4930  N4943   1.354   .     S
C4931  C4941   1.385   .     S
C4931  C4942   1.363   .     D
C4931  H4953   1.082   .     S
C4932  C4940   1.483   .     S
C4933  N4934   1.427   .     S
N4934  C4935   1.295   .     D
C4935  C4936   1.462   .     S
C4935  H4954   1.084   .     S
C4937  C4938   1.468   .     S
C4938  C6239   1.401   .     S
C4938  C6237   1.401   .     D
C4939  N5738   1.429   .     S
C4939  C6238   1.400   .     D
C4939  C6240   1.400   .     S
C4940  C4941   1.407   .     S
C4940  C7529   1.408   .     D
C4941  N4943   1.354   .     D
C4942  H4955   1.082   .     S
C4944  C4952   1.483   .     S
C4945  N4946   1.427   .     S
N4946  C4947   1.295   .     D
C4947  C4948   1.462   .     S
C4947  H4956   1.084   .     S
C4949  C4950   1.468   .     S
C4950  C7491   1.400   .     D
C4950  C7490   1.401   .     S
C4951  N5769   1.430   .     S
C4951  C7489   1.400   .     S
C4951  C7492   1.400   .     D
C4952  C7778   1.408   .     D
C4957  C4969   1.385   .     S
C4957  N4970   1.354   .     D
C4958  C4968   1.385   .     S
C4958  C4969   1.363   .     D
C4958  H4980   1.082   .     S
C4959  C4967   1.483   .     S
C4960  N4961   1.427   .     S
N4961  C4962   1.295   .     D
C4962  C4963   1.462   .     S
C4962  H4981   1.084   .     S
C4964  C4965   1.468   .     S
C4965  C6249   1.401   .     D
C4965  C6247   1.401   .     S
C4966  N5735   1.429   .     S
C4966  C6248   1.400   .     S
C4966  C6250   1.400   .     D
C4967  C4968   1.407   .     D
C4967  C7590   1.408   .     S
C4968  N4970   1.354   .     S
C4969  H4982   1.082   .     S
C4971  C4979   1.483   .     S
C4972  N4973   1.427   .     S
N4973  C4974   1.295   .     D
C4974  C4975   1.462   .     S
C4974  H4983   1.084   .     S
C4976  C4977   1.468   .     S
C4977  C7483   1.400   .     S
C4977  C7482   1.401   .     D
C4978  N5759   1.430   .     S
C4978  C7481   1.400   .     D
C4978  C7484   1.400   .     S
C4979  C7775   1.408   .     S
C4984  C4996   1.385   .     S
C4984  N4997   1.354   1_655 D
C4985  C4995   1.385   .     S
C4985  H5007   1.082   .     S
C4985  C4996   1.363   1_455 D
C4986  C4994   1.483   .     S
C4987  N4988   1.427   .     S
N4988  C4989   1.295   .     D
C4989  C4990   1.462   .     S
C4989  H5008   1.084   .     S
C4991  C4992   1.468   .     S
C4992  C6229   1.401   .     S
C4992  C6227   1.401   .     D
C4993  N5739   1.429   .     S
C4993  C6228   1.400   .     D
C4993  C6230   1.400   .     S
C4994  C4995   1.407   .     D
C4994  C7588   1.408   .     S
C4995  N4997   1.354   .     S
C4996  H5009   1.082   .     S
C4996  C4985   1.363   1_655 D
N4997  C4984   1.354   1_455 D
C4998  C5006   1.483   .     S
C4999  N5000   1.427   .     S
N5000  C5001   1.295   .     D
C5001  C5002   1.462   .     S
C5001  H5010   1.084   .     S
C5003  C5004   1.468   .     S
C5004  C6907   1.400   .     S
C5004  C6906   1.401   .     D
C5005  N5761   1.430   .     S
C5005  C6905   1.400   .     D
C5005  C6908   1.400   .     S
C5006  C7769   1.408   .     S
C5011  C5023   1.385   .     S
C5011  N5024   1.354   1_655 D
C5012  C5022   1.385   .     S
C5012  H5034   1.082   .     S
C5012  C5023   1.363   1_455 D
C5013  C5021   1.483   .     S
C5014  N5015   1.427   .     S
N5015  C5016   1.295   .     D
C5016  C5017   1.462   .     S
C5016  H5035   1.084   .     S
C5018  C5019   1.468   .     S
C5019  C6219   1.401   .     S
C5019  C6217   1.401   .     D
C5020  N5740   1.429   .     S
C5020  C6218   1.400   .     D
C5020  C6220   1.400   .     S
C5021  C5022   1.407   .     D
C5021  C7587   1.408   .     S
C5022  N5024   1.354   .     S
C5023  H5036   1.082   .     S
C5023  C5012   1.363   1_655 D
N5024  C5011   1.354   1_455 D
C5025  C5033   1.483   .     S
C5026  N5027   1.427   .     S
N5027  C5028   1.295   .     D
C5028  C5029   1.462   .     S
C5028  H5037   1.084   .     S
C5030  C5031   1.468   .     S
C5031  C7475   1.400   .     S
C5031  C7474   1.401   .     D
C5032  N5770   1.430   .     S
C5032  C7473   1.400   .     D
C5032  C7476   1.400   .     S
C5033  C7772   1.408   .     S
C5038  C5050   1.385   .     S
C5038  N5051   1.354   1_545 D
C5039  C5049   1.385   .     S
C5039  H5061   1.082   .     S
C5039  C5050   1.363   1_565 D
C5040  C5048   1.483   .     S
C5041  N5042   1.427   .     S
N5042  C5043   1.295   .     D
C5043  C5044   1.462   .     S
C5043  H5062   1.084   .     S
C5045  C5046   1.468   .     S
C5046  C6149   1.401   .     S
C5046  C6147   1.401   .     D
C5047  N5738   1.429   .     S
C5047  C6148   1.400   .     D
C5047  C6150   1.400   .     S
C5048  C5049   1.407   .     D
C5048  C7513   1.408   .     S
C5049  N5051   1.354   .     S
C5050  H5063   1.082   .     S
C5050  C5039   1.363   1_545 D
N5051  C5038   1.354   1_565 D
C5052  C5060   1.483   .     S
C5053  N5054   1.427   .     S
N5054  C5055   1.295   .     D
C5055  C5056   1.462   .     S
C5055  H5064   1.084   .     S
C5057  C5058   1.468   .     S
C5058  C6963   1.400   .     S
C5058  C6962   1.401   .     D
C5059  N5772   1.430   .     S
C5059  C6961   1.400   .     D
C5059  C6964   1.400   .     S
C5060  C7736   1.408   .     S
C5065  C5077   1.385   .     S
C5065  N5078   1.354   .     D
C5066  C5076   1.385   .     S
C5066  C5077   1.363   .     D
C5066  H5088   1.082   .     S
C5067  C5075   1.483   .     S
C5068  N5069   1.427   .     S
N5069  C5070   1.295   .     D
C5070  C5071   1.462   .     S
C5070  H5089   1.084   .     S
C5072  C5073   1.468   .     S
C5073  C6099   1.401   .     S
C5073  C6097   1.401   .     D
C5074  N5739   1.429   .     S
C5074  C6098   1.400   .     D
C5074  C6100   1.400   .     S
C5075  C5076   1.407   .     D
C5075  C7506   1.408   .     S
C5076  N5078   1.354   .     S
C5077  H5090   1.082   .     S
C5079  C5087   1.483   .     S
C5080  N5081   1.427   .     S
N5081  C5082   1.295   .     D
C5082  C5083   1.462   .     S
C5082  H5091   1.084   .     S
C5084  C5085   1.468   .     S
C5085  C7011   1.400   .     S
C5085  C7010   1.401   .     D
C5086  N5766   1.430   .     S
C5086  C7009   1.400   .     D
C5086  C7012   1.400   .     S
C5087  C7742   1.408   .     S
C5092  C5104   1.385   .     S
C5092  C5168   1.407   .     D
C5092  N5105   1.354   1_565 S
C5093  C5103   1.385   .     S
C5093  H5115   1.082   .     S
C5093  C5104   1.363   1_545 D
C5094  C5102   1.483   .     S
C5095  N5096   1.427   .     S
N5096  C5097   1.295   .     D
C5097  C5098   1.462   .     S
C5097  H5116   1.084   .     S
C5099  C5100   1.468   .     S
C5100  C6479   1.401   .     S
C5100  C6477   1.401   .     D
C5101  N5740   1.429   .     S
C5101  C6478   1.400   .     D
C5101  C6480   1.400   .     S
C5102  C5103   1.407   .     S
C5102  C7505   1.408   .     D
C5103  N5105   1.354   .     D
C5104  H5117   1.082   .     S
C5104  C5093   1.363   1_565 D
N5105  C5092   1.354   1_545 S
C5106  C5114   1.483   .     S
C5107  N5108   1.427   .     S
N5108  C5109   1.295   .     D
C5109  C5110   1.462   .     S
C5109  H5118   1.084   .     S
C5111  C5112   1.468   .     S
C5112  C7003   1.400   .     D
C5112  C7002   1.401   .     S
C5113  N5773   1.430   .     S
C5113  C7001   1.400   .     S
C5113  C7004   1.400   .     D
C5114  C5146   1.407   .     S
C5114  C7826   1.408   .     D
C5119  C5131   1.385   .     S
C5119  N5132   1.354   1_565 S
C5120  C5130   1.385   .     S
C5120  H5142   1.082   .     S
C5120  C5131   1.363   1_545 D
C5121  C5129   1.483   .     S
C5122  N5123   1.427   .     S
N5123  C5124   1.295   .     D
C5124  C5125   1.462   .     S
C5124  H5143   1.084   .     S
C5126  C5127   1.468   .     S
C5127  C6449   1.401   .     S
C5127  C6447   1.401   .     D
C5128  N5736   1.429   .     S
C5128  C6448   1.400   .     D
C5128  C6450   1.400   .     S
C5129  C5130   1.407   .     S
C5129  C7600   1.408   .     D
C5130  N5132   1.354   .     D
C5131  H5144   1.082   .     S
C5131  C5120   1.363   1_565 D
N5132  C5119   1.354   1_545 S
C5133  C5141   1.483   .     S
C5134  N5135   1.427   .     S
N5135  C5136   1.295   .     D
C5136  C5137   1.462   .     S
C5136  H5145   1.084   .     S
C5138  C5139   1.468   .     S
C5139  C6995   1.400   .     S
C5139  C6994   1.401   .     D
C5140  N5768   1.430   .     S
C5140  C6993   1.400   .     D
C5140  C6996   1.400   .     S
C5141  C7745   1.408   .     D
C5146  C5158   1.385   .     S
C5146  N5159   1.354   1_565 D
C5147  C5157   1.385   .     S
C5147  H5169   1.082   .     S
C5147  C5158   1.363   1_545 D
C5148  C5156   1.483   .     S
C5149  N5150   1.427   .     S
N5150  C5151   1.295   .     D
C5151  C5152   1.462   .     S
C5151  H5170   1.084   .     S
C5153  C5154   1.468   .     S
C5154  C6119   1.401   .     S
C5154  C6117   1.401   .     D
C5155  N5737   1.429   .     S
C5155  C6118   1.400   .     D
C5155  C6120   1.400   .     S
C5156  C5157   1.407   .     D
C5156  C7599   1.408   .     S
C5157  N5159   1.354   .     S
C5158  H5171   1.082   .     S
C5158  C5147   1.363   1_565 D
N5159  C5146   1.354   1_545 D
C5160  C5168   1.483   .     S
C5161  N5162   1.427   .     S
N5162  C5163   1.295   .     D
C5163  C5164   1.462   .     S
C5163  H5172   1.084   .     S
C5165  C5166   1.468   .     S
C5166  C7451   1.400   .     D
C5166  C7450   1.401   .     S
C5167  N5765   1.430   .     S
C5167  C7449   1.400   .     S
C5167  C7452   1.400   .     D
C5168  C7820   1.408   .     S
C5173  C5185   1.385   .     S
C5173  N5186   1.354   1_554 D
C5174  C5184   1.385   .     S
C5174  H5196   1.082   .     S
C5174  C5185   1.363   1_556 D
C5175  C5183   1.483   .     S
C5176  N5177   1.427   .     S
N5177  C5178   1.295   .     D
C5178  C5179   1.462   .     S
C5178  H5197   1.084   .     S
C5180  C5181   1.468   .     S
C5181  C6319   1.401   .     D
C5181  C6317   1.401   .     S
C5182  N5739   1.429   .     S
C5182  C6318   1.400   .     S
C5182  C6320   1.400   .     D
C5183  C5184   1.407   .     D
C5183  C7524   1.408   .     S
C5184  N5186   1.354   .     S
C5185  H5198   1.082   .     S
C5185  C5174   1.363   1_554 D
N5186  C5173   1.354   1_556 D
C5187  C5195   1.483   .     S
C5188  N5189   1.427   .     S
N5189  C5190   1.295   .     D
C5190  C5191   1.462   .     S
C5190  H5199   1.084   .     S
C5192  C5193   1.468   .     S
C5193  C6771   1.400   .     S
C5193  C6770   1.401   .     D
C5194  N5773   1.430   .     S
C5194  C6769   1.400   .     D
C5194  C6772   1.400   .     S
C5195  C7706   1.408   .     S
C5200  C5212   1.385   .     S
C5200  N5213   1.354   .     D
C5201  C5211   1.385   .     S
C5201  C5212   1.363   .     D
C5201  H5223   1.082   .     S
C5202  C5210   1.483   .     S
C5203  N5204   1.427   .     S
N5204  C5205   1.295   .     D
C5205  C5206   1.462   .     S
C5205  H5224   1.084   .     S
C5207  C5208   1.468   .     S
C5208  C6329   1.401   .     S
C5208  C6327   1.401   .     D
C5209  N5740   1.429   .     S
C5209  C6328   1.400   .     D
C5209  C6330   1.400   .     S
C5210  C5211   1.407   .     D
C5210  C7525   1.408   .     S
C5211  N5213   1.354   .     S
C5212  H5225   1.082   .     S
C5214  C5222   1.483   .     S
C5215  N5216   1.427   .     S
N5216  C5217   1.295   .     D
C5217  C5218   1.462   .     S
C5217  H5226   1.084   .     S
C5219  C5220   1.468   .     S
C5220  C6779   1.400   .     S
C5220  C6778   1.401   .     D
C5221  N5766   1.430   .     S
C5221  C6777   1.400   .     D
C5221  C6780   1.400   .     S
C5222  C7703   1.408   .     S
C5227  C5239   1.385   .     S
C5227  N5240   1.354   .     S
C5227  C5330   1.407   .     D
C5228  C5238   1.385   .     S
C5228  C5239   1.363   .     D
C5228  H5250   1.082   .     S
C5229  C5237   1.483   .     S
C5230  N5231   1.427   .     S
N5231  C5232   1.295   .     D
C5232  C5233   1.462   .     S
C5232  H5251   1.084   .     S
C5234  C5235   1.468   .     S
C5235  C6359   1.401   .     S
C5235  C6357   1.401   .     D
C5236  N5736   1.429   .     S
C5236  C6358   1.400   .     D
C5236  C6360   1.400   .     S
C5237  C5238   1.407   .     S
C5237  C7516   1.408   .     D
C5238  N5240   1.354   .     D
C5239  H5252   1.082   .     S
C5241  C5249   1.483   .     S
C5242  N5243   1.427   .     S
N5243  C5244   1.295   .     D
C5244  C5245   1.462   .     S
C5244  H5253   1.084   .     S
C5246  C5247   1.468   .     S
C5247  C6819   1.400   .     S
C5247  C6818   1.401   .     D
C5248  N5758   1.430   .     S
C5248  C6817   1.400   .     D
C5248  C6820   1.400   .     S
C5249  C5308   1.407   .     S
C5249  C7790   1.408   .     D
C5254  C5266   1.385   .     S
C5254  N5267   1.354   1_556 D
C5255  C5265   1.385   .     S
C5255  H5277   1.082   .     S
C5255  C5266   1.363   1_554 D
C5256  C5264   1.483   .     S
C5257  N5258   1.427   .     S
N5258  C5259   1.295   .     D
C5259  C5260   1.462   .     S
C5259  H5278   1.084   .     S
C5261  C5262   1.468   .     S
C5262  C6539   1.401   .     S
C5262  C6537   1.401   .     D
C5263  N5737   1.429   .     S
C5263  C6538   1.400   .     D
C5263  C6540   1.400   .     S
C5264  C5265   1.407   .     D
C5264  C7515   1.408   .     S
C5265  N5267   1.354   .     S
C5266  H5279   1.082   .     S
C5266  C5255   1.363   1_556 D
N5267  C5254   1.354   1_554 D
C5268  C5276   1.483   .     S
C5269  N5270   1.427   .     S
N5270  C5271   1.295   .     D
C5271  C5272   1.462   .     S
C5271  H5280   1.084   .     S
C5273  C5274   1.468   .     S
C5274  C6811   1.400   .     S
C5274  C6810   1.401   .     D
C5275  N5771   1.430   .     S
C5275  C6809   1.400   .     D
C5275  C6812   1.400   .     S
C5276  C7700   1.408   .     S
C5281  C5293   1.385   .     S
C5281  N5294   1.354   1_556 D
C5282  C5292   1.385   .     S
C5282  H5304   1.082   .     S
C5282  C5293   1.363   1_554 D
C5283  C5291   1.483   .     S
C5284  N5285   1.427   .     S
N5285  C5286   1.295   .     D
C5286  C5287   1.462   .     S
C5286  H5305   1.084   .     S
C5288  C5289   1.468   .     S
C5289  C6509   1.401   .     S
C5289  C6507   1.401   .     D
C5290  N5738   1.429   .     S
C5290  C6508   1.400   .     D
C5290  C6510   1.400   .     S
C5291  C5292   1.407   .     D
C5291  C7522   1.408   .     S
C5292  N5294   1.354   .     S
C5293  H5306   1.082   .     S
C5293  C5282   1.363   1_556 D
N5294  C5281   1.354   1_554 D
C5295  C5303   1.483   .     S
C5296  N5297   1.427   .     S
N5297  C5298   1.295   .     D
C5298  C5299   1.462   .     S
C5298  H5307   1.084   .     S
C5300  C5301   1.468   .     S
C5301  C6803   1.400   .     S
C5301  C6802   1.401   .     D
C5302  N5762   1.430   .     S
C5302  C6801   1.400   .     D
C5302  C6804   1.400   .     S
C5303  C7691   1.408   .     S
C5308  C5320   1.385   .     S
C5308  N5321   1.354   .     D
C5309  C5319   1.385   .     S
C5309  C5320   1.363   .     D
C5309  H5331   1.082   .     S
C5310  C5318   1.483   .     S
C5311  N5312   1.427   .     S
N5312  C5313   1.295   .     D
C5313  C5314   1.462   .     S
C5313  H5332   1.084   .     S
C5315  C5316   1.468   .     S
C5316  C6289   1.401   .     D
C5316  C6287   1.401   .     S
C5317  N5735   1.429   .     S
C5317  C6288   1.400   .     S
C5317  C6290   1.400   .     D
C5318  C5319   1.407   .     D
C5318  C7521   1.408   .     S
C5319  N5321   1.354   .     S
C5320  H5333   1.082   .     S
C5322  C5330   1.483   .     S
C5323  N5324   1.427   .     S
N5324  C5325   1.295   .     D
C5325  C5326   1.462   .     S
C5325  H5334   1.084   .     S
C5327  C5328   1.468   .     S
C5328  C6795   1.400   .     S
C5328  C6794   1.401   .     D
C5329  N5772   1.430   .     S
C5329  C6793   1.400   .     D
C5329  C6796   1.400   .     S
C5330  C7781   1.408   .     S
C5335  C5347   1.385   .     S
C5335  N5348   1.354   .     S
C5335  C5438   1.407   .     D
C5336  C5346   1.385   .     S
C5336  C5347   1.363   .     D
C5336  H5358   1.082   .     S
C5337  C5345   1.483   .     S
C5338  N5339   1.427   .     S
N5339  C5340   1.295   .     D
C5340  C5341   1.462   .     S
C5340  H5359   1.084   .     S
C5342  C5343   1.468   .     S
C5343  C5879   1.401   .     S
C5343  C5877   1.401   .     D
C5344  N5741   1.429   .     S
C5344  C5878   1.400   .     D
C5344  C5880   1.400   .     S
C5345  C5346   1.407   .     S
C5345  C7574   1.408   .     D
C5346  N5348   1.354   .     D
C5347  H5360   1.082   .     S
C5349  C5357   1.483   .     S
C5350  N5351   1.427   .     S
N5351  C5352   1.295   .     D
C5352  C5353   1.462   .     S
C5352  H5361   1.084   .     S
C5354  C5355   1.468   .     S
C5355  C7387   1.400   .     S
C5355  C7386   1.401   .     D
C5356  N5755   1.430   .     S
C5356  C7385   1.400   .     D
C5356  C7388   1.400   .     S
C5357  C5416   1.407   .     S
C5357  C7868   1.408   .     D
C5362  C5374   1.385   .     S
C5362  N5375   1.354   .     D
C5363  C5373   1.385   .     S
C5363  C5374   1.363   .     D
C5363  H5385   1.082   .     S
C5364  C5372   1.483   .     S
C5365  N5366   1.427   .     S
N5366  C5367   1.295   .     D
C5367  C5368   1.462   .     S
C5367  H5386   1.084   .     S
C5369  C5370   1.468   .     S
C5370  C6609   1.401   .     D
C5370  C6607   1.401   .     S
C5371  N5742   1.429   .     S
C5371  C6608   1.400   .     S
C5371  C6610   1.400   .     D
C5372  C5373   1.407   .     D
C5372  C7573   1.408   .     S
C5373  N5375   1.354   .     S
C5374  H5387   1.082   .     S
C5376  C5384   1.483   .     S
C5377  N5378   1.427   .     S
N5378  C5379   1.295   .     D
C5379  C5380   1.462   .     S
C5379  H5388   1.084   .     S
C5381  C5382   1.468   .     S
C5382  C7379   1.400   .     S
C5382  C7378   1.401   .     D
C5383  N5745   1.430   .     S
C5383  C7377   1.400   .     D
C5383  C7380   1.400   .     S
C5384  C7661   1.408   .     S
C5389  C5401   1.385   .     S
C5389  N5402   1.354   .     D
C5390  C5400   1.385   .     S
C5390  C5401   1.363   .     D
C5390  H5412   1.082   .     S
C5391  C5399   1.483   .     S
C5392  N5393   1.427   .     S
N5393  C5394   1.295   .     D
C5394  C5395   1.462   .     S
C5394  H5413   1.084   .     S
C5396  C5397   1.468   .     S
C5397  C5949   1.401   .     S
C5397  C5947   1.401   .     D
C5398  N5743   1.429   .     S
C5398  C5948   1.400   .     D
C5398  C5950   1.400   .     S
C5399  C5400   1.407   .     D
C5399  C7561   1.408   .     S
C5400  N5402   1.354   .     S
C5401  H5414   1.082   .     S
C5403  C5411   1.483   .     S
C5404  N5405   1.427   .     S
N5405  C5406   1.295   .     D
C5406  C5407   1.462   .     S
C5406  H5415   1.084   .     S
C5408  C5409   1.468   .     S
C5409  C7179   1.400   .     S
C5409  C7178   1.401   .     D
C5410  N5775   1.430   .     S
C5410  C7177   1.400   .     D
C5410  C7180   1.400   .     S
C5411  C7682   1.408   .     S
C5416  C5428   1.385   .     S
C5416  N5429   1.354   .     D
C5417  C5427   1.385   .     S
C5417  C5428   1.363   .     D
C5417  H5439   1.082   .     S
C5418  C5426   1.483   .     S
C5419  N5420   1.427   .     S
N5420  C5421   1.295   .     D
C5421  C5422   1.462   .     S
C5421  H5440   1.084   .     S
C5423  C5424   1.468   .     S
C5424  C6589   1.401   .     D
C5424  C6587   1.401   .     S
C5425  N5744   1.429   .     S
C5425  C6588   1.400   .     S
C5425  C6590   1.400   .     D
C5426  C5427   1.407   .     D
C5426  C7563   1.408   .     S
C5427  N5429   1.354   .     S
C5428  H5441   1.082   .     S
C5430  C5438   1.483   .     S
C5431  N5432   1.427   .     S
N5432  C5433   1.295   .     D
C5433  C5434   1.462   .     S
C5433  H5442   1.084   .     S
C5435  C5436   1.468   .     S
C5436  C7115   1.400   .     S
C5436  C7114   1.401   .     D
C5437  N5776   1.430   .     S
C5437  C7113   1.400   .     D
C5437  C7116   1.400   .     S
C5438  C7859   1.408   .     S
C5443  C5455   1.385   .     S
C5443  N5456   1.354   .     D
C5444  C5454   1.385   .     S
C5444  C5455   1.363   .     D
C5444  H5466   1.082   .     S
C5445  C5453   1.483   .     S
C5446  N5447   1.427   .     S
N5447  C5448   1.295   .     D
C5448  C5449   1.462   .     S
C5448  H5467   1.084   .     S
C5450  C5451   1.468   .     S
C5451  C5859   1.401   .     S
C5451  C5857   1.401   .     D
C5452  N5723   1.429   .     S
C5452  C5858   1.400   .     D
C5452  C5860   1.400   .     S
C5453  C5454   1.407   .     D
C5453  C7582   1.408   .     S
C5454  N5456   1.354   .     S
C5455  H5468   1.082   .     S
C5457  C5465   1.483   .     S
C5458  N5459   1.427   .     S
N5459  C5460   1.295   .     D
C5460  C5461   1.462   .     S
C5460  H5469   1.084   .     S
C5462  C5463   1.468   .     S
C5463  C7363   1.400   .     S
C5463  C7362   1.401   .     D
C5464  N5747   1.430   .     S
C5464  C7361   1.400   .     D
C5464  C7364   1.400   .     S
C5465  C7640   1.408   .     S
C5470  C5482   1.385   .     S
C5470  N5483   1.354   .     S
C5471  C5481   1.385   .     S
C5471  C5482   1.363   .     D
C5471  H5493   1.082   .     S
C5472  C5480   1.483   .     S
C5473  N5474   1.427   .     S
N5474  C5475   1.295   .     D
C5475  C5476   1.462   .     S
C5475  H5494   1.084   .     S
C5477  C5478   1.468   .     S
C5478  C5839   1.401   .     S
C5478  C5837   1.401   .     D
C5479  N5741   1.429   .     S
C5479  C5838   1.400   .     D
C5479  C5840   1.400   .     S
C5480  C5481   1.407   .     S
C5480  C7545   1.408   .     D
C5481  N5483   1.354   .     D
C5482  H5495   1.082   .     S
C5484  C5492   1.483   .     S
C5485  N5486   1.427   .     S
N5486  C5487   1.295   .     D
C5487  C5488   1.462   .     S
C5487  H5496   1.084   .     S
C5489  C5490   1.468   .     S
C5490  C7243   1.400   .     S
C5490  C7242   1.401   .     D
C5491  N5774   1.430   .     S
C5491  C7241   1.400   .     D
C5491  C7244   1.400   .     S
C5492  C7658   1.408   .     D
C5497  C5509   1.385   .     S
C5497  N5510   1.354   .     S
C5498  C5508   1.385   .     S
C5498  C5509   1.363   .     D
C5498  H5520   1.082   .     S
C5499  C5507   1.483   .     S
C5500  N5501   1.427   .     S
N5501  C5502   1.295   .     D
C5502  C5503   1.462   .     S
C5502  H5521   1.084   .     S
C5504  C5505   1.468   .     S
C5505  C5819   1.401   .     S
C5505  C5817   1.401   .     D
C5506  N5742   1.429   .     S
C5506  C5818   1.400   .     D
C5506  C5820   1.400   .     S
C5507  C5508   1.407   .     S
C5507  C7546   1.408   .     D
C5508  N5510   1.354   .     D
C5509  H5522   1.082   .     S
C5511  C5519   1.483   .     S
C5512  N5513   1.427   .     S
N5513  C5514   1.295   .     D
C5514  C5515   1.462   .     S
C5514  H5523   1.084   .     S
C5516  C5517   1.468   .     S
C5517  C7251   1.400   .     S
C5517  C7250   1.401   .     D
C5518  N5753   1.430   .     S
C5518  C7249   1.400   .     D
C5518  C7252   1.400   .     S
C5519  C7652   1.408   .     D
C5524  C5536   1.385   .     S
C5524  N5537   1.354   .     S
C5525  C5535   1.385   .     S
C5525  C5536   1.363   .     D
C5525  H5547   1.082   .     S
C5526  C5534   1.483   .     S
C5527  N5528   1.427   .     S
N5528  C5529   1.295   .     D
C5529  C5530   1.462   .     S
C5529  H5548   1.084   .     S
C5531  C5532   1.468   .     S
C5532  C5779   1.401   .     S
C5532  C5777   1.401   .     D
C5533  N5724   1.429   .     S
C5533  C5778   1.400   .     D
C5533  C5780   1.400   .     S
C5534  C5535   1.407   .     S
C5534  C7585   1.408   .     D
C5535  N5537   1.354   .     D
C5536  H5549   1.082   .     S
C5538  C5546   1.483   .     S
C5539  N5540   1.427   .     S
N5540  C5541   1.295   .     D
C5541  C5542   1.462   .     S
C5541  H5550   1.084   .     S
C5543  C5544   1.468   .     S
C5544  C7355   1.400   .     D
C5544  C7354   1.401   .     S
C5545  N5751   1.430   .     S
C5545  C7353   1.400   .     S
C5545  C7356   1.400   .     D
C5546  C7634   1.408   .     D
C5551  C5563   1.385   .     S
C5551  N5564   1.354   .     D
C5552  C5562   1.385   .     S
C5552  C5563   1.363   .     D
C5552  H5574   1.082   .     S
C5553  C5561   1.483   .     S
C5554  N5555   1.427   .     S
N5555  C5556   1.295   .     D
C5556  C5557   1.462   .     S
C5556  H5575   1.084   .     S
C5558  C5559   1.468   .     S
C5559  C5789   1.401   .     D
C5559  C5787   1.401   .     S
C5560  N5744   1.429   .     S
C5560  C5788   1.400   .     S
C5560  C5790   1.400   .     D
C5561  C5562   1.407   .     D
C5561  C7584   1.408   .     S
C5562  N5564   1.354   .     S
C5563  H5576   1.082   .     S
C5565  C5573   1.483   .     S
C5566  N5567   1.427   .     S
N5567  C5568   1.295   .     D
C5568  C5569   1.462   .     S
C5568  H5577   1.084   .     S
C5570  C5571   1.468   .     S
C5571  C7347   1.400   .     S
C5571  C7346   1.401   .     D
C5572  N5752   1.430   .     S
C5572  C7345   1.400   .     D
C5572  C7348   1.400   .     S
C5573  C7631   1.408   .     S
C5578  C5590   1.385   .     S
C5578  N5591   1.354   .     D
C5578  C5627   1.407   .     S
C5579  C5589   1.385   .     S
C5579  C5590   1.363   .     D
C5579  H5601   1.082   .     S
C5580  C5588   1.483   .     S
C5581  N5582   1.427   .     S
N5582  C5583   1.295   .     D
C5583  C5584   1.462   .     S
C5583  H5602   1.084   .     S
C5585  C5586   1.468   .     S
C5586  C6069   1.401   .     S
C5586  C6067   1.401   .     D
C5587  N5742   1.429   .     S
C5587  C6068   1.400   .     D
C5587  C6070   1.400   .     S
C5588  C5589   1.407   .     D
C5588  C7550   1.408   .     S
C5589  N5591   1.354   .     S
C5590  H5603   1.082   .     S
C5592  C5600   1.483   .     S
C5593  N5594   1.427   .     S
N5594  C5595   1.295   .     D
C5595  C5596   1.462   .     S
C5595  H5604   1.084   .     S
C5597  C5598   1.468   .     S
C5598  C7099   1.400   .     S
C5598  C7098   1.401   .     D
C5599  N5774   1.430   .     S
C5599  C7097   1.400   .     D
C5599  C7100   1.400   .     S
C5600  C5605   1.407   .     D
C5600  C7841   1.408   .     S
C5605  C5617   1.385   .     S
C5605  N5618   1.354   .     S
C5606  C5616   1.385   .     S
C5606  C5617   1.363   .     D
C5606  H5628   1.082   .     S
C5607  C5615   1.483   .     S
C5608  N5609   1.427   .     S
N5609  C5610   1.295   .     D
C5610  C5611   1.462   .     S
C5610  H5629   1.084   .     S
C5612  C5613   1.468   .     S
C5613  C5979   1.401   .     S
C5613  C5977   1.401   .     D
C5614  N5743   1.429   .     S
C5614  C5978   1.400   .     D
C5614  C5980   1.400   .     S
C5615  C5616   1.407   .     S
C5615  C7556   1.408   .     D
C5616  N5618   1.354   .     D
C5617  H5630   1.082   .     S
C5619  C5627   1.483   .     S
C5620  N5621   1.427   .     S
N5621  C5622   1.295   .     D
C5622  C5623   1.462   .     S
C5622  H5631   1.084   .     S
C5624  C5625   1.468   .     S
C5625  C7083   1.400   .     S
C5625  C7082   1.401   .     D
C5626  N5746   1.430   .     S
C5626  C7081   1.400   .     D
C5626  C7084   1.400   .     S
C5627  C7838   1.408   .     D
C5632  C5644   1.385   .     S
C5632  N5645   1.354   .     S
C5633  C5643   1.385   .     S
C5633  C5644   1.363   .     D
C5633  H5655   1.082   .     S
C5634  C5642   1.483   .     S
C5635  N5636   1.427   .     S
N5636  C5637   1.295   .     D
C5637  C5638   1.462   .     S
C5637  H5656   1.084   .     S
C5639  C5640   1.468   .     S
C5640  C6679   1.401   .     S
C5640  C6677   1.401   .     D
C5641  N5723   1.429   .     S
C5641  C6678   1.400   .     D
C5641  C6680   1.400   .     S
C5642  C5643   1.407   .     S
C5642  C7555   1.408   .     D
C5643  N5645   1.354   .     D
C5644  H5657   1.082   .     S
C5646  C5654   1.483   .     S
C5647  N5648   1.427   .     S
N5648  C5649   1.295   .     D
C5649  C5650   1.462   .     S
C5649  H5658   1.084   .     S
C5651  C5652   1.468   .     S
C5652  C7075   1.400   .     D
C5652  C7074   1.401   .     S
C5653  N5775   1.430   .     S
C5653  C7073   1.400   .     S
C5653  C7076   1.400   .     D
C5654  C7604   1.408   .     D
C5659  C5671   1.385   .     S
C5659  N5672   1.354   .     S
C5660  C5670   1.385   .     S
C5660  C5671   1.363   .     D
C5660  H5682   1.082   .     S
C5661  C5669   1.483   .     S
C5662  N5663   1.427   .     S
N5663  C5664   1.295   .     D
C5664  C5665   1.462   .     S
C5664  H5683   1.084   .     S
C5666  C5667   1.468   .     S
C5667  C6029   1.401   .     S
C5667  C6027   1.401   .     D
C5668  N5724   1.429   .     S
C5668  C6028   1.400   .     D
C5668  C6030   1.400   .     S
C5669  C5670   1.407   .     S
C5669  C7552   1.408   .     D
C5670  N5672   1.354   .     D
C5671  H5684   1.082   .     S
C5673  C5681   1.483   .     S
C5674  N5675   1.427   .     S
N5675  C5676   1.295   .     D
C5676  C5677   1.462   .     S
C5676  H5685   1.084   .     S
C5678  C5679   1.468   .     S
C5679  C7027   1.400   .     S
C5679  C7026   1.401   .     D
C5680  N5776   1.430   .     S
C5680  C7025   1.400   .     D
C5680  C7028   1.400   .     S
C5681  C7625   1.408   .     D
C5686  C5698   1.385   .     S
C5686  N5699   1.354   .     S
C5687  C5697   1.385   .     S
C5687  C5698   1.363   .     D
C5687  H5709   1.082   .     S
C5688  C5696   1.483   .     S
C5689  N5690   1.427   .     S
N5690  C5691   1.295   .     D
C5691  C5692   1.462   .     S
C5691  H5710   1.084   .     S
C5693  C5694   1.468   .     S
C5694  C6019   1.401   .     S
C5694  C6017   1.401   .     D
C5695  N5744   1.429   .     S
C5695  C6018   1.400   .     D
C5695  C6020   1.400   .     S
C5696  C5697   1.407   .     S
C5696  C7553   1.408   .     D
C5697  N5699   1.354   .     D
C5698  H5711   1.082   .     S
C5700  C5708   1.483   .     S
C5701  N5702   1.427   .     S
N5702  C5703   1.295   .     D
C5703  C5704   1.462   .     S
C5703  H5712   1.084   .     S
C5705  C5706   1.468   .     S
C5706  C7035   1.400   .     S
C5706  C7034   1.401   .     D
C5707  N5748   1.430   .     S
C5707  C7033   1.400   .     D
C5707  C7036   1.400   .     S
C5708  C7628   1.408   .     D
C5777  C5778   1.398   .     S
C5777  H5782   1.082   .     S
C5778  H5783   1.082   .     S
C5779  C5780   1.396   .     D
C5779  H5784   1.083   .     S
C5780  H5785   1.082   .     S
C5781  H5786   1.082   .     S
C5781  C6641   1.362   .     D
C5781  C7587   1.384   .     S
C5787  C5788   1.398   .     D
C5787  H5792   1.082   .     S
C5788  H5793   1.082   .     S
C5789  C5790   1.396   .     S
C5789  H5794   1.083   .     S
C5790  H5795   1.082   .     S
C5791  H5796   1.082   .     S
C5791  C6651   1.362   .     D
C5791  C7588   1.384   .     S
C5797  C5798   1.398   .     D
C5797  H5802   1.082   .     S
C5798  H5803   1.082   .     S
C5799  C5800   1.396   .     S
C5799  H5804   1.083   .     S
C5800  H5805   1.082   .     S
C5801  H5806   1.082   .     S
C5801  C5851   1.362   .     D
C5801  C7533   1.384   .     S
C5807  C5808   1.398   .     S
C5807  H5812   1.082   .     S
C5808  H5813   1.082   .     S
C5809  C5810   1.396   .     D
C5809  H5814   1.083   .     S
C5810  H5815   1.082   .     S
C5811  H5816   1.082   .     S
C5811  C5831   1.362   .     D
C5811  C7531   1.384   .     S
C5817  C5818   1.398   .     S
C5817  H5822   1.082   .     S
C5818  H5823   1.082   .     S
C5819  C5820   1.396   .     D
C5819  H5824   1.083   .     S
C5820  H5825   1.082   .     S
C5821  H5826   1.082   .     S
C5821  C6671   1.362   .     D
C5821  C7538   1.384   .     S
C5827  C5828   1.398   .     S
C5827  H5832   1.082   .     S
C5828  H5833   1.082   .     S
C5829  C5830   1.396   .     D
C5829  H5834   1.083   .     S
C5830  H5835   1.082   .     S
C5831  H5836   1.082   .     S
C5831  C7537   1.384   .     S
C5837  C5838   1.398   .     S
C5837  H5842   1.082   .     S
C5838  H5843   1.082   .     S
C5839  C5840   1.396   .     D
C5839  H5844   1.083   .     S
C5840  H5845   1.082   .     S
C5841  H5846   1.082   .     S
C5841  C6661   1.362   .     D
C5841  C7589   1.384   .     S
C5847  C5848   1.398   .     S
C5847  H5852   1.082   .     S
C5848  H5853   1.082   .     S
C5849  C5850   1.396   .     D
C5849  H5854   1.083   .     S
C5850  H5855   1.082   .     S
C5851  H5856   1.082   .     S
C5851  C7536   1.384   .     S
C5857  C5858   1.398   .     S
C5857  H5862   1.082   .     S
C5858  H5863   1.082   .     S
C5859  C5860   1.396   .     D
C5859  H5864   1.083   .     S
C5860  H5865   1.082   .     S
C5861  H5866   1.082   .     S
C5861  C6631   1.362   .     D
C5861  C7529   1.384   .     S
C5867  C5868   1.398   .     S
C5867  H5872   1.082   .     S
C5868  H5873   1.082   .     S
C5869  C5870   1.396   .     D
C5869  H5874   1.083   .     S
C5870  H5875   1.082   .     S
C5871  H5876   1.082   .     S
C5871  C6621   1.362   .     D
C5871  C7590   1.384   .     S
C5877  C5878   1.398   .     S
C5877  H5882   1.082   .     S
C5878  H5883   1.082   .     S
C5879  C5880   1.396   .     D
C5879  H5884   1.083   .     S
C5880  H5885   1.082   .     S
C5881  H5886   1.082   .     S
C5881  C6581   1.362   .     D
C5881  C7599   1.384   .     S
C5887  C5888   1.398   .     S
C5887  H5892   1.082   .     S
C5888  H5893   1.082   .     S
C5889  C5890   1.396   .     D
C5889  H5894   1.083   .     S
C5890  H5895   1.082   .     S
C5891  H5896   1.082   .     S
C5891  C5961   1.362   .     D
C5891  C7511   1.384   .     S
C5897  C5898   1.398   .     S
C5897  H5902   1.082   .     S
C5898  H5903   1.082   .     S
C5899  C5900   1.396   .     D
C5899  H5904   1.083   .     S
C5900  H5905   1.082   .     S
C5901  H5906   1.082   .     S
C5901  C5931   1.362   .     D
C5901  C7508   1.384   .     S
C5907  C5908   1.398   .     D
C5907  H5912   1.082   .     S
C5908  H5913   1.082   .     S
C5909  C5910   1.396   .     S
C5909  H5914   1.083   .     S
C5910  H5915   1.082   .     S
C5911  H5916   1.082   .     S
C5911  C5921   1.362   .     D
C5911  C7507   1.384   .     S
C5917  C5918   1.398   .     S
C5917  H5922   1.082   .     S
C5918  H5923   1.082   .     S
C5919  C5920   1.396   .     D
C5919  H5924   1.083   .     S
C5920  H5925   1.082   .     S
C5921  H5926   1.082   .     S
C5921  C7514   1.384   .     S
C5927  C5928   1.398   .     S
C5927  H5932   1.082   .     S
C5928  H5933   1.082   .     S
C5929  C5930   1.396   .     D
C5929  H5934   1.083   .     S
C5930  H5935   1.082   .     S
C5931  H5936   1.082   .     S
C5931  C7513   1.384   .     S
C5937  C5938   1.398   .     S
C5937  H5942   1.082   .     S
C5938  H5943   1.082   .     S
C5939  C5940   1.396   .     D
C5939  H5944   1.083   .     S
C5940  H5945   1.082   .     S
C5941  H5946   1.082   .     S
C5941  C6571   1.362   .     D
C5941  C7596   1.384   .     S
C5947  C5948   1.398   .     S
C5947  H5952   1.082   .     S
C5948  H5953   1.082   .     S
C5949  C5950   1.396   .     D
C5949  H5954   1.083   .     S
C5950  H5955   1.082   .     S
C5951  H5956   1.082   .     S
C5951  C6561   1.362   .     D
C5951  C7595   1.384   .     S
C5957  C5958   1.398   .     S
C5957  H5962   1.082   .     S
C5958  H5963   1.082   .     S
C5959  C5960   1.396   .     D
C5959  H5964   1.083   .     S
C5960  H5965   1.082   .     S
C5961  H5966   1.082   .     S
C5961  C7506   1.384   .     S
C5967  C5968   1.398   .     S
C5967  H5972   1.082   .     S
C5968  H5973   1.082   .     S
C5969  C5970   1.396   .     D
C5969  H5974   1.083   .     S
C5970  H5975   1.082   .     S
C5971  H5976   1.082   .     S
C5971  C6601   1.362   .     D
C5971  C7597   1.384   .     S
C5977  C5978   1.398   .     S
C5977  H5982   1.082   .     S
C5978  H5983   1.082   .     S
C5979  C5980   1.396   .     D
C5979  H5984   1.083   .     S
C5980  H5985   1.082   .     S
C5981  H5986   1.082   .     S
C5981  C6721   1.362   .     D
C5981  C7594   1.384   .     S
C5987  C5988   1.398   .     S
C5987  H5992   1.082   .     S
C5988  H5993   1.082   .     S
C5989  C5990   1.396   .     D
C5989  H5994   1.083   .     S
C5990  H5995   1.082   .     S
C5991  H5996   1.082   .     S
C5991  C6061   1.362   .     D
C5991  C7521   1.384   .     S
C5997  C5998   1.398   .     S
C5997  H6002   1.082   .     S
C5998  H6003   1.082   .     S
C5999  C6000   1.396   .     D
C5999  H6004   1.083   .     S
C6000  H6005   1.082   .     S
C6001  H6006   1.082   .     S
C6001  C6041   1.362   .     D
C6001  C7519   1.384   .     S
C6007  C6008   1.398   .     S
C6007  H6012   1.082   .     S
C6008  H6013   1.082   .     S
C6009  C6010   1.396   .     D
C6009  H6014   1.083   .     S
C6010  H6015   1.082   .     S
C6011  H6016   1.082   .     S
C6011  C6051   1.362   .     D
C6011  C7520   1.384   .     S
C6017  C6018   1.398   .     S
C6017  H6022   1.082   .     S
C6018  H6023   1.082   .     S
C6019  C6020   1.396   .     D
C6019  H6024   1.083   .     S
C6020  H6025   1.082   .     S
C6021  H6026   1.082   .     S
C6021  C6711   1.362   .     D
C6021  C7526   1.384   .     S
C6027  C6028   1.398   .     S
C6027  H6032   1.082   .     S
C6028  H6033   1.082   .     S
C6029  C6030   1.396   .     D
C6029  H6034   1.083   .     S
C6030  H6035   1.082   .     S
C6031  H6036   1.082   .     S
C6031  C6701   1.362   .     D
C6031  C7593   1.384   .     S
C6037  C6038   1.398   .     S
C6037  H6042   1.082   .     S
C6038  H6043   1.082   .     S
C6039  C6040   1.396   .     D
C6039  H6044   1.083   .     S
C6040  H6045   1.082   .     S
C6041  H6046   1.082   .     S
C6041  C7524   1.384   .     S
C6047  C6048   1.398   .     S
C6047  H6052   1.082   .     S
C6048  H6053   1.082   .     S
C6049  C6050   1.396   .     D
C6049  H6054   1.083   .     S
C6050  H6055   1.082   .     S
C6051  H6056   1.082   .     S
C6051  C7525   1.384   .     S
C6057  C6058   1.398   .     S
C6057  H6062   1.082   .     S
C6058  H6063   1.082   .     S
C6059  C6060   1.396   .     D
C6059  H6064   1.083   .     S
C6060  H6065   1.082   .     S
C6061  H6066   1.082   .     S
C6061  C7516   1.384   .     S
C6067  C6068   1.398   .     S
C6067  H6072   1.082   .     S
C6068  H6073   1.082   .     S
C6069  C6070   1.396   .     D
C6069  H6074   1.083   .     S
C6070  H6075   1.082   .     S
C6071  H6076   1.082   .     S
C6071  C6691   1.362   .     D
C6071  C7592   1.384   .     S
C6077  C6078   1.398   .     S
C6077  H6082   1.082   .     S
C6078  H6083   1.082   .     S
C6079  C6080   1.396   .     D
C6079  H6084   1.083   .     S
C6080  H6085   1.082   .     S
C6081  H6086   1.082   .     S
C6081  C7568   1.384   .     S
C6081  C6171   1.362   1_655 D
C6087  C6088   1.398   .     S
C6087  H6092   1.082   .     S
C6088  H6093   1.082   .     S
C6089  C6090   1.396   .     D
C6089  H6094   1.083   .     S
C6090  H6095   1.082   .     S
C6091  H6096   1.082   .     S
C6091  C7567   1.384   .     S
C6091  C6161   1.362   1_656 D
C6097  C6098   1.398   .     S
C6097  H6102   1.082   .     S
C6098  H6103   1.082   .     S
C6099  C6100   1.396   .     D
C6099  H6104   1.083   .     S
C6100  H6105   1.082   .     S
C6101  H6106   1.082   .     S
C6101  C7571   1.384   .     S
C6101  C6441   1.362   1_456 D
C6107  C6108   1.398   .     S
C6107  H6112   1.082   .     S
C6108  H6113   1.082   .     S
C6109  C6110   1.396   .     D
C6109  H6114   1.083   .     S
C6110  H6115   1.082   .     S
C6111  H6116   1.082   .     S
C6111  C6131   1.362   .     D
C6111  C7564   1.384   .     S
C6117  C6118   1.398   .     S
C6117  H6122   1.082   .     S
C6118  H6123   1.082   .     S
C6119  C6120   1.396   .     D
C6119  H6124   1.083   .     S
C6120  H6125   1.082   .     S
C6121  H6126   1.082   .     S
C6121  C7574   1.384   .     S
C6121  C6491   1.362   1_554 D
C6127  C6128   1.398   .     S
C6127  H6132   1.082   .     S
C6128  H6133   1.082   .     S
C6129  C6130   1.396   .     D
C6129  H6134   1.083   .     S
C6130  H6135   1.082   .     S
C6131  H6136   1.082   .     S
C6131  C7570   1.384   .     S
C6137  C6138   1.398   .     S
C6137  H6142   1.082   .     S
C6138  H6143   1.082   .     S
C6139  C6140   1.396   .     D
C6139  H6144   1.083   .     S
C6140  H6145   1.082   .     S
C6141  H6146   1.082   .     S
C6141  C6471   1.362   .     D
C6141  C7576   1.384   .     S
C6147  C6148   1.398   .     S
C6147  H6152   1.082   .     S
C6148  H6153   1.082   .     S
C6149  C6150   1.396   .     D
C6149  H6154   1.083   .     S
C6150  H6155   1.082   .     S
C6151  H6156   1.082   .     S
C6151  C7575   1.384   .     S
C6151  C6461   1.362   1_554 D
C6157  C6158   1.398   .     S
C6157  H6162   1.082   .     S
C6158  H6163   1.082   .     S
C6159  C6160   1.396   .     D
C6159  H6164   1.083   .     S
C6160  H6165   1.082   .     S
C6161  H6166   1.082   .     S
C6161  C7562   1.384   .     S
C6161  C6091   1.362   1_454 D
C6167  C6168   1.398   .     S
C6167  H6172   1.082   .     S
C6168  H6173   1.082   .     S
C6169  C6170   1.396   .     D
C6169  H6174   1.083   .     S
C6170  H6175   1.082   .     S
C6171  H6176   1.082   .     S
C6171  C7561   1.384   .     S
C6171  C6081   1.362   1_455 D
C6177  C6178   1.398   .     S
C6177  H6182   1.082   .     S
C6178  H6183   1.082   .     S
C6179  C6180   1.396   .     D
C6179  H6184   1.083   .     S
C6180  H6185   1.082   .     S
C6181  H6186   1.082   .     S
C6181  C6271   1.362   .     D
C6181  C7546   1.384   .     S
C6187  C6188   1.398   .     S
C6187  H6192   1.082   .     S
C6188  H6193   1.082   .     S
C6189  C6190   1.396   .     D
C6189  H6194   1.083   .     S
C6190  H6195   1.082   .     S
C6191  H6196   1.082   .     S
C6191  C7547   1.384   .     S
C6191  C6411   1.362   1_544 D
C6197  C6198   1.398   .     D
C6197  H6202   1.082   .     S
C6198  H6203   1.082   .     S
C6199  C6200   1.396   .     S
C6199  H6204   1.083   .     S
C6200  H6205   1.082   .     S
C6201  H6206   1.082   .     S
C6201  C7545   1.384   .     S
C6201  C6261   1.362   1_554 D
C6207  C6208   1.398   .     S
C6207  H6212   1.082   .     S
C6208  H6213   1.082   .     S
C6209  C6210   1.396   .     D
C6209  H6214   1.083   .     S
C6210  H6215   1.082   .     S
C6211  H6216   1.082   .     S
C6211  C7586   1.384   .     S
C6211  C6401   1.362   1_545 D
C6217  C6218   1.398   .     S
C6217  H6222   1.082   .     S
C6218  H6223   1.082   .     S
C6219  C6220   1.396   .     D
C6219  H6224   1.083   .     S
C6220  H6225   1.082   .     S
C6221  H6226   1.082   .     S
C6221  C7585   1.384   .     S
C6221  C6431   1.362   1_545 D
C6227  C6228   1.398   .     S
C6227  H6232   1.082   .     S
C6228  H6233   1.082   .     S
C6229  C6230   1.396   .     D
C6229  H6234   1.083   .     S
C6230  H6235   1.082   .     S
C6231  H6236   1.082   .     S
C6231  C7584   1.384   .     S
C6231  C6421   1.362   1_556 D
C6237  C6238   1.398   .     S
C6237  H6242   1.082   .     S
C6238  H6243   1.082   .     S
C6239  C6240   1.396   .     D
C6239  H6244   1.083   .     S
C6240  H6245   1.082   .     S
C6241  H6246   1.082   .     S
C6241  C7582   1.384   .     S
C6241  C6381   1.362   1_564 D
C6247  C6248   1.398   .     D
C6247  H6252   1.082   .     S
C6248  H6253   1.082   .     S
C6249  C6250   1.396   .     S
C6249  H6254   1.083   .     S
C6250  H6255   1.082   .     S
C6251  H6256   1.082   .     S
C6251  C6391   1.362   .     D
C6251  C7583   1.384   .     S
C6257  C6258   1.398   .     D
C6257  H6262   1.082   .     S
C6258  H6263   1.082   .     S
C6259  C6260   1.396   .     S
C6259  H6264   1.083   .     S
C6260  H6265   1.082   .     S
C6261  H6266   1.082   .     S
C6261  C7541   1.384   .     S
C6261  C6201   1.362   1_556 D
C6267  C6268   1.398   .     D
C6267  H6272   1.082   .     S
C6268  H6273   1.082   .     S
C6269  C6270   1.396   .     S
C6269  H6274   1.083   .     S
C6270  H6275   1.082   .     S
C6271  H6276   1.082   .     S
C6271  C7539   1.384   .     S
C6277  C6278   1.398   .     D
C6277  H6282   1.082   .     S
C6278  H6283   1.082   .     S
C6279  C6280   1.396   .     S
C6279  H6284   1.083   .     S
C6280  H6285   1.082   .     S
C6281  H6286   1.082   .     S
C6281  C7556   1.384   .     S
C6281  C6371   1.362   1_455 D
C6287  C6288   1.398   .     D
C6287  H6292   1.082   .     S
C6288  H6293   1.082   .     S
C6289  C6290   1.396   .     S
C6289  H6294   1.083   .     S
C6290  H6295   1.082   .     S
C6291  H6296   1.082   .     S
C6291  C6551   1.362   .     D
C6291  C7580   1.384   .     S
C6297  C6298   1.398   .     S
C6297  H6302   1.082   .     S
C6298  H6303   1.082   .     S
C6299  C6300   1.396   .     D
C6299  H6304   1.083   .     S
C6300  H6305   1.082   .     S
C6301  H6306   1.082   .     S
C6301  C6351   1.362   .     D
C6301  C7553   1.384   .     S
C6307  C6308   1.398   .     S
C6307  H6312   1.082   .     S
C6308  H6313   1.082   .     S
C6309  C6310   1.396   .     D
C6309  H6314   1.083   .     S
C6310  H6315   1.082   .     S
C6311  H6316   1.082   .     S
C6311  C7552   1.384   .     S
C6311  C6341   1.362   1_545 D
C6317  C6318   1.398   .     D
C6317  H6322   1.082   .     S
C6318  H6323   1.082   .     S
C6319  C6320   1.396   .     S
C6319  H6324   1.083   .     S
C6320  H6325   1.082   .     S
C6321  H6326   1.082   .     S
C6321  C7581   1.384   .     S
C6321  C6521   1.362   1_455 D
C6327  C6328   1.398   .     S
C6327  H6332   1.082   .     S
C6328  H6333   1.082   .     S
C6329  C6330   1.396   .     D
C6329  H6334   1.083   .     S
C6330  H6335   1.082   .     S
C6331  H6336   1.082   .     S
C6331  C7554   1.384   .     S
C6331  C6531   1.362   1_445 D
C6337  C6338   1.398   .     S
C6337  H6342   1.082   .     S
C6338  H6343   1.082   .     S
C6339  C6340   1.396   .     D
C6339  H6344   1.083   .     S
C6340  H6345   1.082   .     S
C6341  H6346   1.082   .     S
C6341  C7558   1.384   .     S
C6341  C6311   1.362   1_565 D
C6347  C6348   1.398   .     D
C6347  H6352   1.082   .     S
C6348  H6353   1.082   .     S
C6349  C6350   1.396   .     S
C6349  H6354   1.083   .     S
C6350  H6355   1.082   .     S
C6351  H6356   1.082   .     S
C6351  C7557   1.384   .     S
C6357  C6358   1.398   .     S
C6357  H6362   1.082   .     S
C6358  H6363   1.082   .     S
C6359  C6360   1.396   .     D
C6359  H6364   1.083   .     S
C6360  H6365   1.082   .     S
C6361  H6366   1.082   .     S
C6361  C7577   1.384   .     S
C6361  C6501   1.362   1_645 D
C6367  C6368   1.398   .     S
C6367  H6372   1.082   .     S
C6368  H6373   1.082   .     S
C6369  C6370   1.396   .     D
C6369  H6374   1.083   .     S
C6370  H6375   1.082   .     S
C6371  H6376   1.082   .     S
C6371  C7550   1.384   .     S
C6371  C6281   1.362   1_655 D
C6377  C6378   1.398   .     S
C6377  H6382   1.082   .     S
C6378  H6383   1.082   .     S
C6379  C6380   1.396   .     D
C6379  H6384   1.083   .     S
C6380  H6385   1.082   .     S
C6381  H6386   1.082   .     S
C6381  C7543   1.384   .     S
C6381  C6241   1.362   1_546 D
C6387  C6388   1.398   .     D
C6387  H6392   1.082   .     S
C6388  H6393   1.082   .     S
C6389  C6390   1.396   .     S
C6389  H6394   1.083   .     S
C6390  H6395   1.082   .     S
C6391  H6396   1.082   .     S
C6391  C7544   1.384   .     S
C6397  C6398   1.398   .     S
C6397  H6402   1.082   .     S
C6398  H6403   1.082   .     S
C6399  C6400   1.396   .     D
C6399  H6404   1.083   .     S
C6400  H6405   1.082   .     S
C6401  H6406   1.082   .     S
C6401  C7542   1.384   .     S
C6401  C6211   1.362   1_565 D
C6407  C6408   1.398   .     S
C6407  H6412   1.082   .     S
C6408  H6413   1.082   .     S
C6409  C6410   1.396   .     D
C6409  H6414   1.083   .     S
C6410  H6415   1.082   .     S
C6411  H6416   1.082   .     S
C6411  C7540   1.384   .     S
C6411  C6191   1.362   1_566 D
C6417  C6418   1.398   .     D
C6417  H6422   1.082   .     S
C6418  H6423   1.082   .     S
C6419  C6420   1.396   .     S
C6419  H6424   1.083   .     S
C6420  H6425   1.082   .     S
C6421  H6426   1.082   .     S
C6421  C7549   1.384   .     S
C6421  C6231   1.362   1_554 D
C6427  C6428   1.398   .     S
C6427  H6432   1.082   .     S
C6428  H6433   1.082   .     S
C6429  C6430   1.396   .     D
C6429  H6434   1.083   .     S
C6430  H6435   1.082   .     S
C6431  H6436   1.082   .     S
C6431  C7548   1.384   .     S
C6431  C6221   1.362   1_565 D
C6437  C6438   1.398   .     S
C6437  H6442   1.082   .     S
C6438  H6443   1.082   .     S
C6439  C6440   1.396   .     D
C6439  H6444   1.083   .     S
C6440  H6445   1.082   .     S
C6441  H6446   1.082   .     S
C6441  C7569   1.384   .     S
C6441  C6101   1.362   1_654 D
C6447  C6448   1.398   .     S
C6447  H6452   1.082   .     S
C6448  H6453   1.082   .     S
C6449  C6450   1.396   .     D
C6449  H6454   1.083   .     S
C6450  H6455   1.082   .     S
C6451  H6456   1.082   .     S
C6451  C7573   1.384   .     S
C6451  C6481   1.362   1_655 D
C6457  C6458   1.398   .     S
C6457  H6462   1.082   .     S
C6458  H6463   1.082   .     S
C6459  C6460   1.396   .     D
C6459  H6464   1.083   .     S
C6460  H6465   1.082   .     S
C6461  H6466   1.082   .     S
C6461  C7566   1.384   .     S
C6461  C6151   1.362   1_556 D
C6467  C6468   1.398   .     S
C6467  H6472   1.082   .     S
C6468  H6473   1.082   .     S
C6469  C6470   1.396   .     D
C6469  H6474   1.083   .     S
C6470  H6475   1.082   .     S
C6471  H6476   1.082   .     S
C6471  C7565   1.384   .     S
C6477  C6478   1.398   .     S
C6477  H6482   1.082   .     S
C6478  H6483   1.082   .     S
C6479  C6480   1.396   .     D
C6479  H6484   1.083   .     S
C6480  H6485   1.082   .     S
C6481  H6486   1.082   .     S
C6481  C7572   1.384   .     S
C6481  C6451   1.362   1_455 D
C6487  C6488   1.398   .     S
C6487  H6492   1.082   .     S
C6488  H6493   1.082   .     S
C6489  C6490   1.396   .     D
C6489  H6494   1.083   .     S
C6490  H6495   1.082   .     S
C6491  H6496   1.082   .     S
C6491  C7563   1.384   .     S
C6491  C6121   1.362   1_556 D
C6497  C6498   1.398   .     S
C6497  H6502   1.082   .     S
C6498  H6503   1.082   .     S
C6499  C6500   1.396   .     D
C6499  H6504   1.083   .     S
C6500  H6505   1.082   .     S
C6501  H6506   1.082   .     S
C6501  C7555   1.384   .     S
C6501  C6361   1.362   1_465 D
C6507  C6508   1.398   .     S
C6507  H6512   1.082   .     S
C6508  H6513   1.082   .     S
C6509  C6510   1.396   .     D
C6509  H6514   1.083   .     S
C6510  H6515   1.082   .     S
C6511  H6516   1.082   .     S
C6511  C7579   1.384   .     S
C6511  C6541   1.362   1_565 D
C6517  C6518   1.398   .     D
C6517  H6522   1.082   .     S
C6518  H6523   1.082   .     S
C6519  C6520   1.396   .     S
C6519  H6524   1.083   .     S
C6520  H6525   1.082   .     S
C6521  H6526   1.082   .     S
C6521  C7559   1.384   .     S
C6521  C6321   1.362   1_655 D
C6527  C6528   1.398   .     S
C6527  H6532   1.082   .     S
C6528  H6533   1.082   .     S
C6529  C6530   1.396   .     D
C6529  H6534   1.083   .     S
C6530  H6535   1.082   .     S
C6531  H6536   1.082   .     S
C6531  C7560   1.384   .     S
C6531  C6331   1.362   1_665 D
C6537  C6538   1.398   .     S
C6537  H6542   1.082   .     S
C6538  H6543   1.082   .     S
C6539  C6540   1.396   .     D
C6539  H6544   1.083   .     S
C6540  H6545   1.082   .     S
C6541  H6546   1.082   .     S
C6541  C7578   1.384   .     S
C6541  C6511   1.362   1_545 D
C6547  C6548   1.398   .     D
C6547  H6552   1.082   .     S
C6548  H6553   1.082   .     S
C6549  C6550   1.396   .     S
C6549  H6554   1.083   .     S
C6550  H6555   1.082   .     S
C6551  H6556   1.082   .     S
C6551  C7551   1.384   .     S
C6557  C6558   1.398   .     D
C6557  H6562   1.082   .     S
C6558  H6563   1.082   .     S
C6559  C6560   1.396   .     S
C6559  H6564   1.083   .     S
C6560  H6565   1.082   .     S
C6561  H6566   1.082   .     S
C6561  C7510   1.384   .     S
C6567  C6568   1.398   .     S
C6567  H6572   1.082   .     S
C6568  H6573   1.082   .     S
C6569  C6570   1.396   .     D
C6569  H6574   1.083   .     S
C6570  H6575   1.082   .     S
C6571  H6576   1.082   .     S
C6571  C7509   1.384   .     S
C6577  C6578   1.398   .     S
C6577  H6582   1.082   .     S
C6578  H6583   1.082   .     S
C6579  C6580   1.396   .     D
C6579  H6584   1.083   .     S
C6580  H6585   1.082   .     S
C6581  H6586   1.082   .     S
C6581  C7505   1.384   .     S
C6587  C6588   1.398   .     D
C6587  H6592   1.082   .     S
C6588  H6593   1.082   .     S
C6589  C6590   1.396   .     S
C6589  H6594   1.083   .     S
C6590  H6595   1.082   .     S
C6591  H6596   1.082   .     S
C6591  C6611   1.362   .     D
C6591  C7598   1.384   .     S
C6597  C6598   1.398   .     S
C6597  H6602   1.082   .     S
C6598  H6603   1.082   .     S
C6599  C6600   1.396   .     D
C6599  H6604   1.083   .     S
C6600  H6605   1.082   .     S
C6601  H6606   1.082   .     S
C6601  C7512   1.384   .     S
C6607  C6608   1.398   .     D
C6607  H6612   1.082   .     S
C6608  H6613   1.082   .     S
C6609  C6610   1.396   .     S
C6609  H6614   1.083   .     S
C6610  H6615   1.082   .     S
C6611  H6616   1.082   .     S
C6611  C7600   1.384   .     S
C6617  C6618   1.398   .     S
C6617  H6622   1.082   .     S
C6618  H6623   1.082   .     S
C6619  C6620   1.396   .     D
C6619  H6624   1.083   .     S
C6620  H6625   1.082   .     S
C6621  H6626   1.082   .     S
C6621  C7535   1.384   .     S
C6627  C6628   1.398   .     S
C6627  H6632   1.082   .     S
C6628  H6633   1.082   .     S
C6629  C6630   1.396   .     D
C6629  H6634   1.083   .     S
C6630  H6635   1.082   .     S
C6631  H6636   1.082   .     S
C6631  C7534   1.384   .     S
C6637  C6638   1.398   .     S
C6637  H6642   1.082   .     S
C6638  H6643   1.082   .     S
C6639  C6640   1.396   .     D
C6639  H6644   1.083   .     S
C6640  H6645   1.082   .     S
C6641  H6646   1.082   .     S
C6641  C7527   1.384   .     S
C6647  C6648   1.398   .     D
C6647  H6652   1.082   .     S
C6648  H6653   1.082   .     S
C6649  C6650   1.396   .     S
C6649  H6654   1.083   .     S
C6650  H6655   1.082   .     S
C6651  H6656   1.082   .     S
C6651  C7528   1.384   .     S
C6657  C6658   1.398   .     S
C6657  H6662   1.082   .     S
C6658  H6663   1.082   .     S
C6659  C6660   1.396   .     D
C6659  H6664   1.083   .     S
C6660  H6665   1.082   .     S
C6661  H6666   1.082   .     S
C6661  C7532   1.384   .     S
C6667  C6668   1.398   .     D
C6667  H6672   1.082   .     S
C6668  H6673   1.082   .     S
C6669  C6670   1.396   .     S
C6669  H6674   1.083   .     S
C6670  H6675   1.082   .     S
C6671  H6676   1.082   .     S
C6671  C7530   1.384   .     S
C6677  C6678   1.398   .     S
C6677  H6682   1.082   .     S
C6678  H6683   1.082   .     S
C6679  C6680   1.396   .     D
C6679  H6684   1.083   .     S
C6680  H6685   1.082   .     S
C6681  H6686   1.082   .     S
C6681  C6731   1.362   .     D
C6681  C7523   1.384   .     S
C6687  C6688   1.398   .     S
C6687  H6692   1.082   .     S
C6688  H6693   1.082   .     S
C6689  C6690   1.396   .     D
C6689  H6694   1.083   .     S
C6690  H6695   1.082   .     S
C6691  H6696   1.082   .     S
C6691  C7522   1.384   .     S
C6697  C6698   1.398   .     S
C6697  H6702   1.082   .     S
C6698  H6703   1.082   .     S
C6699  C6700   1.396   .     D
C6699  H6704   1.083   .     S
C6700  H6705   1.082   .     S
C6701  H6706   1.082   .     S
C6701  C7518   1.384   .     S
C6707  C6708   1.398   .     S
C6707  H6712   1.082   .     S
C6708  H6713   1.082   .     S
C6709  C6710   1.396   .     D
C6709  H6714   1.083   .     S
C6710  H6715   1.082   .     S
C6711  H6716   1.082   .     S
C6711  C7517   1.384   .     S
C6717  C6718   1.398   .     S
C6717  H6722   1.082   .     S
C6718  H6723   1.082   .     S
C6719  C6720   1.396   .     D
C6719  H6724   1.083   .     S
C6720  H6725   1.082   .     S
C6721  H6726   1.082   .     S
C6721  C7515   1.384   .     S
C6727  C6728   1.398   .     S
C6727  H6732   1.082   .     S
C6728  H6733   1.082   .     S
C6729  C6730   1.396   .     D
C6729  H6734   1.083   .     S
C6730  H6735   1.082   .     S
C6731  H6736   1.082   .     S
C6731  C7591   1.384   .     S
C6737  C6738   1.397   .     S
C6737  H6741   1.083   .     S
C6738  H6742   1.082   .     S
C6739  C6740   1.396   .     D
C6739  H6743   1.084   .     S
C6740  H6744   1.082   .     S
C6745  C6746   1.397   .     S
C6745  H6749   1.083   .     S
C6746  H6750   1.082   .     S
C6747  C6748   1.396   .     D
C6747  H6751   1.084   .     S
C6748  H6752   1.082   .     S
C6753  C6754   1.397   .     S
C6753  H6757   1.083   .     S
C6754  H6758   1.082   .     S
C6755  C6756   1.396   .     D
C6755  H6759   1.084   .     S
C6756  H6760   1.082   .     S
C6761  C6762   1.397   .     S
C6761  H6765   1.083   .     S
C6762  H6766   1.082   .     S
C6763  C6764   1.396   .     D
C6763  H6767   1.084   .     S
C6764  H6768   1.082   .     S
C6769  C6770   1.397   .     S
C6769  H6773   1.083   .     S
C6770  H6774   1.082   .     S
C6771  C6772   1.396   .     D
C6771  H6775   1.084   .     S
C6772  H6776   1.082   .     S
C6777  C6778   1.397   .     S
C6777  H6781   1.083   .     S
C6778  H6782   1.082   .     S
C6779  C6780   1.396   .     D
C6779  H6783   1.084   .     S
C6780  H6784   1.082   .     S
C6785  C6786   1.397   .     S
C6785  H6789   1.083   .     S
C6786  H6790   1.082   .     S
C6787  C6788   1.396   .     D
C6787  H6791   1.084   .     S
C6788  H6792   1.082   .     S
C6793  C6794   1.397   .     S
C6793  H6797   1.083   .     S
C6794  H6798   1.082   .     S
C6795  C6796   1.396   .     D
C6795  H6799   1.084   .     S
C6796  H6800   1.082   .     S
C6801  C6802   1.397   .     S
C6801  H6805   1.083   .     S
C6802  H6806   1.082   .     S
C6803  C6804   1.396   .     D
C6803  H6807   1.084   .     S
C6804  H6808   1.082   .     S
C6809  C6810   1.397   .     S
C6809  H6813   1.083   .     S
C6810  H6814   1.082   .     S
C6811  C6812   1.396   .     D
C6811  H6815   1.084   .     S
C6812  H6816   1.082   .     S
C6817  C6818   1.397   .     S
C6817  H6821   1.083   .     S
C6818  H6822   1.082   .     S
C6819  C6820   1.396   .     D
C6819  H6823   1.084   .     S
C6820  H6824   1.082   .     S
C6825  C6826   1.397   .     S
C6825  H6829   1.083   .     S
C6826  H6830   1.082   .     S
C6827  C6828   1.396   .     D
C6827  H6831   1.084   .     S
C6828  H6832   1.082   .     S
C6833  C6834   1.397   .     S
C6833  H6837   1.083   .     S
C6834  H6838   1.082   .     S
C6835  C6836   1.396   .     D
C6835  H6839   1.084   .     S
C6836  H6840   1.082   .     S
C6841  C6842   1.397   .     S
C6841  H6845   1.083   .     S
C6842  H6846   1.082   .     S
C6843  C6844   1.396   .     D
C6843  H6847   1.084   .     S
C6844  H6848   1.082   .     S
C6849  C6850   1.397   .     S
C6849  H6853   1.083   .     S
C6850  H6854   1.082   .     S
C6851  C6852   1.396   .     D
C6851  H6855   1.084   .     S
C6852  H6856   1.082   .     S
C6857  C6858   1.397   .     S
C6857  H6861   1.083   .     S
C6858  H6862   1.082   .     S
C6859  C6860   1.396   .     D
C6859  H6863   1.084   .     S
C6860  H6864   1.082   .     S
C6865  C6866   1.397   .     S
C6865  H6869   1.083   .     S
C6866  H6870   1.082   .     S
C6867  C6868   1.396   .     D
C6867  H6871   1.084   .     S
C6868  H6872   1.082   .     S
C6873  C6874   1.397   .     S
C6873  H6877   1.083   .     S
C6874  H6878   1.082   .     S
C6875  C6876   1.396   .     D
C6875  H6879   1.084   .     S
C6876  H6880   1.082   .     S
C6881  C6882   1.397   .     S
C6881  H6885   1.083   .     S
C6882  H6886   1.082   .     S
C6883  C6884   1.396   .     D
C6883  H6887   1.084   .     S
C6884  H6888   1.082   .     S
C6889  C6890   1.397   .     S
C6889  H6893   1.083   .     S
C6890  H6894   1.082   .     S
C6891  C6892   1.396   .     D
C6891  H6895   1.084   .     S
C6892  H6896   1.082   .     S
C6897  C6898   1.397   .     S
C6897  H6901   1.083   .     S
C6898  H6902   1.082   .     S
C6899  C6900   1.396   .     D
C6899  H6903   1.084   .     S
C6900  H6904   1.082   .     S
C6905  C6906   1.397   .     S
C6905  H6909   1.083   .     S
C6906  H6910   1.082   .     S
C6907  C6908   1.396   .     D
C6907  H6911   1.084   .     S
C6908  H6912   1.082   .     S
C6913  C6914   1.397   .     S
C6913  H6917   1.083   .     S
C6914  H6918   1.082   .     S
C6915  C6916   1.396   .     D
C6915  H6919   1.084   .     S
C6916  H6920   1.082   .     S
C6921  C6922   1.397   .     S
C6921  H6925   1.083   .     S
C6922  H6926   1.082   .     S
C6923  C6924   1.396   .     D
C6923  H6927   1.084   .     S
C6924  H6928   1.082   .     S
C6929  C6930   1.397   .     S
C6929  H6933   1.083   .     S
C6930  H6934   1.082   .     S
C6931  C6932   1.396   .     D
C6931  H6935   1.084   .     S
C6932  H6936   1.082   .     S
C6937  C6938   1.397   .     S
C6937  H6941   1.083   .     S
C6938  H6942   1.082   .     S
C6939  C6940   1.396   .     D
C6939  H6943   1.084   .     S
C6940  H6944   1.082   .     S
C6945  C6946   1.397   .     S
C6945  H6949   1.083   .     S
C6946  H6950   1.082   .     S
C6947  C6948   1.396   .     D
C6947  H6951   1.084   .     S
C6948  H6952   1.082   .     S
C6953  C6954   1.397   .     S
C6953  H6957   1.083   .     S
C6954  H6958   1.082   .     S
C6955  C6956   1.396   .     D
C6955  H6959   1.084   .     S
C6956  H6960   1.082   .     S
C6961  C6962   1.397   .     S
C6961  H6965   1.083   .     S
C6962  H6966   1.082   .     S
C6963  C6964   1.396   .     D
C6963  H6967   1.084   .     S
C6964  H6968   1.082   .     S
C6969  C6970   1.397   .     S
C6969  H6973   1.083   .     S
C6970  H6974   1.082   .     S
C6971  C6972   1.396   .     D
C6971  H6975   1.084   .     S
C6972  H6976   1.082   .     S
C6977  C6978   1.397   .     S
C6977  H6981   1.083   .     S
C6978  H6982   1.082   .     S
C6979  C6980   1.396   .     D
C6979  H6983   1.084   .     S
C6980  H6984   1.082   .     S
C6985  C6986   1.397   .     S
C6985  H6989   1.083   .     S
C6986  H6990   1.082   .     S
C6987  C6988   1.396   .     D
C6987  H6991   1.084   .     S
C6988  H6992   1.082   .     S
C6993  C6994   1.397   .     S
C6993  H6997   1.083   .     S
C6994  H6998   1.082   .     S
C6995  C6996   1.396   .     D
C6995  H6999   1.084   .     S
C6996  H7000   1.082   .     S
C7001  C7002   1.397   .     D
C7001  H7005   1.083   .     S
C7002  H7006   1.082   .     S
C7003  C7004   1.396   .     S
C7003  H7007   1.084   .     S
C7004  H7008   1.082   .     S
C7009  C7010   1.397   .     S
C7009  H7013   1.083   .     S
C7010  H7014   1.082   .     S
C7011  C7012   1.396   .     D
C7011  H7015   1.084   .     S
C7012  H7016   1.082   .     S
C7017  C7018   1.397   .     S
C7017  H7021   1.083   .     S
C7018  H7022   1.082   .     S
C7019  C7020   1.396   .     D
C7019  H7023   1.084   .     S
C7020  H7024   1.082   .     S
C7025  C7026   1.397   .     S
C7025  H7029   1.083   .     S
C7026  H7030   1.082   .     S
C7027  C7028   1.396   .     D
C7027  H7031   1.084   .     S
C7028  H7032   1.082   .     S
C7033  C7034   1.397   .     S
C7033  H7037   1.083   .     S
C7034  H7038   1.082   .     S
C7035  C7036   1.396   .     D
C7035  H7039   1.084   .     S
C7036  H7040   1.082   .     S
C7041  C7042   1.397   .     S
C7041  H7045   1.083   .     S
C7042  H7046   1.082   .     S
C7043  C7044   1.396   .     D
C7043  H7047   1.084   .     S
C7044  H7048   1.082   .     S
C7049  C7050   1.397   .     S
C7049  H7053   1.083   .     S
C7050  H7054   1.082   .     S
C7051  C7052   1.396   .     D
C7051  H7055   1.084   .     S
C7052  H7056   1.082   .     S
C7057  C7058   1.397   .     S
C7057  H7061   1.083   .     S
C7058  H7062   1.082   .     S
C7059  C7060   1.396   .     D
C7059  H7063   1.084   .     S
C7060  H7064   1.082   .     S
C7065  C7066   1.397   .     S
C7065  H7069   1.083   .     S
C7066  H7070   1.082   .     S
C7067  C7068   1.396   .     D
C7067  H7071   1.084   .     S
C7068  H7072   1.082   .     S
C7073  C7074   1.397   .     D
C7073  H7077   1.083   .     S
C7074  H7078   1.082   .     S
C7075  C7076   1.396   .     S
C7075  H7079   1.084   .     S
C7076  H7080   1.082   .     S
C7081  C7082   1.397   .     S
C7081  H7085   1.083   .     S
C7082  H7086   1.082   .     S
C7083  C7084   1.396   .     D
C7083  H7087   1.084   .     S
C7084  H7088   1.082   .     S
C7089  C7090   1.397   .     S
C7089  H7093   1.083   .     S
C7090  H7094   1.082   .     S
C7091  C7092   1.396   .     D
C7091  H7095   1.084   .     S
C7092  H7096   1.082   .     S
C7097  C7098   1.397   .     S
C7097  H7101   1.083   .     S
C7098  H7102   1.082   .     S
C7099  C7100   1.396   .     D
C7099  H7103   1.084   .     S
C7100  H7104   1.082   .     S
C7105  C7106   1.397   .     S
C7105  H7109   1.083   .     S
C7106  H7110   1.082   .     S
C7107  C7108   1.396   .     D
C7107  H7111   1.084   .     S
C7108  H7112   1.082   .     S
C7113  C7114   1.397   .     S
C7113  H7117   1.083   .     S
C7114  H7118   1.082   .     S
C7115  C7116   1.396   .     D
C7115  H7119   1.084   .     S
C7116  H7120   1.082   .     S
C7121  C7122   1.397   .     S
C7121  H7125   1.083   .     S
C7122  H7126   1.082   .     S
C7123  C7124   1.396   .     D
C7123  H7127   1.084   .     S
C7124  H7128   1.082   .     S
C7129  C7130   1.397   .     S
C7129  H7133   1.083   .     S
C7130  H7134   1.082   .     S
C7131  C7132   1.396   .     D
C7131  H7135   1.084   .     S
C7132  H7136   1.082   .     S
C7137  C7138   1.397   .     S
C7137  H7141   1.083   .     S
C7138  H7142   1.082   .     S
C7139  C7140   1.396   .     D
C7139  H7143   1.084   .     S
C7140  H7144   1.082   .     S
C7145  C7146   1.397   .     S
C7145  H7149   1.083   .     S
C7146  H7150   1.082   .     S
C7147  C7148   1.396   .     D
C7147  H7151   1.084   .     S
C7148  H7152   1.082   .     S
C7153  C7154   1.397   .     S
C7153  H7157   1.083   .     S
C7154  H7158   1.082   .     S
C7155  C7156   1.396   .     D
C7155  H7159   1.084   .     S
C7156  H7160   1.082   .     S
C7161  C7162   1.397   .     S
C7161  H7165   1.083   .     S
C7162  H7166   1.082   .     S
C7163  C7164   1.396   .     D
C7163  H7167   1.084   .     S
C7164  H7168   1.082   .     S
C7169  C7170   1.397   .     S
C7169  H7173   1.083   .     S
C7170  H7174   1.082   .     S
C7171  C7172   1.396   .     D
C7171  H7175   1.084   .     S
C7172  H7176   1.082   .     S
C7177  C7178   1.397   .     S
C7177  H7181   1.083   .     S
C7178  H7182   1.082   .     S
C7179  C7180   1.396   .     D
C7179  H7183   1.084   .     S
C7180  H7184   1.082   .     S
C7185  C7186   1.397   .     S
C7185  H7189   1.083   .     S
C7186  H7190   1.082   .     S
C7187  C7188   1.396   .     D
C7187  H7191   1.084   .     S
C7188  H7192   1.082   .     S
C7193  C7194   1.397   .     S
C7193  H7197   1.083   .     S
C7194  H7198   1.082   .     S
C7195  C7196   1.396   .     D
C7195  H7199   1.084   .     S
C7196  H7200   1.082   .     S
C7201  C7202   1.397   .     S
C7201  H7205   1.083   .     S
C7202  H7206   1.082   .     S
C7203  C7204   1.396   .     D
C7203  H7207   1.084   .     S
C7204  H7208   1.082   .     S
C7209  C7210   1.397   .     S
C7209  H7213   1.083   .     S
C7210  H7214   1.082   .     S
C7211  C7212   1.396   .     D
C7211  H7215   1.084   .     S
C7212  H7216   1.082   .     S
C7217  C7218   1.397   .     S
C7217  H7221   1.083   .     S
C7218  H7222   1.082   .     S
C7219  C7220   1.396   .     D
C7219  H7223   1.084   .     S
C7220  H7224   1.082   .     S
C7225  C7226   1.397   .     S
C7225  H7229   1.083   .     S
C7226  H7230   1.082   .     S
C7227  C7228   1.396   .     D
C7227  H7231   1.084   .     S
C7228  H7232   1.082   .     S
C7233  C7234   1.397   .     S
C7233  H7237   1.083   .     S
C7234  H7238   1.082   .     S
C7235  C7236   1.396   .     D
C7235  H7239   1.084   .     S
C7236  H7240   1.082   .     S
C7241  C7242   1.397   .     S
C7241  H7245   1.083   .     S
C7242  H7246   1.082   .     S
C7243  C7244   1.396   .     D
C7243  H7247   1.084   .     S
C7244  H7248   1.082   .     S
C7249  C7250   1.397   .     S
C7249  H7253   1.083   .     S
C7250  H7254   1.082   .     S
C7251  C7252   1.396   .     D
C7251  H7255   1.084   .     S
C7252  H7256   1.082   .     S
C7257  C7258   1.397   .     S
C7257  H7261   1.083   .     S
C7258  H7262   1.082   .     S
C7259  C7260   1.396   .     D
C7259  H7263   1.084   .     S
C7260  H7264   1.082   .     S
C7265  C7266   1.397   .     S
C7265  H7269   1.083   .     S
C7266  H7270   1.082   .     S
C7267  C7268   1.396   .     D
C7267  H7271   1.084   .     S
C7268  H7272   1.082   .     S
C7273  C7274   1.397   .     S
C7273  H7277   1.083   .     S
C7274  H7278   1.082   .     S
C7275  C7276   1.396   .     D
C7275  H7279   1.084   .     S
C7276  H7280   1.082   .     S
C7281  C7282   1.397   .     D
C7281  H7285   1.083   .     S
C7282  H7286   1.082   .     S
C7283  C7284   1.396   .     S
C7283  H7287   1.084   .     S
C7284  H7288   1.082   .     S
C7289  C7290   1.397   .     S
C7289  H7293   1.083   .     S
C7290  H7294   1.082   .     S
C7291  C7292   1.396   .     D
C7291  H7295   1.084   .     S
C7292  H7296   1.082   .     S
C7297  C7298   1.397   .     S
C7297  H7301   1.083   .     S
C7298  H7302   1.082   .     S
C7299  C7300   1.396   .     D
C7299  H7303   1.084   .     S
C7300  H7304   1.082   .     S
C7305  C7306   1.397   .     S
C7305  H7309   1.083   .     S
C7306  H7310   1.082   .     S
C7307  C7308   1.396   .     D
C7307  H7311   1.084   .     S
C7308  H7312   1.082   .     S
C7313  C7314   1.397   .     D
C7313  H7317   1.083   .     S
C7314  H7318   1.082   .     S
C7315  C7316   1.396   .     S
C7315  H7319   1.084   .     S
C7316  H7320   1.082   .     S
C7321  C7322   1.397   .     S
C7321  H7325   1.083   .     S
C7322  H7326   1.082   .     S
C7323  C7324   1.396   .     D
C7323  H7327   1.084   .     S
C7324  H7328   1.082   .     S
C7329  C7330   1.397   .     S
C7329  H7333   1.083   .     S
C7330  H7334   1.082   .     S
C7331  C7332   1.396   .     D
C7331  H7335   1.084   .     S
C7332  H7336   1.082   .     S
C7337  C7338   1.397   .     S
C7337  H7341   1.083   .     S
C7338  H7342   1.082   .     S
C7339  C7340   1.396   .     D
C7339  H7343   1.084   .     S
C7340  H7344   1.082   .     S
C7345  C7346   1.397   .     S
C7345  H7349   1.083   .     S
C7346  H7350   1.082   .     S
C7347  C7348   1.396   .     D
C7347  H7351   1.084   .     S
C7348  H7352   1.082   .     S
C7353  C7354   1.397   .     D
C7353  H7357   1.083   .     S
C7354  H7358   1.082   .     S
C7355  C7356   1.396   .     S
C7355  H7359   1.084   .     S
C7356  H7360   1.082   .     S
C7361  C7362   1.397   .     S
C7361  H7365   1.083   .     S
C7362  H7366   1.082   .     S
C7363  C7364   1.396   .     D
C7363  H7367   1.084   .     S
C7364  H7368   1.082   .     S
C7369  C7370   1.397   .     S
C7369  H7373   1.083   .     S
C7370  H7374   1.082   .     S
C7371  C7372   1.396   .     D
C7371  H7375   1.084   .     S
C7372  H7376   1.082   .     S
C7377  C7378   1.397   .     S
C7377  H7381   1.083   .     S
C7378  H7382   1.082   .     S
C7379  C7380   1.396   .     D
C7379  H7383   1.084   .     S
C7380  H7384   1.082   .     S
C7385  C7386   1.397   .     S
C7385  H7389   1.083   .     S
C7386  H7390   1.082   .     S
C7387  C7388   1.396   .     D
C7387  H7391   1.084   .     S
C7388  H7392   1.082   .     S
C7393  C7394   1.397   .     S
C7393  H7397   1.083   .     S
C7394  H7398   1.082   .     S
C7395  C7396   1.396   .     D
C7395  H7399   1.084   .     S
C7396  H7400   1.082   .     S
C7401  C7402   1.397   .     S
C7401  H7405   1.083   .     S
C7402  H7406   1.082   .     S
C7403  C7404   1.396   .     D
C7403  H7407   1.084   .     S
C7404  H7408   1.082   .     S
C7409  C7410   1.397   .     S
C7409  H7413   1.083   .     S
C7410  H7414   1.082   .     S
C7411  C7412   1.396   .     D
C7411  H7415   1.084   .     S
C7412  H7416   1.082   .     S
C7417  C7418   1.397   .     S
C7417  H7421   1.083   .     S
C7418  H7422   1.082   .     S
C7419  C7420   1.396   .     D
C7419  H7423   1.084   .     S
C7420  H7424   1.082   .     S
C7425  C7426   1.397   .     D
C7425  H7429   1.083   .     S
C7426  H7430   1.082   .     S
C7427  C7428   1.396   .     S
C7427  H7431   1.084   .     S
C7428  H7432   1.082   .     S
C7433  C7434   1.397   .     S
C7433  H7437   1.083   .     S
C7434  H7438   1.082   .     S
C7435  C7436   1.396   .     D
C7435  H7439   1.084   .     S
C7436  H7440   1.082   .     S
C7441  C7442   1.397   .     S
C7441  H7445   1.083   .     S
C7442  H7446   1.082   .     S
C7443  C7444   1.396   .     D
C7443  H7447   1.084   .     S
C7444  H7448   1.082   .     S
C7449  C7450   1.397   .     D
C7449  H7453   1.083   .     S
C7450  H7454   1.082   .     S
C7451  C7452   1.396   .     S
C7451  H7455   1.084   .     S
C7452  H7456   1.082   .     S
C7457  C7458   1.397   .     S
C7457  H7461   1.083   .     S
C7458  H7462   1.082   .     S
C7459  C7460   1.396   .     D
C7459  H7463   1.084   .     S
C7460  H7464   1.082   .     S
C7465  C7466   1.397   .     S
C7465  H7469   1.083   .     S
C7466  H7470   1.082   .     S
C7467  C7468   1.396   .     D
C7467  H7471   1.084   .     S
C7468  H7472   1.082   .     S
C7473  C7474   1.397   .     S
C7473  H7477   1.083   .     S
C7474  H7478   1.082   .     S
C7475  C7476   1.396   .     D
C7475  H7479   1.084   .     S
C7476  H7480   1.082   .     S
C7481  C7482   1.397   .     S
C7481  H7485   1.083   .     S
C7482  H7486   1.082   .     S
C7483  C7484   1.396   .     D
C7483  H7487   1.084   .     S
C7484  H7488   1.082   .     S
C7489  C7490   1.397   .     D
C7489  H7493   1.083   .     S
C7490  H7494   1.082   .     S
C7491  C7492   1.396   .     S
C7491  H7495   1.084   .     S
C7492  H7496   1.082   .     S
C7497  C7498   1.397   .     S
C7497  H7501   1.083   .     S
C7498  H7502   1.082   .     S
C7499  C7500   1.396   .     D
C7499  H7503   1.084   .     S
C7500  H7504   1.082   .     S
C7540  N3091   1.355   1_566 S
C7541  N3094   1.355   1_556 D
C7542  N3113   1.355   1_565 D
C7543  N3092   1.355   1_556 S
C7548  N3095   1.355   1_565 D
C7550  N3096   1.355   1_655 D
C7555  N3099   1.355   1_565 S
C7558  N3097   1.355   1_565 D
C7559  N3111   1.355   1_655 D
C7560  N3098   1.355   1_665 S
C7563  N3103   1.355   1_556 D
C7566  N3108   1.355   1_556 D
C7567  N3102   1.355   1_656 S
C7568  N3101   1.355   1_655 S
C7569  N3106   1.355   1_655 D
C7571  N3106   1.355   1_556 S
C7573  N3107   1.355   1_655 D
C7577  N3099   1.355   1_655 D
C7579  N3109   1.355   1_565 D
C7582  N3092   1.355   1_565 D
C7584  N3112   1.355   1_556 D
C7601  C7602   1.384   .     S
C7601  N7889   1.355   .     D
C7602  H7603   1.082   .     S
C7602  C7611   1.362   1_545 D
C7604  C7605   1.384   .     S
C7604  N7890   1.355   1_655 S
C7605  H7606   1.082   .     S
C7605  C7845   1.362   1_645 D
C7607  C7608   1.384   .     S
C7607  N7891   1.355   .     S
C7608  H7609   1.082   .     S
C7608  C7836   1.362   .     D
C7610  C7611   1.384   .     S
C7610  N7889   1.355   1_565 S
C7611  H7612   1.082   .     S
C7611  C7602   1.362   1_565 D
C7613  C7614   1.384   .     S
C7613  N7892   1.355   .     D
C7614  H7615   1.082   .     S
C7614  C7623   1.362   1_455 D
C7616  C7617   1.384   .     S
C7616  N7893   1.355   .     S
C7617  H7618   1.082   .     S
C7617  C7620   1.362   1_445 D
C7619  C7620   1.384   .     S
C7619  N7893   1.355   1_665 D
C7620  H7621   1.082   .     S
C7620  C7617   1.362   1_665 D
C7622  C7623   1.384   .     S
C7622  N7892   1.355   1_655 S
C7623  H7624   1.082   .     S
C7623  C7614   1.362   1_655 D
C7625  C7626   1.384   .     S
C7625  N7931   1.355   1_565 S
C7626  H7627   1.082   .     S
C7626  C7848   1.362   1_565 D
C7628  C7629   1.384   .     S
C7628  N7932   1.355   .     S
C7629  H7630   1.082   .     S
C7629  C7851   1.362   .     D
C7631  C7632   1.384   .     S
C7631  N7894   1.355   .     D
C7632  H7633   1.082   .     S
C7632  C7887   1.362   1_554 D
C7634  C7635   1.384   .     S
C7634  N7936   1.355   1_565 S
C7635  H7636   1.082   .     S
C7635  C7884   1.362   1_565 D
C7637  C7638   1.384   .     S
C7637  N7895   1.355   .     D
C7638  H7639   1.082   .     S
C7638  C7878   1.362   .     D
C7640  C7641   1.384   .     S
C7640  N7896   1.355   1_556 D
C7641  H7642   1.082   .     S
C7641  C7881   1.362   1_546 D
C7643  C7644   1.384   .     S
C7643  N7897   1.355   .     D
C7644  H7645   1.082   .     S
C7644  C7656   1.362   1_545 D
C7646  C7647   1.384   .     S
C7646  N7898   1.355   .     S
C7647  H7648   1.082   .     S
C7647  C7650   1.362   1_544 D
C7649  C7650   1.384   .     S
C7649  N7898   1.355   1_566 D
C7650  H7651   1.082   .     S
C7650  C7647   1.362   1_566 D
C7652  C7653   1.384   .     S
C7652  N7899   1.355   .     S
C7653  H7654   1.082   .     S
C7653  C7875   1.362   .     D
C7655  C7656   1.384   .     S
C7655  N7897   1.355   1_565 S
C7656  H7657   1.082   .     S
C7656  C7644   1.362   1_565 D
C7658  C7659   1.384   .     S
C7658  N7935   1.355   1_556 S
C7659  H7660   1.082   .     S
C7659  C7872   1.362   1_556 D
C7661  C7662   1.384   .     S
C7661  N7900   1.355   .     D
C7662  H7663   1.082   .     S
C7662  C7863   1.362   1_455 D
C7664  C7665   1.384   .     S
C7664  N7901   1.355   1_556 D
C7665  H7666   1.082   .     S
C7665  C7671   1.362   1_456 D
C7667  C7668   1.384   .     S
C7667  N7902   1.355   .     D
C7668  H7669   1.082   .     S
C7668  C7866   1.362   .     D
C7670  C7671   1.384   .     S
C7670  N7901   1.355   1_655 S
C7671  H7672   1.082   .     S
C7671  C7665   1.362   1_654 D
C7673  C7674   1.384   .     S
C7673  N7903   1.355   .     D
C7674  H7675   1.082   .     S
C7674  C7689   1.362   1_554 D
C7676  C7677   1.384   .     S
C7676  N7904   1.355   .     S
C7677  H7678   1.082   .     S
C7677  C7686   1.362   .     D
C7679  C7680   1.384   .     S
C7679  N7905   1.355   1_656 D
C7680  H7681   1.082   .     S
C7680  C7857   1.362   1_656 D
C7682  C7683   1.384   .     S
C7682  N7933   1.355   1_655 D
C7683  H7684   1.082   .     S
C7683  C7854   1.362   1_655 D
C7685  C7686   1.384   .     S
C7685  N7904   1.355   .     D
C7686  H7687   1.082   .     S
C7688  C7689   1.384   .     S
C7688  N7903   1.355   1_556 S
C7689  H7690   1.082   .     S
C7689  C7674   1.362   1_556 D
C7691  C7692   1.384   .     S
C7691  N7906   1.355   .     D
C7692  H7693   1.082   .     S
C7692  C7788   1.362   .     D
C7694  C7695   1.384   .     S
C7694  N7907   1.355   .     S
C7695  H7696   1.082   .     S
C7695  C7698   1.362   .     D
C7697  C7698   1.384   .     S
C7697  N7907   1.355   .     D
C7698  H7699   1.082   .     S
C7700  C7701   1.384   .     S
C7700  N7908   1.355   .     D
C7701  H7702   1.082   .     S
C7701  C7785   1.362   .     D
C7703  C7704   1.384   .     S
C7703  N7909   1.355   .     D
C7704  H7705   1.082   .     S
C7704  C7797   1.362   .     D
C7706  C7707   1.384   .     S
C7706  N7923   1.355   .     D
C7707  H7708   1.082   .     S
C7707  C7794   1.362   .     D
C7709  C7710   1.384   .     S
C7709  N7910   1.355   .     S
C7710  H7711   1.082   .     S
C7710  C7716   1.362   .     D
C7712  C7713   1.384   .     S
C7712  N7911   1.355   .     D
C7713  H7714   1.082   .     S
C7713  C7719   1.362   .     D
C7715  C7716   1.384   .     S
C7715  N7910   1.355   .     D
C7716  H7717   1.082   .     S
C7718  C7719   1.384   .     S
C7718  N7911   1.355   .     S
C7719  H7720   1.082   .     S
C7721  C7722   1.384   .     S
C7721  N7912   1.355   .     D
C7722  H7723   1.082   .     S
C7722  C7731   1.362   .     D
C7724  C7725   1.384   .     S
C7724  N7913   1.355   .     S
C7725  H7726   1.082   .     S
C7725  C7728   1.362   .     D
C7727  C7728   1.384   .     S
C7727  N7913   1.355   .     D
C7728  H7729   1.082   .     S
C7730  C7731   1.384   .     S
C7730  N7912   1.355   .     S
C7731  H7732   1.082   .     S
C7733  C7734   1.384   .     S
C7733  N7929   1.355   .     S
C7734  H7735   1.082   .     S
C7734  C7833   1.362   .     D
C7736  C7737   1.384   .     S
C7736  N7928   1.355   .     D
C7737  H7738   1.082   .     S
C7737  C7830   1.362   .     D
C7739  C7740   1.384   .     S
C7739  N7914   1.355   .     D
C7740  H7741   1.082   .     S
C7740  C7749   1.362   .     D
C7742  C7743   1.384   .     S
C7742  N7926   1.355   .     D
C7743  H7744   1.082   .     S
C7743  C7818   1.362   .     D
C7745  C7746   1.384   .     S
C7745  N7915   1.355   .     S
C7746  H7747   1.082   .     S
C7746  C7824   1.362   .     D
C7748  C7749   1.384   .     S
C7748  N7914   1.355   .     S
C7749  H7750   1.082   .     S
C7751  C7752   1.384   .     S
C7751  N7916   1.355   .     D
C7752  H7753   1.082   .     S
C7752  C7815   1.362   .     D
C7754  C7755   1.384   .     S
C7754  N7917   1.355   .     S
C7755  H7756   1.082   .     S
C7755  C7767   1.362   .     D
C7757  C7758   1.384   .     S
C7757  N7925   1.355   .     S
C7758  H7759   1.082   .     S
C7758  C7812   1.362   .     D
C7760  C7761   1.384   .     S
C7760  N7918   1.355   .     D
C7761  H7762   1.082   .     S
C7761  C7764   1.362   .     D
C7763  C7764   1.384   .     S
C7763  N7918   1.355   .     S
C7764  H7765   1.082   .     S
C7766  C7767   1.384   .     S
C7766  N7917   1.355   .     D
C7767  H7768   1.082   .     S
C7769  C7770   1.384   .     S
C7769  N7919   1.355   .     D
C7770  H7771   1.082   .     S
C7770  C7806   1.362   .     D
C7772  C7773   1.384   .     S
C7772  N7920   1.355   .     D
C7773  H7774   1.082   .     S
C7773  C7809   1.362   .     D
C7775  C7776   1.384   .     S
C7775  N7921   1.355   .     D
C7776  H7777   1.082   .     S
C7776  C7803   1.362   .     D
C7778  C7779   1.384   .     S
C7778  N7924   1.355   .     S
C7779  H7780   1.082   .     S
C7779  C7800   1.362   .     D
C7781  C7782   1.384   .     S
C7781  N7922   1.355   .     D
C7782  H7783   1.082   .     S
C7782  C7791   1.362   .     D
C7784  C7785   1.384   .     S
C7784  N7908   1.355   .     S
C7785  H7786   1.082   .     S
C7787  C7788   1.384   .     S
C7787  N7906   1.355   .     S
C7788  H7789   1.082   .     S
C7790  C7791   1.384   .     S
C7790  N7922   1.355   .     S
C7791  H7792   1.082   .     S
C7793  C7794   1.384   .     S
C7793  N7923   1.355   .     S
C7794  H7795   1.082   .     S
C7796  C7797   1.384   .     S
C7796  N7909   1.355   .     S
C7797  H7798   1.082   .     S
C7799  C7800   1.384   .     S
C7799  N7924   1.355   .     D
C7800  H7801   1.082   .     S
C7802  C7803   1.384   .     S
C7802  N7921   1.355   .     S
C7803  H7804   1.082   .     S
C7805  C7806   1.384   .     S
C7805  N7919   1.355   .     S
C7806  H7807   1.082   .     S
C7808  C7809   1.384   .     S
C7808  N7920   1.355   .     S
C7809  H7810   1.082   .     S
C7811  C7812   1.384   .     S
C7811  N7925   1.355   .     D
C7812  H7813   1.082   .     S
C7814  C7815   1.384   .     S
C7814  N7916   1.355   .     S
C7815  H7816   1.082   .     S
C7817  C7818   1.384   .     S
C7817  N7926   1.355   .     S
C7818  H7819   1.082   .     S
C7820  C7821   1.384   .     S
C7820  N7927   1.355   .     D
C7821  H7822   1.082   .     S
C7821  C7827   1.362   .     D
C7823  C7824   1.384   .     S
C7823  N7915   1.355   .     D
C7824  H7825   1.082   .     S
C7826  C7827   1.384   .     S
C7826  N7927   1.355   .     S
C7827  H7828   1.082   .     S
C7829  C7830   1.384   .     S
C7829  N7928   1.355   .     S
C7830  H7831   1.082   .     S
C7832  C7833   1.384   .     S
C7832  N7929   1.355   .     D
C7833  H7834   1.082   .     S
C7835  C7836   1.384   .     S
C7835  N7891   1.355   .     D
C7836  H7837   1.082   .     S
C7838  C7839   1.384   .     S
C7838  N7930   1.355   1_655 S
C7839  H7840   1.082   .     S
C7839  C7842   1.362   1_655 D
C7841  C7842   1.384   .     S
C7841  N7930   1.355   .     D
C7842  H7843   1.082   .     S
C7842  C7839   1.362   1_455 D
C7844  C7845   1.384   .     S
C7844  N7890   1.355   1_565 D
C7845  H7846   1.082   .     S
C7845  C7605   1.362   1_465 D
C7847  C7848   1.384   .     S
C7847  N7931   1.355   .     D
C7848  H7849   1.082   .     S
C7848  C7626   1.362   1_545 D
C7850  C7851   1.384   .     S
C7850  N7932   1.355   .     D
C7851  H7852   1.082   .     S
C7853  C7854   1.384   .     S
C7853  N7933   1.355   .     S
C7854  H7855   1.082   .     S
C7854  C7683   1.362   1_455 D
C7856  C7857   1.384   .     S
C7856  N7905   1.355   .     S
C7857  H7858   1.082   .     S
C7857  C7680   1.362   1_454 D
C7859  C7860   1.384   .     S
C7859  N7934   1.355   .     D
C7860  H7861   1.082   .     S
C7860  C7869   1.362   1_554 D
C7862  C7863   1.384   .     S
C7862  N7900   1.355   1_655 S
C7863  H7864   1.082   .     S
C7863  C7662   1.362   1_655 D
C7865  C7866   1.384   .     S
C7865  N7902   1.355   .     S
C7866  H7867   1.082   .     S
C7868  C7869   1.384   .     S
C7868  N7934   1.355   1_556 S
C7869  H7870   1.082   .     S
C7869  C7860   1.362   1_556 D
C7871  C7872   1.384   .     S
C7871  N7935   1.355   .     D
C7872  H7873   1.082   .     S
C7872  C7659   1.362   1_554 D
C7874  C7875   1.384   .     S
C7874  N7899   1.355   .     D
C7875  H7876   1.082   .     S
C7877  C7878   1.384   .     S
C7877  N7895   1.355   .     S
C7878  H7879   1.082   .     S
C7880  C7881   1.384   .     S
C7880  N7896   1.355   1_565 S
C7881  H7882   1.082   .     S
C7881  C7641   1.362   1_564 D
C7883  C7884   1.384   .     S
C7883  N7936   1.355   .     D
C7884  H7885   1.082   .     S
C7884  C7635   1.362   1_545 D
C7886  C7887   1.384   .     S
C7886  N7894   1.355   1_556 S
C7887  H7888   1.082   .     S
C7887  C7632   1.362   1_556 D
N7889  C7610   1.355   1_545 S
N7890  C7604   1.355   1_455 S
N7890  C7844   1.355   1_545 D
N7892  C7622   1.355   1_455 S
N7893  C7619   1.355   1_445 D
N7894  C7886   1.355   1_554 S
N7896  C7640   1.355   1_554 D
N7896  C7880   1.355   1_545 S
N7897  C7655   1.355   1_545 S
N7898  C7649   1.355   1_544 D
N7900  C7862   1.355   1_455 S
N7901  C7664   1.355   1_554 D
N7901  C7670   1.355   1_455 S
N7903  C7688   1.355   1_554 S
N7905  C7679   1.355   1_454 D
N7930  C7838   1.355   1_455 S
N7931  C7625   1.355   1_545 S
N7933  C7682   1.355   1_455 D
N7934  C7868   1.355   1_554 S
N7935  C7658   1.355   1_554 S
N7936  C7634   1.355   1_545 S
