data_914
_audit_creation_date              2023-09-08
_audit_creation_method            'Materials Studio'
_symmetry_space_group_name_H-M    'P1'
_symmetry_Int_Tables_number       1
_symmetry_cell_setting            triclinic
loop_
_symmetry_equiv_pos_as_xyz
  x,y,z
_cell_length_a                    64.5103
_cell_length_b                    64.5103
_cell_length_c                    31.1318
_cell_angle_alpha                 90.0000
_cell_angle_beta                  90.0000
_cell_angle_gamma                 90.0000
loop_
_atom_site_label
_atom_site_type_symbol
_atom_site_fract_x
_atom_site_fract_y
_atom_site_fract_z
_atom_site_U_iso_or_equiv
_atom_site_adp_type
_atom_site_occupancy
C1     C     0.41331   0.49511   0.53895   0.00000  Uiso   1.00
C2     C     0.39168   0.49392   0.53892   0.00000  Uiso   1.00
C3     C     0.31373   0.50535   0.46133   0.00000  Uiso   1.00
C4     C     0.05345   0.49556   0.11136   0.00000  Uiso   1.00
C5     C     0.06356   0.51349   0.12564   0.00000  Uiso   1.00
C6     C     0.07803   0.51232   0.15893   0.00000  Uiso   1.00
C7     C     0.08248   0.49332   0.17866   0.00000  Uiso   1.00
C8     C     0.07268   0.47523   0.16342   0.00000  Uiso   1.00
C9     C     0.05823   0.47641   0.13009   0.00000  Uiso   1.00
N10    N     0.09689   0.49321   0.21388   0.00000  Uiso   1.00
C11    C     0.09961   0.47827   0.24132   0.00000  Uiso   1.00
C12    C     0.11448   0.48046   0.27708   0.00000  Uiso   1.00
C13    C     0.11584   0.46475   0.30804   0.00000  Uiso   1.00
C14    C     0.12918   0.46679   0.34312   0.00000  Uiso   1.00
C15    C     0.14150   0.48461   0.34792   0.00000  Uiso   1.00
C16    C     0.14037   0.50021   0.31647   0.00000  Uiso   1.00
C17    C     0.12699   0.49817   0.28141   0.00000  Uiso   1.00
C18    C     0.15501   0.48714   0.38619   0.00000  Uiso   1.00
C19    C     0.16602   0.47016   0.40304   0.00000  Uiso   1.00
C20    C     0.17801   0.47240   0.44012   0.00000  Uiso   1.00
C21    C     0.17923   0.49161   0.46082   0.00000  Uiso   1.00
C22    C     0.16858   0.50865   0.44394   0.00000  Uiso   1.00
C23    C     0.15655   0.50646   0.40691   0.00000  Uiso   1.00
C24    C     0.29217   0.50336   0.53881   0.00000  Uiso   1.00
C25    C     0.24583   0.49902   0.53870   0.00000  Uiso   1.00
C26    C     0.22428   0.49693   0.53864   0.00000  Uiso   1.00
C27    C     0.50138   0.01661   0.90969   0.00000  Uiso   1.00
C28    C     0.50353   0.04349   0.03453   0.00000  Uiso   1.00
C29    C     0.50528   0.06399   0.02184   0.00000  Uiso   1.00
C30    C     0.01050   0.49915   0.86707   0.00000  Uiso   1.00
C31    C     0.96269   0.50307   0.07752   0.00000  Uiso   1.00
H32    H     0.42157   0.49555   0.56919   0.00000  Uiso   1.00
H33    H     0.38337   0.49342   0.56910   0.00000  Uiso   1.00
H34    H     0.32199   0.50613   0.43108   0.00000  Uiso   1.00
H35    H     0.06003   0.52838   0.11134   0.00000  Uiso   1.00
H36    H     0.08555   0.52634   0.16998   0.00000  Uiso   1.00
H37    H     0.07609   0.46016   0.17676   0.00000  Uiso   1.00
H38    H     0.05060   0.46243   0.11907   0.00000  Uiso   1.00
H39    H     0.09035   0.46434   0.23981   0.00000  Uiso   1.00
H40    H     0.10632   0.45098   0.30545   0.00000  Uiso   1.00
H41    H     0.12947   0.45463   0.36705   0.00000  Uiso   1.00
H42    H     0.14987   0.51398   0.31892   0.00000  Uiso   1.00
H43    H     0.12636   0.51051   0.25790   0.00000  Uiso   1.00
H44    H     0.16538   0.45516   0.38753   0.00000  Uiso   1.00
H45    H     0.18623   0.45916   0.45301   0.00000  Uiso   1.00
H46    H     0.16943   0.52356   0.45973   0.00000  Uiso   1.00
H47    H     0.14806   0.51976   0.39512   0.00000  Uiso   1.00
H48    H     0.28499   0.50270   0.56994   0.00000  Uiso   1.00
H49    H     0.25301   0.49977   0.56982   0.00000  Uiso   1.00
H50    H     0.21640   0.49630   0.56927   0.00000  Uiso   1.00
H51    H     0.50650   0.07759   0.04201   0.00000  Uiso   1.00
H52    H     0.02018   0.49838   0.83873   0.00000  Uiso   1.00
C53    C     0.58669   0.50489   0.53895   0.00000  Uiso   1.00
C54    C     0.60832   0.50608   0.53892   0.00000  Uiso   1.00
C55    C     0.68627   0.49465   0.46133   0.00000  Uiso   1.00
C56    C     0.94655   0.50444   0.11136   0.00000  Uiso   1.00
C57    C     0.93644   0.48651   0.12564   0.00000  Uiso   1.00
C58    C     0.92197   0.48768   0.15893   0.00000  Uiso   1.00
C59    C     0.91752   0.50668   0.17866   0.00000  Uiso   1.00
C60    C     0.92732   0.52477   0.16342   0.00000  Uiso   1.00
C61    C     0.94177   0.52359   0.13009   0.00000  Uiso   1.00
N62    N     0.90311   0.50679   0.21388   0.00000  Uiso   1.00
C63    C     0.90039   0.52173   0.24132   0.00000  Uiso   1.00
C64    C     0.88552   0.51954   0.27708   0.00000  Uiso   1.00
C65    C     0.88416   0.53525   0.30804   0.00000  Uiso   1.00
C66    C     0.87082   0.53321   0.34312   0.00000  Uiso   1.00
C67    C     0.85850   0.51539   0.34792   0.00000  Uiso   1.00
C68    C     0.85963   0.49979   0.31647   0.00000  Uiso   1.00
C69    C     0.87301   0.50183   0.28141   0.00000  Uiso   1.00
C70    C     0.84499   0.51286   0.38619   0.00000  Uiso   1.00
C71    C     0.83398   0.52984   0.40304   0.00000  Uiso   1.00
C72    C     0.82199   0.52760   0.44012   0.00000  Uiso   1.00
C73    C     0.82077   0.50839   0.46082   0.00000  Uiso   1.00
C74    C     0.83142   0.49135   0.44394   0.00000  Uiso   1.00
C75    C     0.84345   0.49354   0.40691   0.00000  Uiso   1.00
C76    C     0.70783   0.49664   0.53881   0.00000  Uiso   1.00
C77    C     0.75417   0.50098   0.53870   0.00000  Uiso   1.00
C78    C     0.77572   0.50307   0.53864   0.00000  Uiso   1.00
C79    C     0.49862   0.98339   0.90969   0.00000  Uiso   1.00
C80    C     0.49647   0.95651   0.03453   0.00000  Uiso   1.00
C81    C     0.49472   0.93601   0.02184   0.00000  Uiso   1.00
C82    C     0.98950   0.50085   0.86707   0.00000  Uiso   1.00
C83    C     0.03731   0.49693   0.07752   0.00000  Uiso   1.00
H84    H     0.57843   0.50445   0.56919   0.00000  Uiso   1.00
H85    H     0.61663   0.50658   0.56910   0.00000  Uiso   1.00
H86    H     0.67801   0.49387   0.43108   0.00000  Uiso   1.00
H87    H     0.93997   0.47162   0.11134   0.00000  Uiso   1.00
H88    H     0.91445   0.47366   0.16998   0.00000  Uiso   1.00
H89    H     0.92391   0.53984   0.17676   0.00000  Uiso   1.00
H90    H     0.94940   0.53757   0.11907   0.00000  Uiso   1.00
H91    H     0.90965   0.53566   0.23981   0.00000  Uiso   1.00
H92    H     0.89368   0.54902   0.30545   0.00000  Uiso   1.00
H93    H     0.87053   0.54537   0.36705   0.00000  Uiso   1.00
H94    H     0.85013   0.48602   0.31892   0.00000  Uiso   1.00
H95    H     0.87364   0.48949   0.25790   0.00000  Uiso   1.00
H96    H     0.83462   0.54484   0.38753   0.00000  Uiso   1.00
H97    H     0.81377   0.54084   0.45301   0.00000  Uiso   1.00
H98    H     0.83057   0.47644   0.45973   0.00000  Uiso   1.00
H99    H     0.85194   0.48024   0.39512   0.00000  Uiso   1.00
H100   H     0.71501   0.49730   0.56994   0.00000  Uiso   1.00
H101   H     0.74699   0.50023   0.56982   0.00000  Uiso   1.00
H102   H     0.78360   0.50370   0.56927   0.00000  Uiso   1.00
H103   H     0.49350   0.92241   0.04201   0.00000  Uiso   1.00
H104   H     0.97982   0.50162   0.83873   0.00000  Uiso   1.00
C105   C     0.50489   0.41331   0.53895   0.00000  Uiso   1.00
C106   C     0.50608   0.39168   0.53892   0.00000  Uiso   1.00
C107   C     0.49465   0.31373   0.46133   0.00000  Uiso   1.00
C108   C     0.50444   0.05345   0.11136   0.00000  Uiso   1.00
C109   C     0.48651   0.06356   0.12564   0.00000  Uiso   1.00
C110   C     0.48768   0.07803   0.15893   0.00000  Uiso   1.00
C111   C     0.50668   0.08248   0.17866   0.00000  Uiso   1.00
C112   C     0.52477   0.07268   0.16342   0.00000  Uiso   1.00
C113   C     0.52359   0.05823   0.13009   0.00000  Uiso   1.00
N114   N     0.50679   0.09689   0.21388   0.00000  Uiso   1.00
C115   C     0.52173   0.09961   0.24132   0.00000  Uiso   1.00
C116   C     0.51954   0.11448   0.27708   0.00000  Uiso   1.00
C117   C     0.53525   0.11584   0.30804   0.00000  Uiso   1.00
C118   C     0.53321   0.12918   0.34312   0.00000  Uiso   1.00
C119   C     0.51539   0.14150   0.34792   0.00000  Uiso   1.00
C120   C     0.49979   0.14037   0.31647   0.00000  Uiso   1.00
C121   C     0.50183   0.12699   0.28141   0.00000  Uiso   1.00
C122   C     0.51286   0.15501   0.38619   0.00000  Uiso   1.00
C123   C     0.52984   0.16602   0.40304   0.00000  Uiso   1.00
C124   C     0.52760   0.17801   0.44012   0.00000  Uiso   1.00
C125   C     0.50839   0.17923   0.46082   0.00000  Uiso   1.00
C126   C     0.49135   0.16858   0.44394   0.00000  Uiso   1.00
C127   C     0.49354   0.15655   0.40691   0.00000  Uiso   1.00
C128   C     0.49664   0.29217   0.53881   0.00000  Uiso   1.00
C129   C     0.50098   0.24583   0.53870   0.00000  Uiso   1.00
C130   C     0.50307   0.22428   0.53864   0.00000  Uiso   1.00
C131   C     0.98339   0.50138   0.90969   0.00000  Uiso   1.00
C132   C     0.95651   0.50353   0.03453   0.00000  Uiso   1.00
C133   C     0.93601   0.50528   0.02184   0.00000  Uiso   1.00
C134   C     0.50085   0.01050   0.86707   0.00000  Uiso   1.00
C135   C     0.49693   0.96269   0.07752   0.00000  Uiso   1.00
H136   H     0.50445   0.42157   0.56919   0.00000  Uiso   1.00
H137   H     0.50658   0.38337   0.56910   0.00000  Uiso   1.00
H138   H     0.49387   0.32199   0.43108   0.00000  Uiso   1.00
H139   H     0.47162   0.06003   0.11134   0.00000  Uiso   1.00
H140   H     0.47366   0.08555   0.16998   0.00000  Uiso   1.00
H141   H     0.53984   0.07609   0.17676   0.00000  Uiso   1.00
H142   H     0.53757   0.05060   0.11907   0.00000  Uiso   1.00
H143   H     0.53566   0.09035   0.23981   0.00000  Uiso   1.00
H144   H     0.54902   0.10632   0.30545   0.00000  Uiso   1.00
H145   H     0.54537   0.12947   0.36705   0.00000  Uiso   1.00
H146   H     0.48602   0.14987   0.31892   0.00000  Uiso   1.00
H147   H     0.48949   0.12636   0.25790   0.00000  Uiso   1.00
H148   H     0.54484   0.16538   0.38753   0.00000  Uiso   1.00
H149   H     0.54084   0.18623   0.45301   0.00000  Uiso   1.00
H150   H     0.47644   0.16943   0.45973   0.00000  Uiso   1.00
H151   H     0.48024   0.14806   0.39512   0.00000  Uiso   1.00
H152   H     0.49730   0.28499   0.56994   0.00000  Uiso   1.00
H153   H     0.50023   0.25301   0.56982   0.00000  Uiso   1.00
H154   H     0.50370   0.21640   0.56927   0.00000  Uiso   1.00
H155   H     0.92241   0.50650   0.04201   0.00000  Uiso   1.00
H156   H     0.50162   0.02018   0.83873   0.00000  Uiso   1.00
C157   C     0.49511   0.58669   0.53895   0.00000  Uiso   1.00
C158   C     0.49392   0.60832   0.53892   0.00000  Uiso   1.00
C159   C     0.50535   0.68627   0.46133   0.00000  Uiso   1.00
C160   C     0.49556   0.94655   0.11136   0.00000  Uiso   1.00
C161   C     0.51349   0.93644   0.12564   0.00000  Uiso   1.00
C162   C     0.51232   0.92197   0.15893   0.00000  Uiso   1.00
C163   C     0.49332   0.91752   0.17866   0.00000  Uiso   1.00
C164   C     0.47523   0.92732   0.16342   0.00000  Uiso   1.00
C165   C     0.47641   0.94177   0.13009   0.00000  Uiso   1.00
N166   N     0.49321   0.90311   0.21388   0.00000  Uiso   1.00
C167   C     0.47827   0.90039   0.24132   0.00000  Uiso   1.00
C168   C     0.48046   0.88552   0.27708   0.00000  Uiso   1.00
C169   C     0.46475   0.88416   0.30804   0.00000  Uiso   1.00
C170   C     0.46679   0.87082   0.34312   0.00000  Uiso   1.00
C171   C     0.48461   0.85850   0.34792   0.00000  Uiso   1.00
C172   C     0.50021   0.85963   0.31647   0.00000  Uiso   1.00
C173   C     0.49817   0.87301   0.28141   0.00000  Uiso   1.00
C174   C     0.48714   0.84499   0.38619   0.00000  Uiso   1.00
C175   C     0.47016   0.83398   0.40304   0.00000  Uiso   1.00
C176   C     0.47240   0.82199   0.44012   0.00000  Uiso   1.00
C177   C     0.49161   0.82077   0.46082   0.00000  Uiso   1.00
C178   C     0.50865   0.83142   0.44394   0.00000  Uiso   1.00
C179   C     0.50646   0.84345   0.40691   0.00000  Uiso   1.00
C180   C     0.50336   0.70783   0.53881   0.00000  Uiso   1.00
C181   C     0.49902   0.75417   0.53870   0.00000  Uiso   1.00
C182   C     0.49693   0.77572   0.53864   0.00000  Uiso   1.00
C183   C     0.01661   0.49862   0.90969   0.00000  Uiso   1.00
C184   C     0.04349   0.49647   0.03453   0.00000  Uiso   1.00
C185   C     0.06399   0.49472   0.02184   0.00000  Uiso   1.00
C186   C     0.49915   0.98950   0.86707   0.00000  Uiso   1.00
C187   C     0.50307   0.03731   0.07752   0.00000  Uiso   1.00
H188   H     0.49555   0.57843   0.56919   0.00000  Uiso   1.00
H189   H     0.49342   0.61663   0.56910   0.00000  Uiso   1.00
H190   H     0.50613   0.67801   0.43108   0.00000  Uiso   1.00
H191   H     0.52838   0.93997   0.11134   0.00000  Uiso   1.00
H192   H     0.52634   0.91445   0.16998   0.00000  Uiso   1.00
H193   H     0.46016   0.92391   0.17676   0.00000  Uiso   1.00
H194   H     0.46243   0.94940   0.11907   0.00000  Uiso   1.00
H195   H     0.46434   0.90965   0.23981   0.00000  Uiso   1.00
H196   H     0.45098   0.89368   0.30545   0.00000  Uiso   1.00
H197   H     0.45463   0.87053   0.36705   0.00000  Uiso   1.00
H198   H     0.51398   0.85013   0.31892   0.00000  Uiso   1.00
H199   H     0.51051   0.87364   0.25790   0.00000  Uiso   1.00
H200   H     0.45516   0.83462   0.38753   0.00000  Uiso   1.00
H201   H     0.45916   0.81377   0.45301   0.00000  Uiso   1.00
H202   H     0.52356   0.83057   0.45973   0.00000  Uiso   1.00
H203   H     0.51976   0.85194   0.39512   0.00000  Uiso   1.00
H204   H     0.50270   0.71501   0.56994   0.00000  Uiso   1.00
H205   H     0.49977   0.74699   0.56982   0.00000  Uiso   1.00
H206   H     0.49630   0.78360   0.56927   0.00000  Uiso   1.00
H207   H     0.07759   0.49350   0.04201   0.00000  Uiso   1.00
H208   H     0.49838   0.97982   0.83873   0.00000  Uiso   1.00
C209   C     0.58669   0.50489   0.46105   0.00000  Uiso   1.00
C210   C     0.60832   0.50608   0.46108   0.00000  Uiso   1.00
C211   C     0.68627   0.49465   0.53867   0.00000  Uiso   1.00
C212   C     0.94655   0.50444   0.88864   0.00000  Uiso   1.00
C213   C     0.93644   0.48651   0.87436   0.00000  Uiso   1.00
C214   C     0.92197   0.48768   0.84107   0.00000  Uiso   1.00
C215   C     0.91752   0.50668   0.82134   0.00000  Uiso   1.00
C216   C     0.92732   0.52477   0.83658   0.00000  Uiso   1.00
C217   C     0.94177   0.52359   0.86991   0.00000  Uiso   1.00
N218   N     0.90311   0.50679   0.78612   0.00000  Uiso   1.00
C219   C     0.90039   0.52173   0.75868   0.00000  Uiso   1.00
C220   C     0.88552   0.51954   0.72292   0.00000  Uiso   1.00
C221   C     0.88416   0.53525   0.69196   0.00000  Uiso   1.00
C222   C     0.87082   0.53321   0.65688   0.00000  Uiso   1.00
C223   C     0.85850   0.51539   0.65208   0.00000  Uiso   1.00
C224   C     0.85963   0.49979   0.68353   0.00000  Uiso   1.00
C225   C     0.87301   0.50183   0.71859   0.00000  Uiso   1.00
C226   C     0.84499   0.51286   0.61381   0.00000  Uiso   1.00
C227   C     0.83398   0.52984   0.59696   0.00000  Uiso   1.00
C228   C     0.82199   0.52760   0.55988   0.00000  Uiso   1.00
C229   C     0.82077   0.50839   0.53918   0.00000  Uiso   1.00
C230   C     0.83142   0.49135   0.55606   0.00000  Uiso   1.00
C231   C     0.84345   0.49354   0.59309   0.00000  Uiso   1.00
C232   C     0.70783   0.49664   0.46119   0.00000  Uiso   1.00
C233   C     0.75417   0.50098   0.46130   0.00000  Uiso   1.00
C234   C     0.77572   0.50307   0.46136   0.00000  Uiso   1.00
C235   C     0.49862   0.98339   0.09031   0.00000  Uiso   1.00
C236   C     0.49647   0.95651   0.96547   0.00000  Uiso   1.00
C237   C     0.49472   0.93601   0.97816   0.00000  Uiso   1.00
C238   C     0.98950   0.50085   0.13293   0.00000  Uiso   1.00
C239   C     0.03731   0.49693   0.92248   0.00000  Uiso   1.00
H240   H     0.57843   0.50445   0.43081   0.00000  Uiso   1.00
H241   H     0.61663   0.50658   0.43090   0.00000  Uiso   1.00
H242   H     0.67801   0.49387   0.56892   0.00000  Uiso   1.00
H243   H     0.93997   0.47162   0.88866   0.00000  Uiso   1.00
H244   H     0.91445   0.47366   0.83002   0.00000  Uiso   1.00
H245   H     0.92391   0.53984   0.82324   0.00000  Uiso   1.00
H246   H     0.94940   0.53757   0.88093   0.00000  Uiso   1.00
H247   H     0.90965   0.53566   0.76019   0.00000  Uiso   1.00
H248   H     0.89368   0.54902   0.69455   0.00000  Uiso   1.00
H249   H     0.87053   0.54537   0.63295   0.00000  Uiso   1.00
H250   H     0.85013   0.48602   0.68108   0.00000  Uiso   1.00
H251   H     0.87364   0.48949   0.74210   0.00000  Uiso   1.00
H252   H     0.83462   0.54484   0.61247   0.00000  Uiso   1.00
H253   H     0.81377   0.54084   0.54699   0.00000  Uiso   1.00
H254   H     0.83057   0.47644   0.54027   0.00000  Uiso   1.00
H255   H     0.85194   0.48024   0.60488   0.00000  Uiso   1.00
H256   H     0.71501   0.49730   0.43006   0.00000  Uiso   1.00
H257   H     0.74699   0.50023   0.43018   0.00000  Uiso   1.00
H258   H     0.78360   0.50370   0.43073   0.00000  Uiso   1.00
H259   H     0.49350   0.92241   0.95799   0.00000  Uiso   1.00
H260   H     0.97982   0.50162   0.16127   0.00000  Uiso   1.00
C261   C     0.41331   0.49511   0.46105   0.00000  Uiso   1.00
C262   C     0.39168   0.49392   0.46108   0.00000  Uiso   1.00
C263   C     0.31373   0.50535   0.53867   0.00000  Uiso   1.00
C264   C     0.05345   0.49556   0.88864   0.00000  Uiso   1.00
C265   C     0.06356   0.51349   0.87436   0.00000  Uiso   1.00
C266   C     0.07803   0.51232   0.84107   0.00000  Uiso   1.00
C267   C     0.08248   0.49332   0.82134   0.00000  Uiso   1.00
C268   C     0.07268   0.47523   0.83658   0.00000  Uiso   1.00
C269   C     0.05823   0.47641   0.86991   0.00000  Uiso   1.00
N270   N     0.09689   0.49321   0.78612   0.00000  Uiso   1.00
C271   C     0.09961   0.47827   0.75868   0.00000  Uiso   1.00
C272   C     0.11448   0.48046   0.72292   0.00000  Uiso   1.00
C273   C     0.11584   0.46475   0.69196   0.00000  Uiso   1.00
C274   C     0.12918   0.46679   0.65688   0.00000  Uiso   1.00
C275   C     0.14150   0.48461   0.65208   0.00000  Uiso   1.00
C276   C     0.14037   0.50021   0.68353   0.00000  Uiso   1.00
C277   C     0.12699   0.49817   0.71859   0.00000  Uiso   1.00
C278   C     0.15501   0.48714   0.61381   0.00000  Uiso   1.00
C279   C     0.16602   0.47016   0.59696   0.00000  Uiso   1.00
C280   C     0.17801   0.47240   0.55988   0.00000  Uiso   1.00
C281   C     0.17923   0.49161   0.53918   0.00000  Uiso   1.00
C282   C     0.16858   0.50865   0.55606   0.00000  Uiso   1.00
C283   C     0.15655   0.50646   0.59309   0.00000  Uiso   1.00
C284   C     0.29217   0.50336   0.46119   0.00000  Uiso   1.00
C285   C     0.24583   0.49902   0.46130   0.00000  Uiso   1.00
C286   C     0.22428   0.49693   0.46136   0.00000  Uiso   1.00
C287   C     0.50138   0.01661   0.09031   0.00000  Uiso   1.00
C288   C     0.50353   0.04349   0.96547   0.00000  Uiso   1.00
C289   C     0.50528   0.06399   0.97816   0.00000  Uiso   1.00
C290   C     0.01050   0.49915   0.13293   0.00000  Uiso   1.00
C291   C     0.96269   0.50307   0.92248   0.00000  Uiso   1.00
H292   H     0.42157   0.49555   0.43081   0.00000  Uiso   1.00
H293   H     0.38337   0.49342   0.43090   0.00000  Uiso   1.00
H294   H     0.32199   0.50613   0.56892   0.00000  Uiso   1.00
H295   H     0.06003   0.52838   0.88866   0.00000  Uiso   1.00
H296   H     0.08555   0.52634   0.83002   0.00000  Uiso   1.00
H297   H     0.07609   0.46016   0.82324   0.00000  Uiso   1.00
H298   H     0.05060   0.46243   0.88093   0.00000  Uiso   1.00
H299   H     0.09035   0.46434   0.76019   0.00000  Uiso   1.00
H300   H     0.10632   0.45098   0.69455   0.00000  Uiso   1.00
H301   H     0.12947   0.45463   0.63295   0.00000  Uiso   1.00
H302   H     0.14987   0.51398   0.68108   0.00000  Uiso   1.00
H303   H     0.12636   0.51051   0.74210   0.00000  Uiso   1.00
H304   H     0.16538   0.45516   0.61247   0.00000  Uiso   1.00
H305   H     0.18623   0.45916   0.54699   0.00000  Uiso   1.00
H306   H     0.16943   0.52356   0.54027   0.00000  Uiso   1.00
H307   H     0.14806   0.51976   0.60488   0.00000  Uiso   1.00
H308   H     0.28499   0.50270   0.43006   0.00000  Uiso   1.00
H309   H     0.25301   0.49977   0.43018   0.00000  Uiso   1.00
H310   H     0.21640   0.49630   0.43073   0.00000  Uiso   1.00
H311   H     0.50650   0.07759   0.95799   0.00000  Uiso   1.00
H312   H     0.02018   0.49838   0.16127   0.00000  Uiso   1.00
C313   C     0.49511   0.58669   0.46105   0.00000  Uiso   1.00
C314   C     0.49392   0.60832   0.46108   0.00000  Uiso   1.00
C315   C     0.50535   0.68627   0.53867   0.00000  Uiso   1.00
C316   C     0.49556   0.94655   0.88864   0.00000  Uiso   1.00
C317   C     0.51349   0.93644   0.87436   0.00000  Uiso   1.00
C318   C     0.51232   0.92197   0.84107   0.00000  Uiso   1.00
C319   C     0.49332   0.91752   0.82134   0.00000  Uiso   1.00
C320   C     0.47523   0.92732   0.83658   0.00000  Uiso   1.00
C321   C     0.47641   0.94177   0.86991   0.00000  Uiso   1.00
N322   N     0.49321   0.90311   0.78612   0.00000  Uiso   1.00
C323   C     0.47827   0.90039   0.75868   0.00000  Uiso   1.00
C324   C     0.48046   0.88552   0.72292   0.00000  Uiso   1.00
C325   C     0.46475   0.88416   0.69196   0.00000  Uiso   1.00
C326   C     0.46679   0.87082   0.65688   0.00000  Uiso   1.00
C327   C     0.48461   0.85850   0.65208   0.00000  Uiso   1.00
C328   C     0.50021   0.85963   0.68353   0.00000  Uiso   1.00
C329   C     0.49817   0.87301   0.71859   0.00000  Uiso   1.00
C330   C     0.48714   0.84499   0.61381   0.00000  Uiso   1.00
C331   C     0.47016   0.83398   0.59696   0.00000  Uiso   1.00
C332   C     0.47240   0.82199   0.55988   0.00000  Uiso   1.00
C333   C     0.49161   0.82077   0.53918   0.00000  Uiso   1.00
C334   C     0.50865   0.83142   0.55606   0.00000  Uiso   1.00
C335   C     0.50646   0.84345   0.59309   0.00000  Uiso   1.00
C336   C     0.50336   0.70783   0.46119   0.00000  Uiso   1.00
C337   C     0.49902   0.75417   0.46130   0.00000  Uiso   1.00
C338   C     0.49693   0.77572   0.46136   0.00000  Uiso   1.00
C339   C     0.01661   0.49862   0.09031   0.00000  Uiso   1.00
C340   C     0.04349   0.49647   0.96547   0.00000  Uiso   1.00
C341   C     0.06399   0.49472   0.97816   0.00000  Uiso   1.00
C342   C     0.49915   0.98950   0.13293   0.00000  Uiso   1.00
C343   C     0.50307   0.03731   0.92248   0.00000  Uiso   1.00
H344   H     0.49555   0.57843   0.43081   0.00000  Uiso   1.00
H345   H     0.49342   0.61663   0.43090   0.00000  Uiso   1.00
H346   H     0.50613   0.67801   0.56892   0.00000  Uiso   1.00
H347   H     0.52838   0.93997   0.88866   0.00000  Uiso   1.00
H348   H     0.52634   0.91445   0.83002   0.00000  Uiso   1.00
H349   H     0.46016   0.92391   0.82324   0.00000  Uiso   1.00
H350   H     0.46243   0.94940   0.88093   0.00000  Uiso   1.00
H351   H     0.46434   0.90965   0.76019   0.00000  Uiso   1.00
H352   H     0.45098   0.89368   0.69455   0.00000  Uiso   1.00
H353   H     0.45463   0.87053   0.63295   0.00000  Uiso   1.00
H354   H     0.51398   0.85013   0.68108   0.00000  Uiso   1.00
H355   H     0.51051   0.87364   0.74210   0.00000  Uiso   1.00
H356   H     0.45516   0.83462   0.61247   0.00000  Uiso   1.00
H357   H     0.45916   0.81377   0.54699   0.00000  Uiso   1.00
H358   H     0.52356   0.83057   0.54027   0.00000  Uiso   1.00
H359   H     0.51976   0.85194   0.60488   0.00000  Uiso   1.00
H360   H     0.50270   0.71501   0.43006   0.00000  Uiso   1.00
H361   H     0.49977   0.74699   0.43018   0.00000  Uiso   1.00
H362   H     0.49630   0.78360   0.43073   0.00000  Uiso   1.00
H363   H     0.07759   0.49350   0.95799   0.00000  Uiso   1.00
H364   H     0.49838   0.97982   0.16127   0.00000  Uiso   1.00
C365   C     0.50489   0.41331   0.46105   0.00000  Uiso   1.00
C366   C     0.50608   0.39168   0.46108   0.00000  Uiso   1.00
C367   C     0.49465   0.31373   0.53867   0.00000  Uiso   1.00
C368   C     0.50444   0.05345   0.88864   0.00000  Uiso   1.00
C369   C     0.48651   0.06356   0.87436   0.00000  Uiso   1.00
C370   C     0.48768   0.07803   0.84107   0.00000  Uiso   1.00
C371   C     0.50668   0.08248   0.82134   0.00000  Uiso   1.00
C372   C     0.52477   0.07268   0.83658   0.00000  Uiso   1.00
C373   C     0.52359   0.05823   0.86991   0.00000  Uiso   1.00
N374   N     0.50679   0.09689   0.78612   0.00000  Uiso   1.00
C375   C     0.52173   0.09961   0.75868   0.00000  Uiso   1.00
C376   C     0.51954   0.11448   0.72292   0.00000  Uiso   1.00
C377   C     0.53525   0.11584   0.69196   0.00000  Uiso   1.00
C378   C     0.53321   0.12918   0.65688   0.00000  Uiso   1.00
C379   C     0.51539   0.14150   0.65208   0.00000  Uiso   1.00
C380   C     0.49979   0.14037   0.68353   0.00000  Uiso   1.00
C381   C     0.50183   0.12699   0.71859   0.00000  Uiso   1.00
C382   C     0.51286   0.15501   0.61381   0.00000  Uiso   1.00
C383   C     0.52984   0.16602   0.59696   0.00000  Uiso   1.00
C384   C     0.52760   0.17801   0.55988   0.00000  Uiso   1.00
C385   C     0.50839   0.17923   0.53918   0.00000  Uiso   1.00
C386   C     0.49135   0.16858   0.55606   0.00000  Uiso   1.00
C387   C     0.49354   0.15655   0.59309   0.00000  Uiso   1.00
C388   C     0.49664   0.29217   0.46119   0.00000  Uiso   1.00
C389   C     0.50098   0.24583   0.46130   0.00000  Uiso   1.00
C390   C     0.50307   0.22428   0.46136   0.00000  Uiso   1.00
C391   C     0.98339   0.50138   0.09031   0.00000  Uiso   1.00
C392   C     0.95651   0.50353   0.96547   0.00000  Uiso   1.00
C393   C     0.93601   0.50528   0.97816   0.00000  Uiso   1.00
C394   C     0.50085   0.01050   0.13293   0.00000  Uiso   1.00
C395   C     0.49693   0.96269   0.92248   0.00000  Uiso   1.00
H396   H     0.50445   0.42157   0.43081   0.00000  Uiso   1.00
H397   H     0.50658   0.38337   0.43090   0.00000  Uiso   1.00
H398   H     0.49387   0.32199   0.56892   0.00000  Uiso   1.00
H399   H     0.47162   0.06003   0.88866   0.00000  Uiso   1.00
H400   H     0.47366   0.08555   0.83002   0.00000  Uiso   1.00
H401   H     0.53984   0.07609   0.82324   0.00000  Uiso   1.00
H402   H     0.53757   0.05060   0.88093   0.00000  Uiso   1.00
H403   H     0.53566   0.09035   0.76019   0.00000  Uiso   1.00
H404   H     0.54902   0.10632   0.69455   0.00000  Uiso   1.00
H405   H     0.54537   0.12947   0.63295   0.00000  Uiso   1.00
H406   H     0.48602   0.14987   0.68108   0.00000  Uiso   1.00
H407   H     0.48949   0.12636   0.74210   0.00000  Uiso   1.00
H408   H     0.54484   0.16538   0.61247   0.00000  Uiso   1.00
H409   H     0.54084   0.18623   0.54699   0.00000  Uiso   1.00
H410   H     0.47644   0.16943   0.54027   0.00000  Uiso   1.00
H411   H     0.48024   0.14806   0.60488   0.00000  Uiso   1.00
H412   H     0.49730   0.28499   0.43006   0.00000  Uiso   1.00
H413   H     0.50023   0.25301   0.43018   0.00000  Uiso   1.00
H414   H     0.50370   0.21640   0.43073   0.00000  Uiso   1.00
H415   H     0.92241   0.50650   0.95799   0.00000  Uiso   1.00
H416   H     0.50162   0.02018   0.16127   0.00000  Uiso   1.00
C417   C     0.49702   0.55284   0.50000   0.00000  Uiso   1.00
C418   C     0.47858   0.54148   0.50000   0.00000  Uiso   1.00
C419   C     0.45916   0.55062   0.50000   0.00000  Uiso   1.00
C420   C     0.42420   0.49573   0.50000   0.00000  Uiso   1.00
C421   C     0.38082   0.49341   0.50000   0.00000  Uiso   1.00
N422   N     0.35873   0.49204   0.50000   0.00000  Uiso   1.00
C423   C     0.28070   0.50229   0.50000   0.00000  Uiso   1.00
C424   C     0.25728   0.50008   0.50000   0.00000  Uiso   1.00
C425   C     0.21314   0.49573   0.50000   0.00000  Uiso   1.00
C426   C     0.45637   0.51662   0.50000   0.00000  Uiso   1.00
C427   C     0.44512   0.53490   0.50000   0.00000  Uiso   1.00
N428   N     0.47702   0.52053   0.50000   0.00000  Uiso   1.00
N429   N     0.19076   0.49363   0.50000   0.00000  Uiso   1.00
C430   C     0.34715   0.50843   0.50000   0.00000  Uiso   1.00
C431   C     0.32456   0.50631   0.50000   0.00000  Uiso   1.00
H432   H     0.45545   0.56698   0.50000   0.00000  Uiso   1.00
H433   H     0.42844   0.53675   0.50000   0.00000  Uiso   1.00
H434   H     0.35395   0.52379   0.50000   0.00000  Uiso   1.00
C435   C     0.50298   0.44716   0.50000   0.00000  Uiso   1.00
C436   C     0.52142   0.45852   0.50000   0.00000  Uiso   1.00
C437   C     0.54084   0.44938   0.50000   0.00000  Uiso   1.00
C438   C     0.57580   0.50427   0.50000   0.00000  Uiso   1.00
C439   C     0.61918   0.50659   0.50000   0.00000  Uiso   1.00
N440   N     0.64127   0.50796   0.50000   0.00000  Uiso   1.00
C441   C     0.71930   0.49771   0.50000   0.00000  Uiso   1.00
C442   C     0.74272   0.49992   0.50000   0.00000  Uiso   1.00
C443   C     0.78686   0.50427   0.50000   0.00000  Uiso   1.00
C444   C     0.54363   0.48338   0.50000   0.00000  Uiso   1.00
C445   C     0.55488   0.46510   0.50000   0.00000  Uiso   1.00
N446   N     0.52298   0.47947   0.50000   0.00000  Uiso   1.00
N447   N     0.80924   0.50637   0.50000   0.00000  Uiso   1.00
C448   C     0.65285   0.49157   0.50000   0.00000  Uiso   1.00
C449   C     0.67544   0.49369   0.50000   0.00000  Uiso   1.00
H450   H     0.54455   0.43302   0.50000   0.00000  Uiso   1.00
H451   H     0.57156   0.46325   0.50000   0.00000  Uiso   1.00
H452   H     0.64605   0.47621   0.50000   0.00000  Uiso   1.00
C453   C     0.44716   0.49702   0.50000   0.00000  Uiso   1.00
C454   C     0.45852   0.47858   0.50000   0.00000  Uiso   1.00
C455   C     0.44938   0.45916   0.50000   0.00000  Uiso   1.00
C456   C     0.50427   0.42420   0.50000   0.00000  Uiso   1.00
C457   C     0.50659   0.38082   0.50000   0.00000  Uiso   1.00
N458   N     0.50796   0.35873   0.50000   0.00000  Uiso   1.00
C459   C     0.49771   0.28070   0.50000   0.00000  Uiso   1.00
C460   C     0.49992   0.25728   0.50000   0.00000  Uiso   1.00
C461   C     0.50427   0.21314   0.50000   0.00000  Uiso   1.00
C462   C     0.48338   0.45637   0.50000   0.00000  Uiso   1.00
C463   C     0.46510   0.44512   0.50000   0.00000  Uiso   1.00
N464   N     0.47947   0.47702   0.50000   0.00000  Uiso   1.00
N465   N     0.50637   0.19076   0.50000   0.00000  Uiso   1.00
C466   C     0.49157   0.34715   0.50000   0.00000  Uiso   1.00
C467   C     0.49369   0.32456   0.50000   0.00000  Uiso   1.00
H468   H     0.43302   0.45545   0.50000   0.00000  Uiso   1.00
H469   H     0.46325   0.42844   0.50000   0.00000  Uiso   1.00
H470   H     0.47621   0.35395   0.50000   0.00000  Uiso   1.00
C471   C     0.55284   0.50298   0.50000   0.00000  Uiso   1.00
C472   C     0.54148   0.52142   0.50000   0.00000  Uiso   1.00
C473   C     0.55062   0.54084   0.50000   0.00000  Uiso   1.00
C474   C     0.49573   0.57580   0.50000   0.00000  Uiso   1.00
C475   C     0.49341   0.61918   0.50000   0.00000  Uiso   1.00
N476   N     0.49204   0.64127   0.50000   0.00000  Uiso   1.00
C477   C     0.50229   0.71930   0.50000   0.00000  Uiso   1.00
C478   C     0.50008   0.74272   0.50000   0.00000  Uiso   1.00
C479   C     0.49573   0.78686   0.50000   0.00000  Uiso   1.00
C480   C     0.51662   0.54363   0.50000   0.00000  Uiso   1.00
C481   C     0.53490   0.55488   0.50000   0.00000  Uiso   1.00
N482   N     0.52053   0.52298   0.50000   0.00000  Uiso   1.00
N483   N     0.49363   0.80924   0.50000   0.00000  Uiso   1.00
C484   C     0.50843   0.65285   0.50000   0.00000  Uiso   1.00
C485   C     0.50631   0.67544   0.50000   0.00000  Uiso   1.00
H486   H     0.56698   0.54455   0.50000   0.00000  Uiso   1.00
H487   H     0.53675   0.57156   0.50000   0.00000  Uiso   1.00
H488   H     0.52379   0.64605   0.50000   0.00000  Uiso   1.00
N489   N     0.96927   0.50246   0.00000   0.00000  Uiso   1.00
N490   N     0.03073   0.49754   0.00000   0.00000  Uiso   1.00
N491   N     0.49754   0.96927   0.00000   0.00000  Uiso   1.00
N492   N     0.50246   0.03073   0.00000   0.00000  Uiso   1.00
N493   N     0.00000   0.50000   0.06379   0.00000  Uiso   1.00
N494   N     0.50000   0.00000   0.06379   0.00000  Uiso   1.00
N495   N     0.00000   0.50000   0.93621   0.00000  Uiso   1.00
N496   N     0.50000   0.00000   0.93621   0.00000  Uiso   1.00
Cu497  Cu    0.50000   0.50000   0.50000   0.00000  Uiso   1.00
Cu498  Cu    0.00000   0.50000   0.00000   0.00000  Uiso   1.00
Cu499  Cu    0.50000   0.00000   0.00000   0.00000  Uiso   1.00
loop_
_geom_bond_atom_site_label_1
_geom_bond_atom_site_label_2
_geom_bond_distance
_geom_bond_site_symmetry_2
_ccdc_geom_bond_type
C1     C2      1.397   .     D
C1     H32     1.082   .     S
C1     C420    1.402   .     S
C2     H33     1.082   .     S
C2     C421    1.400   .     S
C3     H34     1.083   .     S
C3     C431    1.393   .     S
C3     C284    1.397   .     D
C4     C5      1.400   .     D
C4     C9      1.400   .     S
C4     C83     1.484   .     S
C5     C6      1.397   .     S
C5     H35     1.083   .     S
C6     C7      1.401   .     D
C6     H36     1.082   .     S
C7     C8      1.409   .     S
C7     N10     1.438   .     S
C8     C9      1.397   .     D
C8     H37     1.080   .     S
C9     H38     1.083   .     S
N10    C11     1.300   .     D
C11    C12     1.476   .     S
C11    H39     1.080   .     S
C12    C13     1.401   .     D
C12    C17     1.405   .     S
C13    C14     1.397   .     S
C13    H40     1.083   .     S
C14    C15     1.406   .     D
C14    H41     1.082   .     S
C15    C16     1.406   .     S
C15    C18     1.485   .     S
C16    C17     1.398   .     D
C16    H42     1.082   .     S
C17    H43     1.082   .     S
C18    C19     1.407   .     D
C18    C23     1.407   .     S
C19    C20     1.397   .     S
C19    H44     1.082   .     S
C20    C21     1.399   .     D
C20    H45     1.082   .     S
C21    C22     1.399   .     S
C21    N429    1.435   .     S
C22    C23     1.397   .     D
C22    H46     1.082   .     S
C23    H47     1.082   .     S
C24    H48     1.075   .     S
C24    C423    1.418   .     D
C24    C263    1.397   .     S
C25    C26     1.397   .     D
C25    H49     1.075   .     S
C25    C424    1.415   .     S
C26    H50     1.081   .     S
C26    C425    1.403   .     S
C27    C343    1.398   .     S
C27    N496    1.356   .     D
C27    C134    1.385   .     S
C28    C29     1.385   .     S
C28    C187    1.397   .     S
C28    N492    1.356   .     D
C29    H51     1.082   .     S
C29    C289    1.360   1_554 D
C30    H52     1.082   .     S
C30    C183    1.385   .     S
C30    C82     1.359   1_455 D
C31    C56     1.484   .     S
C31    C391    1.398   .     D
C31    C132    1.397   .     S
C53    C54     1.397   .     D
C53    H84     1.082   .     S
C53    C438    1.402   .     S
C54    H85     1.082   .     S
C54    C439    1.400   .     S
C55    H86     1.083   .     S
C55    C449    1.393   .     S
C55    C232    1.397   .     D
C56    C57     1.400   .     D
C56    C61     1.400   .     S
C57    C58     1.397   .     S
C57    H87     1.083   .     S
C58    C59     1.401   .     D
C58    H88     1.082   .     S
C59    C60     1.409   .     S
C59    N62     1.438   .     S
C60    C61     1.397   .     D
C60    H89     1.080   .     S
C61    H90     1.083   .     S
N62    C63     1.300   .     D
C63    C64     1.476   .     S
C63    H91     1.080   .     S
C64    C65     1.401   .     D
C64    C69     1.405   .     S
C65    C66     1.397   .     S
C65    H92     1.083   .     S
C66    C67     1.406   .     D
C66    H93     1.082   .     S
C67    C68     1.406   .     S
C67    C70     1.485   .     S
C68    C69     1.398   .     D
C68    H94     1.082   .     S
C69    H95     1.082   .     S
C70    C71     1.407   .     D
C70    C75     1.407   .     S
C71    C72     1.397   .     S
C71    H96     1.082   .     S
C72    C73     1.399   .     D
C72    H97     1.082   .     S
C73    C74     1.399   .     S
C73    N447    1.435   .     S
C74    C75     1.397   .     D
C74    H98     1.082   .     S
C75    H99     1.082   .     S
C76    H100    1.075   .     S
C76    C441    1.418   .     D
C76    C211    1.397   .     S
C77    C78     1.397   .     D
C77    H101    1.075   .     S
C77    C442    1.415   .     S
C78    H102    1.081   .     S
C78    C443    1.403   .     S
C79    C395    1.398   .     D
C79    C186    1.385   .     S
C79    N496    1.356   1_565 S
C80    C81     1.385   .     S
C80    C135    1.397   .     D
C80    N491    1.356   .     S
C81    H103    1.082   .     S
C81    C237    1.360   1_554 D
C82    H104    1.082   .     S
C82    C131    1.385   .     S
C82    C30     1.359   1_655 D
C83    C339    1.398   .     S
C83    C184    1.397   .     D
C105   C106    1.397   .     D
C105   H136    1.082   .     S
C105   C456    1.402   .     S
C106   H137    1.082   .     S
C106   C457    1.400   .     S
C107   H138    1.083   .     S
C107   C467    1.393   .     S
C107   C388    1.397   .     D
C108   C109    1.400   .     D
C108   C113    1.400   .     S
C108   C187    1.484   .     S
C109   C110    1.397   .     S
C109   H139    1.083   .     S
C110   C111    1.401   .     D
C110   H140    1.082   .     S
C111   C112    1.409   .     S
C111   N114    1.438   .     S
C112   C113    1.397   .     D
C112   H141    1.080   .     S
C113   H142    1.083   .     S
N114   C115    1.300   .     D
C115   C116    1.476   .     S
C115   H143    1.080   .     S
C116   C117    1.401   .     D
C116   C121    1.405   .     S
C117   C118    1.397   .     S
C117   H144    1.083   .     S
C118   C119    1.406   .     D
C118   H145    1.082   .     S
C119   C120    1.406   .     S
C119   C122    1.485   .     S
C120   C121    1.398   .     D
C120   H146    1.082   .     S
C121   H147    1.082   .     S
C122   C123    1.407   .     D
C122   C127    1.407   .     S
C123   C124    1.397   .     S
C123   H148    1.082   .     S
C124   C125    1.399   .     D
C124   H149    1.082   .     S
C125   C126    1.399   .     S
C125   N465    1.435   .     S
C126   C127    1.397   .     D
C126   H150    1.082   .     S
C127   H151    1.082   .     S
C128   H152    1.075   .     S
C128   C459    1.418   .     D
C128   C367    1.397   .     S
C129   C130    1.397   .     D
C129   H153    1.075   .     S
C129   C460    1.415   .     S
C130   H154    1.081   .     S
C130   C461    1.403   .     S
C131   C291    1.398   .     S
C131   N495    1.356   1_655 D
C132   C133    1.385   .     S
C132   N489    1.356   .     D
C133   H155    1.082   .     S
C133   C393    1.360   1_554 D
C134   H156    1.082   .     S
C134   C186    1.359   1_545 D
C135   C160    1.484   .     S
C135   C235    1.398   .     S
C157   C158    1.397   .     S
C157   H188    1.082   .     S
C157   C474    1.402   .     D
C158   H189    1.082   .     S
C158   C475    1.400   .     D
C159   H190    1.083   .     S
C159   C485    1.393   .     D
C159   C336    1.397   .     S
C160   C161    1.400   .     D
C160   C165    1.400   .     S
C161   C162    1.397   .     S
C161   H191    1.083   .     S
C162   C163    1.401   .     D
C162   H192    1.082   .     S
C163   C164    1.409   .     S
C163   N166    1.438   .     S
C164   C165    1.397   .     D
C164   H193    1.080   .     S
C165   H194    1.083   .     S
N166   C167    1.300   .     D
C167   C168    1.476   .     S
C167   H195    1.080   .     S
C168   C169    1.401   .     D
C168   C173    1.405   .     S
C169   C170    1.397   .     S
C169   H196    1.083   .     S
C170   C171    1.406   .     D
C170   H197    1.082   .     S
C171   C172    1.406   .     S
C171   C174    1.485   .     S
C172   C173    1.398   .     D
C172   H198    1.082   .     S
C173   H199    1.082   .     S
C174   C175    1.407   .     D
C174   C179    1.407   .     S
C175   C176    1.397   .     S
C175   H200    1.082   .     S
C176   C177    1.399   .     D
C176   H201    1.082   .     S
C177   C178    1.399   .     S
C177   N483    1.435   .     S
C178   C179    1.397   .     D
C178   H202    1.082   .     S
C179   H203    1.082   .     S
C180   H204    1.075   .     S
C180   C477    1.418   .     S
C180   C315    1.397   .     D
C181   C182    1.397   .     S
C181   H205    1.075   .     S
C181   C478    1.415   .     D
C182   H206    1.081   .     S
C182   C479    1.403   .     D
C183   C239    1.398   .     D
C183   N495    1.356   .     S
C184   C185    1.385   .     S
C184   N490    1.356   .     S
C185   H207    1.082   .     S
C185   C341    1.360   1_554 D
C186   H208    1.082   .     S
C186   C134    1.359   1_565 D
C187   C287    1.398   .     D
C209   C210    1.397   .     S
C209   H240    1.082   .     S
C209   C438    1.402   .     D
C210   H241    1.082   .     S
C210   C439    1.400   .     D
C211   H242    1.083   .     S
C211   C449    1.393   .     D
C212   C213    1.400   .     D
C212   C217    1.400   .     S
C212   C291    1.484   .     S
C213   C214    1.397   .     S
C213   H243    1.083   .     S
C214   C215    1.401   .     D
C214   H244    1.082   .     S
C215   C216    1.409   .     S
C215   N218    1.438   .     S
C216   C217    1.397   .     D
C216   H245    1.080   .     S
C217   H246    1.083   .     S
N218   C219    1.300   .     D
C219   C220    1.476   .     S
C219   H247    1.080   .     S
C220   C221    1.401   .     D
C220   C225    1.405   .     S
C221   C222    1.397   .     S
C221   H248    1.083   .     S
C222   C223    1.406   .     D
C222   H249    1.082   .     S
C223   C224    1.406   .     S
C223   C226    1.485   .     S
C224   C225    1.398   .     D
C224   H250    1.082   .     S
C225   H251    1.082   .     S
C226   C227    1.407   .     D
C226   C231    1.407   .     S
C227   C228    1.397   .     S
C227   H252    1.082   .     S
C228   C229    1.399   .     D
C228   H253    1.082   .     S
C229   C230    1.399   .     S
C229   N447    1.435   .     S
C230   C231    1.397   .     D
C230   H254    1.082   .     S
C231   H255    1.082   .     S
C232   H256    1.075   .     S
C232   C441    1.418   .     S
C233   C234    1.397   .     S
C233   H257    1.075   .     S
C233   C442    1.415   .     D
C234   H258    1.081   .     S
C234   C443    1.403   .     D
C235   C342    1.385   .     S
C235   N494    1.356   1_565 D
C236   C237    1.385   .     S
C236   C395    1.397   .     S
C236   N491    1.356   1_556 D
C237   H259    1.082   .     S
C237   C81     1.360   1_556 D
C238   H260    1.082   .     S
C238   C391    1.385   .     S
C238   C290    1.359   1_655 D
C239   C264    1.484   .     S
C239   C340    1.397   .     S
C261   C262    1.397   .     S
C261   H292    1.082   .     S
C261   C420    1.402   .     D
C262   H293    1.082   .     S
C262   C421    1.400   .     D
C263   H294    1.083   .     S
C263   C431    1.393   .     D
C264   C265    1.400   .     D
C264   C269    1.400   .     S
C265   C266    1.397   .     S
C265   H295    1.083   .     S
C266   C267    1.401   .     D
C266   H296    1.082   .     S
C267   C268    1.409   .     S
C267   N270    1.438   .     S
C268   C269    1.397   .     D
C268   H297    1.080   .     S
C269   H298    1.083   .     S
N270   C271    1.300   .     D
C271   C272    1.476   .     S
C271   H299    1.080   .     S
C272   C273    1.401   .     D
C272   C277    1.405   .     S
C273   C274    1.397   .     S
C273   H300    1.083   .     S
C274   C275    1.406   .     D
C274   H301    1.082   .     S
C275   C276    1.406   .     S
C275   C278    1.485   .     S
C276   C277    1.398   .     D
C276   H302    1.082   .     S
C277   H303    1.082   .     S
C278   C279    1.407   .     D
C278   C283    1.407   .     S
C279   C280    1.397   .     S
C279   H304    1.082   .     S
C280   C281    1.399   .     D
C280   H305    1.082   .     S
C281   C282    1.399   .     S
C281   N429    1.435   .     S
C282   C283    1.397   .     D
C282   H306    1.082   .     S
C283   H307    1.082   .     S
C284   H308    1.075   .     S
C284   C423    1.418   .     S
C285   C286    1.397   .     S
C285   H309    1.075   .     S
C285   C424    1.415   .     D
C286   H310    1.081   .     S
C286   C425    1.403   .     D
C287   N494    1.356   .     S
C287   C394    1.385   .     S
C288   C289    1.385   .     S
C288   C343    1.397   .     D
C288   N492    1.356   1_556 S
C289   H311    1.082   .     S
C289   C29     1.360   1_556 D
C290   H312    1.082   .     S
C290   C339    1.385   .     S
C290   C238    1.359   1_455 D
C291   C392    1.397   .     D
C313   C314    1.397   .     D
C313   H344    1.082   .     S
C313   C474    1.402   .     S
C314   H345    1.082   .     S
C314   C475    1.400   .     S
C315   H346    1.083   .     S
C315   C485    1.393   .     S
C316   C317    1.400   .     D
C316   C321    1.400   .     S
C316   C395    1.484   .     S
C317   C318    1.397   .     S
C317   H347    1.083   .     S
C318   C319    1.401   .     D
C318   H348    1.082   .     S
C319   C320    1.409   .     S
C319   N322    1.438   .     S
C320   C321    1.397   .     D
C320   H349    1.080   .     S
C321   H350    1.083   .     S
N322   C323    1.300   .     D
C323   C324    1.476   .     S
C323   H351    1.080   .     S
C324   C325    1.401   .     D
C324   C329    1.405   .     S
C325   C326    1.397   .     S
C325   H352    1.083   .     S
C326   C327    1.406   .     D
C326   H353    1.082   .     S
C327   C328    1.406   .     S
C327   C330    1.485   .     S
C328   C329    1.398   .     D
C328   H354    1.082   .     S
C329   H355    1.082   .     S
C330   C331    1.407   .     D
C330   C335    1.407   .     S
C331   C332    1.397   .     S
C331   H356    1.082   .     S
C332   C333    1.399   .     D
C332   H357    1.082   .     S
C333   C334    1.399   .     S
C333   N483    1.435   .     S
C334   C335    1.397   .     D
C334   H358    1.082   .     S
C335   H359    1.082   .     S
C336   H360    1.075   .     S
C336   C477    1.418   .     D
C337   C338    1.397   .     D
C337   H361    1.075   .     S
C337   C478    1.415   .     S
C338   H362    1.081   .     S
C338   C479    1.403   .     S
C339   N493    1.356   .     D
C340   C341    1.385   .     S
C340   N490    1.356   1_556 D
C341   H363    1.082   .     S
C341   C185    1.360   1_556 D
C342   H364    1.082   .     S
C342   C394    1.359   1_565 D
C343   C368    1.484   .     S
C365   C366    1.397   .     S
C365   H396    1.082   .     S
C365   C456    1.402   .     D
C366   H397    1.082   .     S
C366   C457    1.400   .     D
C367   H398    1.083   .     S
C367   C467    1.393   .     D
C368   C369    1.400   .     D
C368   C373    1.400   .     S
C369   C370    1.397   .     S
C369   H399    1.083   .     S
C370   C371    1.401   .     D
C370   H400    1.082   .     S
C371   C372    1.409   .     S
C371   N374    1.438   .     S
C372   C373    1.397   .     D
C372   H401    1.080   .     S
C373   H402    1.083   .     S
N374   C375    1.300   .     D
C375   C376    1.476   .     S
C375   H403    1.080   .     S
C376   C377    1.401   .     D
C376   C381    1.405   .     S
C377   C378    1.397   .     S
C377   H404    1.083   .     S
C378   C379    1.406   .     D
C378   H405    1.082   .     S
C379   C380    1.406   .     S
C379   C382    1.485   .     S
C380   C381    1.398   .     D
C380   H406    1.082   .     S
C381   H407    1.082   .     S
C382   C383    1.407   .     D
C382   C387    1.407   .     S
C383   C384    1.397   .     S
C383   H408    1.082   .     S
C384   C385    1.399   .     D
C384   H409    1.082   .     S
C385   C386    1.399   .     S
C385   N465    1.435   .     S
C386   C387    1.397   .     D
C386   H410    1.082   .     S
C387   H411    1.082   .     S
C388   H412    1.075   .     S
C388   C459    1.418   .     S
C389   C390    1.397   .     S
C389   H413    1.075   .     S
C389   C460    1.415   .     D
C390   H414    1.081   .     S
C390   C461    1.403   .     D
C391   N493    1.356   1_655 S
C392   C393    1.385   .     S
C392   N489    1.356   1_556 S
C393   H415    1.082   .     S
C393   C133    1.360   1_556 D
C394   H416    1.082   .     S
C394   C342    1.359   1_545 D
C417   C418    1.397   .     S
C417   C480    1.397   .     D
C417   C474    1.483   .     S
C418   C419    1.385   .     S
C418   N428    1.355   .     D
C419   C427    1.360   .     D
C419   H432    1.082   .     S
C420   C453    1.483   .     S
C421   N422    1.428   .     S
N422   C430    1.295   .     D
C423   C424    1.518   .     S
C425   N429    1.450   .     S
C426   C427    1.385   .     S
C426   N428    1.356   .     S
C426   C453    1.397   .     D
C427   H433    1.083   .     S
N428   Cu497   1.988   .     S
C430   C431    1.464   .     S
C430   H434    1.084   .     S
C435   C436    1.397   .     S
C435   C462    1.397   .     D
C435   C456    1.483   .     S
C436   C437    1.385   .     S
C436   N446    1.355   .     D
C437   C445    1.360   .     D
C437   H450    1.082   .     S
C438   C471    1.483   .     S
C439   N440    1.428   .     S
N440   C448    1.295   .     D
C441   C442    1.518   .     S
C443   N447    1.450   .     S
C444   C445    1.385   .     S
C444   N446    1.356   .     S
C444   C471    1.397   .     D
C445   H451    1.083   .     S
N446   Cu497   1.988   .     S
C448   C449    1.464   .     S
C448   H452    1.084   .     S
C453   C454    1.397   .     S
C454   C455    1.385   .     S
C454   N464    1.355   .     D
C455   C463    1.360   .     D
C455   H468    1.082   .     S
C457   N458    1.428   .     S
N458   C466    1.295   .     D
C459   C460    1.518   .     S
C461   N465    1.450   .     S
C462   C463    1.385   .     S
C462   N464    1.356   .     S
C463   H469    1.083   .     S
N464   Cu497   1.988   .     S
C466   C467    1.464   .     S
C466   H470    1.084   .     S
C471   C472    1.397   .     S
C472   C473    1.385   .     S
C472   N482    1.355   .     D
C473   C481    1.360   .     D
C473   H486    1.082   .     S
C475   N476    1.428   .     S
N476   C484    1.295   .     D
C477   C478    1.518   .     S
C479   N483    1.450   .     S
C480   C481    1.385   .     S
C480   N482    1.356   .     S
C481   H487    1.083   .     S
N482   Cu497   1.988   .     S
C484   C485    1.464   .     S
C484   H488    1.084   .     S
N489   C392    1.356   1_554 S
N489   Cu498   1.989   1_655 S
N490   Cu498   1.989   .     S
N490   C340    1.356   1_554 D
N491   C236    1.356   1_554 D
N491   Cu499   1.989   1_565 S
N492   Cu499   1.989   .     S
N492   C288    1.356   1_554 S
N493   Cu498   1.986   .     S
N493   C391    1.356   1_455 S
N494   Cu499   1.986   .     S
N494   C235    1.356   1_545 D
N495   C131    1.356   1_455 D
N495   Cu498   1.986   1_556 S
N496   C79     1.356   1_545 S
N496   Cu499   1.986   1_556 S
Cu498  N489    1.989   1_455 S
Cu498  N495    1.986   1_554 S
Cu499  N491    1.989   1_545 S
Cu499  N496    1.986   1_554 S
