data_915
_audit_creation_date              2023-09-08
_audit_creation_method            'Materials Studio'
_symmetry_space_group_name_H-M    'P1'
_symmetry_Int_Tables_number       1
_symmetry_cell_setting            triclinic
loop_
_symmetry_equiv_pos_as_xyz
  x,y,z
_cell_length_a                    65.6660
_cell_length_b                    65.6660
_cell_length_c                    31.8663
_cell_angle_alpha                 90.0000
_cell_angle_beta                  90.0000
_cell_angle_gamma                 90.0000
loop_
_atom_site_label
_atom_site_type_symbol
_atom_site_fract_x
_atom_site_fract_y
_atom_site_fract_z
_atom_site_U_iso_or_equiv
_atom_site_adp_type
_atom_site_occupancy
C1     C     0.91348   0.99593   0.53905   0.00000  Uiso   1.00
C2     C     0.89189   0.99493   0.53902   0.00000  Uiso   1.00
C3     C     0.81422   0.00692   0.46122   0.00000  Uiso   1.00
C4     C     0.55338   0.99688   0.11170   0.00000  Uiso   1.00
C5     C     0.56310   0.01497   0.12595   0.00000  Uiso   1.00
C6     C     0.57750   0.01413   0.15944   0.00000  Uiso   1.00
C7     C     0.58223   0.99530   0.17941   0.00000  Uiso   1.00
C8     C     0.57282   0.97705   0.16421   0.00000  Uiso   1.00
C9     C     0.55845   0.97790   0.13067   0.00000  Uiso   1.00
N10    N     0.59661   0.99547   0.21472   0.00000  Uiso   1.00
C11    C     0.59931   0.98077   0.24267   0.00000  Uiso   1.00
C12    C     0.61424   0.98312   0.27830   0.00000  Uiso   1.00
C13    C     0.61568   0.96759   0.30964   0.00000  Uiso   1.00
C14    C     0.62918   0.96974   0.34446   0.00000  Uiso   1.00
C15    C     0.64156   0.98748   0.34861   0.00000  Uiso   1.00
C16    C     0.64030   0.00291   0.31684   0.00000  Uiso   1.00
C17    C     0.62678   0.00077   0.28203   0.00000  Uiso   1.00
C18    C     0.65531   0.99008   0.38654   0.00000  Uiso   1.00
C19    C     0.66635   0.97316   0.40333   0.00000  Uiso   1.00
C20    C     0.67852   0.97545   0.44019   0.00000  Uiso   1.00
C21    C     0.67989   0.99466   0.46074   0.00000  Uiso   1.00
C22    C     0.66923   0.01165   0.44386   0.00000  Uiso   1.00
C23    C     0.65703   0.00940   0.40704   0.00000  Uiso   1.00
C24    C     0.79268   0.00516   0.53892   0.00000  Uiso   1.00
C25    C     0.74641   0.00140   0.53881   0.00000  Uiso   1.00
C26    C     0.72489   0.99958   0.53875   0.00000  Uiso   1.00
C27    C     0.00095   0.51660   0.90943   0.00000  Uiso   1.00
C28    C     0.00240   0.54345   0.03463   0.00000  Uiso   1.00
C29    C     0.00363   0.56393   0.02191   0.00000  Uiso   1.00
C30    C     0.51049   0.99941   0.86668   0.00000  Uiso   1.00
C31    C     0.46273   0.00212   0.07774   0.00000  Uiso   1.00
H32    H     0.92172   0.99629   0.56939   0.00000  Uiso   1.00
H33    H     0.88360   0.99451   0.56928   0.00000  Uiso   1.00
H34    H     0.82246   0.00761   0.43089   0.00000  Uiso   1.00
H35    H     0.55933   0.02973   0.11147   0.00000  Uiso   1.00
H36    H     0.58473   0.02827   0.17046   0.00000  Uiso   1.00
H37    H     0.57650   0.96211   0.17772   0.00000  Uiso   1.00
H38    H     0.55111   0.96381   0.11969   0.00000  Uiso   1.00
H39    H     0.59003   0.96688   0.24159   0.00000  Uiso   1.00
H40    H     0.60613   0.95388   0.30751   0.00000  Uiso   1.00
H41    H     0.62956   0.95771   0.36868   0.00000  Uiso   1.00
H42    H     0.64984   0.01663   0.31882   0.00000  Uiso   1.00
H43    H     0.62607   0.01297   0.25823   0.00000  Uiso   1.00
H44    H     0.66557   0.95817   0.38797   0.00000  Uiso   1.00
H45    H     0.68672   0.96225   0.45310   0.00000  Uiso   1.00
H46    H     0.67018   0.02655   0.45957   0.00000  Uiso   1.00
H47    H     0.64853   0.02266   0.39527   0.00000  Uiso   1.00
H48    H     0.78552   0.00458   0.57013   0.00000  Uiso   1.00
H49    H     0.75358   0.00207   0.57001   0.00000  Uiso   1.00
H50    H     0.71702   0.99905   0.56946   0.00000  Uiso   1.00
H51    H     0.00450   0.57752   0.04213   0.00000  Uiso   1.00
H52    H     0.52015   0.99890   0.83826   0.00000  Uiso   1.00
C53    C     0.41348   0.49593   0.03905   0.00000  Uiso   1.00
C54    C     0.39189   0.49493   0.03902   0.00000  Uiso   1.00
C55    C     0.31422   0.50692   0.96122   0.00000  Uiso   1.00
C56    C     0.05338   0.49688   0.61170   0.00000  Uiso   1.00
C57    C     0.06310   0.51497   0.62595   0.00000  Uiso   1.00
C58    C     0.07750   0.51413   0.65944   0.00000  Uiso   1.00
C59    C     0.08223   0.49530   0.67941   0.00000  Uiso   1.00
C60    C     0.07282   0.47705   0.66421   0.00000  Uiso   1.00
C61    C     0.05845   0.47790   0.63067   0.00000  Uiso   1.00
N62    N     0.09661   0.49547   0.71472   0.00000  Uiso   1.00
C63    C     0.09931   0.48077   0.74267   0.00000  Uiso   1.00
C64    C     0.11424   0.48312   0.77830   0.00000  Uiso   1.00
C65    C     0.11568   0.46759   0.80964   0.00000  Uiso   1.00
C66    C     0.12918   0.46974   0.84446   0.00000  Uiso   1.00
C67    C     0.14156   0.48748   0.84861   0.00000  Uiso   1.00
C68    C     0.14030   0.50291   0.81684   0.00000  Uiso   1.00
C69    C     0.12678   0.50077   0.78203   0.00000  Uiso   1.00
C70    C     0.15531   0.49008   0.88654   0.00000  Uiso   1.00
C71    C     0.16635   0.47316   0.90333   0.00000  Uiso   1.00
C72    C     0.17852   0.47545   0.94019   0.00000  Uiso   1.00
C73    C     0.17989   0.49466   0.96074   0.00000  Uiso   1.00
C74    C     0.16923   0.51165   0.94386   0.00000  Uiso   1.00
C75    C     0.15703   0.50940   0.90704   0.00000  Uiso   1.00
C76    C     0.29268   0.50516   0.03892   0.00000  Uiso   1.00
C77    C     0.24641   0.50140   0.03881   0.00000  Uiso   1.00
C78    C     0.22489   0.49958   0.03875   0.00000  Uiso   1.00
C79    C     0.50095   0.01660   0.40943   0.00000  Uiso   1.00
C80    C     0.50240   0.04345   0.53463   0.00000  Uiso   1.00
C81    C     0.50363   0.06393   0.52191   0.00000  Uiso   1.00
C82    C     0.01049   0.49941   0.36668   0.00000  Uiso   1.00
C83    C     0.96273   0.50212   0.57774   0.00000  Uiso   1.00
H84    H     0.42172   0.49629   0.06939   0.00000  Uiso   1.00
H85    H     0.38360   0.49451   0.06928   0.00000  Uiso   1.00
H86    H     0.32246   0.50761   0.93089   0.00000  Uiso   1.00
H87    H     0.05933   0.52973   0.61147   0.00000  Uiso   1.00
H88    H     0.08473   0.52827   0.67046   0.00000  Uiso   1.00
H89    H     0.07650   0.46211   0.67772   0.00000  Uiso   1.00
H90    H     0.05111   0.46381   0.61969   0.00000  Uiso   1.00
H91    H     0.09003   0.46688   0.74159   0.00000  Uiso   1.00
H92    H     0.10613   0.45388   0.80751   0.00000  Uiso   1.00
H93    H     0.12956   0.45771   0.86868   0.00000  Uiso   1.00
H94    H     0.14984   0.51663   0.81882   0.00000  Uiso   1.00
H95    H     0.12607   0.51297   0.75823   0.00000  Uiso   1.00
H96    H     0.16557   0.45817   0.88797   0.00000  Uiso   1.00
H97    H     0.18672   0.46225   0.95310   0.00000  Uiso   1.00
H98    H     0.17018   0.52655   0.95957   0.00000  Uiso   1.00
H99    H     0.14853   0.52266   0.89527   0.00000  Uiso   1.00
H100   H     0.28552   0.50458   0.07013   0.00000  Uiso   1.00
H101   H     0.25358   0.50207   0.07001   0.00000  Uiso   1.00
H102   H     0.21702   0.49905   0.06946   0.00000  Uiso   1.00
H103   H     0.50450   0.07752   0.54213   0.00000  Uiso   1.00
H104   H     0.02015   0.49890   0.33826   0.00000  Uiso   1.00
C105   C     0.08652   0.00407   0.53905   0.00000  Uiso   1.00
C106   C     0.10811   0.00507   0.53902   0.00000  Uiso   1.00
C107   C     0.18578   0.99308   0.46122   0.00000  Uiso   1.00
C108   C     0.44662   0.00312   0.11170   0.00000  Uiso   1.00
C109   C     0.43690   0.98503   0.12595   0.00000  Uiso   1.00
C110   C     0.42250   0.98587   0.15944   0.00000  Uiso   1.00
C111   C     0.41777   0.00470   0.17941   0.00000  Uiso   1.00
C112   C     0.42718   0.02295   0.16421   0.00000  Uiso   1.00
C113   C     0.44155   0.02210   0.13067   0.00000  Uiso   1.00
N114   N     0.40339   0.00453   0.21472   0.00000  Uiso   1.00
C115   C     0.40069   0.01923   0.24267   0.00000  Uiso   1.00
C116   C     0.38576   0.01688   0.27830   0.00000  Uiso   1.00
C117   C     0.38432   0.03241   0.30964   0.00000  Uiso   1.00
C118   C     0.37082   0.03026   0.34446   0.00000  Uiso   1.00
C119   C     0.35844   0.01252   0.34861   0.00000  Uiso   1.00
C120   C     0.35970   0.99709   0.31684   0.00000  Uiso   1.00
C121   C     0.37322   0.99923   0.28203   0.00000  Uiso   1.00
C122   C     0.34469   0.00992   0.38654   0.00000  Uiso   1.00
C123   C     0.33365   0.02684   0.40333   0.00000  Uiso   1.00
C124   C     0.32148   0.02455   0.44019   0.00000  Uiso   1.00
C125   C     0.32011   0.00534   0.46074   0.00000  Uiso   1.00
C126   C     0.33077   0.98835   0.44386   0.00000  Uiso   1.00
C127   C     0.34297   0.99060   0.40704   0.00000  Uiso   1.00
C128   C     0.20732   0.99484   0.53892   0.00000  Uiso   1.00
C129   C     0.25359   0.99860   0.53881   0.00000  Uiso   1.00
C130   C     0.27511   0.00042   0.53875   0.00000  Uiso   1.00
C131   C     0.99905   0.48340   0.90943   0.00000  Uiso   1.00
C132   C     0.99760   0.45655   0.03463   0.00000  Uiso   1.00
C133   C     0.99637   0.43607   0.02191   0.00000  Uiso   1.00
C134   C     0.48951   0.00059   0.86668   0.00000  Uiso   1.00
C135   C     0.53727   0.99788   0.07774   0.00000  Uiso   1.00
H136   H     0.07828   0.00371   0.56939   0.00000  Uiso   1.00
H137   H     0.11640   0.00549   0.56928   0.00000  Uiso   1.00
H138   H     0.17754   0.99239   0.43089   0.00000  Uiso   1.00
H139   H     0.44067   0.97027   0.11147   0.00000  Uiso   1.00
H140   H     0.41527   0.97173   0.17046   0.00000  Uiso   1.00
H141   H     0.42350   0.03789   0.17772   0.00000  Uiso   1.00
H142   H     0.44889   0.03619   0.11969   0.00000  Uiso   1.00
H143   H     0.40997   0.03312   0.24159   0.00000  Uiso   1.00
H144   H     0.39387   0.04612   0.30751   0.00000  Uiso   1.00
H145   H     0.37044   0.04229   0.36868   0.00000  Uiso   1.00
H146   H     0.35016   0.98337   0.31882   0.00000  Uiso   1.00
H147   H     0.37393   0.98703   0.25823   0.00000  Uiso   1.00
H148   H     0.33443   0.04183   0.38797   0.00000  Uiso   1.00
H149   H     0.31328   0.03775   0.45310   0.00000  Uiso   1.00
H150   H     0.32982   0.97345   0.45957   0.00000  Uiso   1.00
H151   H     0.35147   0.97734   0.39527   0.00000  Uiso   1.00
H152   H     0.21448   0.99542   0.57013   0.00000  Uiso   1.00
H153   H     0.24642   0.99793   0.57001   0.00000  Uiso   1.00
H154   H     0.28298   0.00095   0.56946   0.00000  Uiso   1.00
H155   H     0.99550   0.42248   0.04213   0.00000  Uiso   1.00
H156   H     0.47985   0.00110   0.83826   0.00000  Uiso   1.00
C157   C     0.58652   0.50407   0.03905   0.00000  Uiso   1.00
C158   C     0.60811   0.50507   0.03902   0.00000  Uiso   1.00
C159   C     0.68578   0.49308   0.96122   0.00000  Uiso   1.00
C160   C     0.94662   0.50312   0.61170   0.00000  Uiso   1.00
C161   C     0.93690   0.48503   0.62595   0.00000  Uiso   1.00
C162   C     0.92250   0.48587   0.65944   0.00000  Uiso   1.00
C163   C     0.91777   0.50470   0.67941   0.00000  Uiso   1.00
C164   C     0.92718   0.52295   0.66421   0.00000  Uiso   1.00
C165   C     0.94155   0.52210   0.63067   0.00000  Uiso   1.00
N166   N     0.90339   0.50453   0.71472   0.00000  Uiso   1.00
C167   C     0.90069   0.51923   0.74267   0.00000  Uiso   1.00
C168   C     0.88576   0.51688   0.77830   0.00000  Uiso   1.00
C169   C     0.88432   0.53241   0.80964   0.00000  Uiso   1.00
C170   C     0.87082   0.53026   0.84446   0.00000  Uiso   1.00
C171   C     0.85844   0.51252   0.84861   0.00000  Uiso   1.00
C172   C     0.85970   0.49709   0.81684   0.00000  Uiso   1.00
C173   C     0.87322   0.49923   0.78203   0.00000  Uiso   1.00
C174   C     0.84469   0.50992   0.88654   0.00000  Uiso   1.00
C175   C     0.83365   0.52684   0.90333   0.00000  Uiso   1.00
C176   C     0.82148   0.52455   0.94019   0.00000  Uiso   1.00
C177   C     0.82011   0.50534   0.96074   0.00000  Uiso   1.00
C178   C     0.83077   0.48835   0.94386   0.00000  Uiso   1.00
C179   C     0.84297   0.49060   0.90704   0.00000  Uiso   1.00
C180   C     0.70732   0.49484   0.03892   0.00000  Uiso   1.00
C181   C     0.75359   0.49860   0.03881   0.00000  Uiso   1.00
C182   C     0.77511   0.50042   0.03875   0.00000  Uiso   1.00
C183   C     0.49905   0.98340   0.40943   0.00000  Uiso   1.00
C184   C     0.49760   0.95655   0.53463   0.00000  Uiso   1.00
C185   C     0.49637   0.93607   0.52191   0.00000  Uiso   1.00
C186   C     0.98951   0.50059   0.36668   0.00000  Uiso   1.00
C187   C     0.03727   0.49788   0.57774   0.00000  Uiso   1.00
H188   H     0.57828   0.50371   0.06939   0.00000  Uiso   1.00
H189   H     0.61640   0.50549   0.06928   0.00000  Uiso   1.00
H190   H     0.67754   0.49239   0.93089   0.00000  Uiso   1.00
H191   H     0.94067   0.47027   0.61147   0.00000  Uiso   1.00
H192   H     0.91527   0.47173   0.67046   0.00000  Uiso   1.00
H193   H     0.92350   0.53789   0.67772   0.00000  Uiso   1.00
H194   H     0.94889   0.53619   0.61969   0.00000  Uiso   1.00
H195   H     0.90997   0.53312   0.74159   0.00000  Uiso   1.00
H196   H     0.89387   0.54612   0.80751   0.00000  Uiso   1.00
H197   H     0.87044   0.54229   0.86868   0.00000  Uiso   1.00
H198   H     0.85016   0.48337   0.81882   0.00000  Uiso   1.00
H199   H     0.87393   0.48703   0.75823   0.00000  Uiso   1.00
H200   H     0.83443   0.54183   0.88797   0.00000  Uiso   1.00
H201   H     0.81328   0.53775   0.95310   0.00000  Uiso   1.00
H202   H     0.82982   0.47345   0.95957   0.00000  Uiso   1.00
H203   H     0.85147   0.47734   0.89527   0.00000  Uiso   1.00
H204   H     0.71448   0.49542   0.07013   0.00000  Uiso   1.00
H205   H     0.74642   0.49793   0.07001   0.00000  Uiso   1.00
H206   H     0.78298   0.50095   0.06946   0.00000  Uiso   1.00
H207   H     0.49550   0.92248   0.54213   0.00000  Uiso   1.00
H208   H     0.97985   0.50110   0.33826   0.00000  Uiso   1.00
C209   C     0.00407   0.91348   0.53905   0.00000  Uiso   1.00
C210   C     0.00507   0.89189   0.53902   0.00000  Uiso   1.00
C211   C     0.99308   0.81422   0.46122   0.00000  Uiso   1.00
C212   C     0.00312   0.55338   0.11170   0.00000  Uiso   1.00
C213   C     0.98503   0.56310   0.12595   0.00000  Uiso   1.00
C214   C     0.98587   0.57750   0.15944   0.00000  Uiso   1.00
C215   C     0.00470   0.58223   0.17941   0.00000  Uiso   1.00
C216   C     0.02295   0.57282   0.16421   0.00000  Uiso   1.00
C217   C     0.02210   0.55845   0.13067   0.00000  Uiso   1.00
N218   N     0.00453   0.59661   0.21472   0.00000  Uiso   1.00
C219   C     0.01923   0.59931   0.24267   0.00000  Uiso   1.00
C220   C     0.01688   0.61424   0.27830   0.00000  Uiso   1.00
C221   C     0.03241   0.61568   0.30964   0.00000  Uiso   1.00
C222   C     0.03026   0.62918   0.34446   0.00000  Uiso   1.00
C223   C     0.01252   0.64156   0.34861   0.00000  Uiso   1.00
C224   C     0.99709   0.64030   0.31684   0.00000  Uiso   1.00
C225   C     0.99923   0.62678   0.28203   0.00000  Uiso   1.00
C226   C     0.00992   0.65531   0.38654   0.00000  Uiso   1.00
C227   C     0.02684   0.66635   0.40333   0.00000  Uiso   1.00
C228   C     0.02455   0.67852   0.44019   0.00000  Uiso   1.00
C229   C     0.00534   0.67989   0.46074   0.00000  Uiso   1.00
C230   C     0.98835   0.66923   0.44386   0.00000  Uiso   1.00
C231   C     0.99060   0.65703   0.40704   0.00000  Uiso   1.00
C232   C     0.99484   0.79268   0.53892   0.00000  Uiso   1.00
C233   C     0.99860   0.74641   0.53881   0.00000  Uiso   1.00
C234   C     0.00042   0.72489   0.53875   0.00000  Uiso   1.00
C235   C     0.48340   0.00095   0.90943   0.00000  Uiso   1.00
C236   C     0.45655   0.00240   0.03463   0.00000  Uiso   1.00
C237   C     0.43607   0.00363   0.02191   0.00000  Uiso   1.00
C238   C     0.00059   0.51049   0.86668   0.00000  Uiso   1.00
C239   C     0.99788   0.46273   0.07774   0.00000  Uiso   1.00
H240   H     0.00371   0.92172   0.56939   0.00000  Uiso   1.00
H241   H     0.00549   0.88360   0.56928   0.00000  Uiso   1.00
H242   H     0.99239   0.82246   0.43089   0.00000  Uiso   1.00
H243   H     0.97027   0.55933   0.11147   0.00000  Uiso   1.00
H244   H     0.97173   0.58473   0.17046   0.00000  Uiso   1.00
H245   H     0.03789   0.57650   0.17772   0.00000  Uiso   1.00
H246   H     0.03619   0.55111   0.11969   0.00000  Uiso   1.00
H247   H     0.03312   0.59003   0.24159   0.00000  Uiso   1.00
H248   H     0.04612   0.60613   0.30751   0.00000  Uiso   1.00
H249   H     0.04229   0.62956   0.36868   0.00000  Uiso   1.00
H250   H     0.98337   0.64984   0.31882   0.00000  Uiso   1.00
H251   H     0.98703   0.62607   0.25823   0.00000  Uiso   1.00
H252   H     0.04183   0.66557   0.38797   0.00000  Uiso   1.00
H253   H     0.03775   0.68672   0.45310   0.00000  Uiso   1.00
H254   H     0.97345   0.67018   0.45957   0.00000  Uiso   1.00
H255   H     0.97734   0.64853   0.39527   0.00000  Uiso   1.00
H256   H     0.99542   0.78552   0.57013   0.00000  Uiso   1.00
H257   H     0.99793   0.75358   0.57001   0.00000  Uiso   1.00
H258   H     0.00095   0.71702   0.56946   0.00000  Uiso   1.00
H259   H     0.42248   0.00450   0.04213   0.00000  Uiso   1.00
H260   H     0.00110   0.52015   0.83826   0.00000  Uiso   1.00
C261   C     0.50407   0.41348   0.03905   0.00000  Uiso   1.00
C262   C     0.50507   0.39189   0.03902   0.00000  Uiso   1.00
C263   C     0.49308   0.31422   0.96122   0.00000  Uiso   1.00
C264   C     0.50312   0.05338   0.61170   0.00000  Uiso   1.00
C265   C     0.48503   0.06310   0.62595   0.00000  Uiso   1.00
C266   C     0.48587   0.07750   0.65944   0.00000  Uiso   1.00
C267   C     0.50470   0.08223   0.67941   0.00000  Uiso   1.00
C268   C     0.52295   0.07282   0.66421   0.00000  Uiso   1.00
C269   C     0.52210   0.05845   0.63067   0.00000  Uiso   1.00
N270   N     0.50453   0.09661   0.71472   0.00000  Uiso   1.00
C271   C     0.51923   0.09931   0.74267   0.00000  Uiso   1.00
C272   C     0.51688   0.11424   0.77830   0.00000  Uiso   1.00
C273   C     0.53241   0.11568   0.80964   0.00000  Uiso   1.00
C274   C     0.53026   0.12918   0.84446   0.00000  Uiso   1.00
C275   C     0.51252   0.14156   0.84861   0.00000  Uiso   1.00
C276   C     0.49709   0.14030   0.81684   0.00000  Uiso   1.00
C277   C     0.49923   0.12678   0.78203   0.00000  Uiso   1.00
C278   C     0.50992   0.15531   0.88654   0.00000  Uiso   1.00
C279   C     0.52684   0.16635   0.90333   0.00000  Uiso   1.00
C280   C     0.52455   0.17852   0.94019   0.00000  Uiso   1.00
C281   C     0.50534   0.17989   0.96074   0.00000  Uiso   1.00
C282   C     0.48835   0.16923   0.94386   0.00000  Uiso   1.00
C283   C     0.49060   0.15703   0.90704   0.00000  Uiso   1.00
C284   C     0.49484   0.29268   0.03892   0.00000  Uiso   1.00
C285   C     0.49860   0.24641   0.03881   0.00000  Uiso   1.00
C286   C     0.50042   0.22489   0.03875   0.00000  Uiso   1.00
C287   C     0.98340   0.50095   0.40943   0.00000  Uiso   1.00
C288   C     0.95655   0.50240   0.53463   0.00000  Uiso   1.00
C289   C     0.93607   0.50363   0.52191   0.00000  Uiso   1.00
C290   C     0.50059   0.01049   0.36668   0.00000  Uiso   1.00
C291   C     0.49788   0.96273   0.57774   0.00000  Uiso   1.00
H292   H     0.50371   0.42172   0.06939   0.00000  Uiso   1.00
H293   H     0.50549   0.38360   0.06928   0.00000  Uiso   1.00
H294   H     0.49239   0.32246   0.93089   0.00000  Uiso   1.00
H295   H     0.47027   0.05933   0.61147   0.00000  Uiso   1.00
H296   H     0.47173   0.08473   0.67046   0.00000  Uiso   1.00
H297   H     0.53789   0.07650   0.67772   0.00000  Uiso   1.00
H298   H     0.53619   0.05111   0.61969   0.00000  Uiso   1.00
H299   H     0.53312   0.09003   0.74159   0.00000  Uiso   1.00
H300   H     0.54612   0.10613   0.80751   0.00000  Uiso   1.00
H301   H     0.54229   0.12956   0.86868   0.00000  Uiso   1.00
H302   H     0.48337   0.14984   0.81882   0.00000  Uiso   1.00
H303   H     0.48703   0.12607   0.75823   0.00000  Uiso   1.00
H304   H     0.54183   0.16557   0.88797   0.00000  Uiso   1.00
H305   H     0.53775   0.18672   0.95310   0.00000  Uiso   1.00
H306   H     0.47345   0.17018   0.95957   0.00000  Uiso   1.00
H307   H     0.47734   0.14853   0.89527   0.00000  Uiso   1.00
H308   H     0.49542   0.28552   0.07013   0.00000  Uiso   1.00
H309   H     0.49793   0.25358   0.07001   0.00000  Uiso   1.00
H310   H     0.50095   0.21702   0.06946   0.00000  Uiso   1.00
H311   H     0.92248   0.50450   0.54213   0.00000  Uiso   1.00
H312   H     0.50110   0.02015   0.33826   0.00000  Uiso   1.00
C313   C     0.99593   0.08652   0.53905   0.00000  Uiso   1.00
C314   C     0.99493   0.10811   0.53902   0.00000  Uiso   1.00
C315   C     0.00692   0.18578   0.46122   0.00000  Uiso   1.00
C316   C     0.99688   0.44662   0.11170   0.00000  Uiso   1.00
C317   C     0.01497   0.43690   0.12595   0.00000  Uiso   1.00
C318   C     0.01413   0.42250   0.15944   0.00000  Uiso   1.00
C319   C     0.99530   0.41777   0.17941   0.00000  Uiso   1.00
C320   C     0.97705   0.42718   0.16421   0.00000  Uiso   1.00
C321   C     0.97790   0.44155   0.13067   0.00000  Uiso   1.00
N322   N     0.99547   0.40339   0.21472   0.00000  Uiso   1.00
C323   C     0.98077   0.40069   0.24267   0.00000  Uiso   1.00
C324   C     0.98312   0.38576   0.27830   0.00000  Uiso   1.00
C325   C     0.96759   0.38432   0.30964   0.00000  Uiso   1.00
C326   C     0.96974   0.37082   0.34446   0.00000  Uiso   1.00
C327   C     0.98748   0.35844   0.34861   0.00000  Uiso   1.00
C328   C     0.00291   0.35970   0.31684   0.00000  Uiso   1.00
C329   C     0.00077   0.37322   0.28203   0.00000  Uiso   1.00
C330   C     0.99008   0.34469   0.38654   0.00000  Uiso   1.00
C331   C     0.97316   0.33365   0.40333   0.00000  Uiso   1.00
C332   C     0.97545   0.32148   0.44019   0.00000  Uiso   1.00
C333   C     0.99466   0.32011   0.46074   0.00000  Uiso   1.00
C334   C     0.01165   0.33077   0.44386   0.00000  Uiso   1.00
C335   C     0.00940   0.34297   0.40704   0.00000  Uiso   1.00
C336   C     0.00516   0.20732   0.53892   0.00000  Uiso   1.00
C337   C     0.00140   0.25359   0.53881   0.00000  Uiso   1.00
C338   C     0.99958   0.27511   0.53875   0.00000  Uiso   1.00
C339   C     0.51660   0.99905   0.90943   0.00000  Uiso   1.00
C340   C     0.54345   0.99760   0.03463   0.00000  Uiso   1.00
C341   C     0.56393   0.99637   0.02191   0.00000  Uiso   1.00
C342   C     0.99941   0.48951   0.86668   0.00000  Uiso   1.00
C343   C     0.00212   0.53727   0.07774   0.00000  Uiso   1.00
H344   H     0.99629   0.07828   0.56939   0.00000  Uiso   1.00
H345   H     0.99451   0.11640   0.56928   0.00000  Uiso   1.00
H346   H     0.00761   0.17754   0.43089   0.00000  Uiso   1.00
H347   H     0.02973   0.44067   0.11147   0.00000  Uiso   1.00
H348   H     0.02827   0.41527   0.17046   0.00000  Uiso   1.00
H349   H     0.96211   0.42350   0.17772   0.00000  Uiso   1.00
H350   H     0.96381   0.44889   0.11969   0.00000  Uiso   1.00
H351   H     0.96688   0.40997   0.24159   0.00000  Uiso   1.00
H352   H     0.95388   0.39387   0.30751   0.00000  Uiso   1.00
H353   H     0.95771   0.37044   0.36868   0.00000  Uiso   1.00
H354   H     0.01663   0.35016   0.31882   0.00000  Uiso   1.00
H355   H     0.01297   0.37393   0.25823   0.00000  Uiso   1.00
H356   H     0.95817   0.33443   0.38797   0.00000  Uiso   1.00
H357   H     0.96225   0.31328   0.45310   0.00000  Uiso   1.00
H358   H     0.02655   0.32982   0.45957   0.00000  Uiso   1.00
H359   H     0.02266   0.35147   0.39527   0.00000  Uiso   1.00
H360   H     0.00458   0.21448   0.57013   0.00000  Uiso   1.00
H361   H     0.00207   0.24642   0.57001   0.00000  Uiso   1.00
H362   H     0.99905   0.28298   0.56946   0.00000  Uiso   1.00
H363   H     0.57752   0.99550   0.04213   0.00000  Uiso   1.00
H364   H     0.99890   0.47985   0.83826   0.00000  Uiso   1.00
C365   C     0.49593   0.58652   0.03905   0.00000  Uiso   1.00
C366   C     0.49493   0.60811   0.03902   0.00000  Uiso   1.00
C367   C     0.50692   0.68578   0.96122   0.00000  Uiso   1.00
C368   C     0.49688   0.94662   0.61170   0.00000  Uiso   1.00
C369   C     0.51497   0.93690   0.62595   0.00000  Uiso   1.00
C370   C     0.51413   0.92250   0.65944   0.00000  Uiso   1.00
C371   C     0.49530   0.91777   0.67941   0.00000  Uiso   1.00
C372   C     0.47705   0.92718   0.66421   0.00000  Uiso   1.00
C373   C     0.47790   0.94155   0.63067   0.00000  Uiso   1.00
N374   N     0.49547   0.90339   0.71472   0.00000  Uiso   1.00
C375   C     0.48077   0.90069   0.74267   0.00000  Uiso   1.00
C376   C     0.48312   0.88576   0.77830   0.00000  Uiso   1.00
C377   C     0.46759   0.88432   0.80964   0.00000  Uiso   1.00
C378   C     0.46974   0.87082   0.84446   0.00000  Uiso   1.00
C379   C     0.48748   0.85844   0.84861   0.00000  Uiso   1.00
C380   C     0.50291   0.85970   0.81684   0.00000  Uiso   1.00
C381   C     0.50077   0.87322   0.78203   0.00000  Uiso   1.00
C382   C     0.49008   0.84469   0.88654   0.00000  Uiso   1.00
C383   C     0.47316   0.83365   0.90333   0.00000  Uiso   1.00
C384   C     0.47545   0.82148   0.94019   0.00000  Uiso   1.00
C385   C     0.49466   0.82011   0.96074   0.00000  Uiso   1.00
C386   C     0.51165   0.83077   0.94386   0.00000  Uiso   1.00
C387   C     0.50940   0.84297   0.90704   0.00000  Uiso   1.00
C388   C     0.50516   0.70732   0.03892   0.00000  Uiso   1.00
C389   C     0.50140   0.75359   0.03881   0.00000  Uiso   1.00
C390   C     0.49958   0.77511   0.03875   0.00000  Uiso   1.00
C391   C     0.01660   0.49905   0.40943   0.00000  Uiso   1.00
C392   C     0.04345   0.49760   0.53463   0.00000  Uiso   1.00
C393   C     0.06393   0.49637   0.52191   0.00000  Uiso   1.00
C394   C     0.49941   0.98951   0.36668   0.00000  Uiso   1.00
C395   C     0.50212   0.03727   0.57774   0.00000  Uiso   1.00
H396   H     0.49629   0.57828   0.06939   0.00000  Uiso   1.00
H397   H     0.49451   0.61640   0.06928   0.00000  Uiso   1.00
H398   H     0.50761   0.67754   0.93089   0.00000  Uiso   1.00
H399   H     0.52973   0.94067   0.61147   0.00000  Uiso   1.00
H400   H     0.52827   0.91527   0.67046   0.00000  Uiso   1.00
H401   H     0.46211   0.92350   0.67772   0.00000  Uiso   1.00
H402   H     0.46381   0.94889   0.61969   0.00000  Uiso   1.00
H403   H     0.46688   0.90997   0.74159   0.00000  Uiso   1.00
H404   H     0.45388   0.89387   0.80751   0.00000  Uiso   1.00
H405   H     0.45771   0.87044   0.86868   0.00000  Uiso   1.00
H406   H     0.51663   0.85016   0.81882   0.00000  Uiso   1.00
H407   H     0.51297   0.87393   0.75823   0.00000  Uiso   1.00
H408   H     0.45817   0.83443   0.88797   0.00000  Uiso   1.00
H409   H     0.46225   0.81328   0.95310   0.00000  Uiso   1.00
H410   H     0.52655   0.82982   0.95957   0.00000  Uiso   1.00
H411   H     0.52266   0.85147   0.89527   0.00000  Uiso   1.00
H412   H     0.50458   0.71448   0.07013   0.00000  Uiso   1.00
H413   H     0.50207   0.74642   0.07001   0.00000  Uiso   1.00
H414   H     0.49905   0.78298   0.06946   0.00000  Uiso   1.00
H415   H     0.07752   0.49550   0.54213   0.00000  Uiso   1.00
H416   H     0.49890   0.97985   0.33826   0.00000  Uiso   1.00
C417   C     0.08652   0.00407   0.46095   0.00000  Uiso   1.00
C418   C     0.10811   0.00507   0.46098   0.00000  Uiso   1.00
C419   C     0.18578   0.99308   0.53878   0.00000  Uiso   1.00
C420   C     0.44662   0.00312   0.88830   0.00000  Uiso   1.00
C421   C     0.43690   0.98503   0.87405   0.00000  Uiso   1.00
C422   C     0.42250   0.98587   0.84056   0.00000  Uiso   1.00
C423   C     0.41777   0.00470   0.82059   0.00000  Uiso   1.00
C424   C     0.42718   0.02295   0.83579   0.00000  Uiso   1.00
C425   C     0.44155   0.02210   0.86933   0.00000  Uiso   1.00
N426   N     0.40339   0.00453   0.78528   0.00000  Uiso   1.00
C427   C     0.40069   0.01923   0.75733   0.00000  Uiso   1.00
C428   C     0.38576   0.01688   0.72170   0.00000  Uiso   1.00
C429   C     0.38432   0.03241   0.69036   0.00000  Uiso   1.00
C430   C     0.37082   0.03026   0.65554   0.00000  Uiso   1.00
C431   C     0.35844   0.01252   0.65139   0.00000  Uiso   1.00
C432   C     0.35970   0.99709   0.68316   0.00000  Uiso   1.00
C433   C     0.37322   0.99923   0.71797   0.00000  Uiso   1.00
C434   C     0.34469   0.00992   0.61346   0.00000  Uiso   1.00
C435   C     0.33365   0.02684   0.59667   0.00000  Uiso   1.00
C436   C     0.32148   0.02455   0.55981   0.00000  Uiso   1.00
C437   C     0.32011   0.00534   0.53926   0.00000  Uiso   1.00
C438   C     0.33077   0.98835   0.55614   0.00000  Uiso   1.00
C439   C     0.34297   0.99060   0.59296   0.00000  Uiso   1.00
C440   C     0.20732   0.99484   0.46108   0.00000  Uiso   1.00
C441   C     0.25359   0.99860   0.46119   0.00000  Uiso   1.00
C442   C     0.27511   0.00042   0.46125   0.00000  Uiso   1.00
C443   C     0.99905   0.48340   0.09057   0.00000  Uiso   1.00
C444   C     0.99760   0.45655   0.96537   0.00000  Uiso   1.00
C445   C     0.99637   0.43607   0.97809   0.00000  Uiso   1.00
C446   C     0.48951   0.00059   0.13332   0.00000  Uiso   1.00
C447   C     0.53727   0.99788   0.92226   0.00000  Uiso   1.00
H448   H     0.07828   0.00371   0.43061   0.00000  Uiso   1.00
H449   H     0.11640   0.00549   0.43072   0.00000  Uiso   1.00
H450   H     0.17754   0.99239   0.56911   0.00000  Uiso   1.00
H451   H     0.44067   0.97027   0.88853   0.00000  Uiso   1.00
H452   H     0.41527   0.97173   0.82954   0.00000  Uiso   1.00
H453   H     0.42350   0.03789   0.82228   0.00000  Uiso   1.00
H454   H     0.44889   0.03619   0.88031   0.00000  Uiso   1.00
H455   H     0.40997   0.03312   0.75841   0.00000  Uiso   1.00
H456   H     0.39387   0.04612   0.69249   0.00000  Uiso   1.00
H457   H     0.37044   0.04229   0.63132   0.00000  Uiso   1.00
H458   H     0.35016   0.98337   0.68118   0.00000  Uiso   1.00
H459   H     0.37393   0.98703   0.74177   0.00000  Uiso   1.00
H460   H     0.33443   0.04183   0.61203   0.00000  Uiso   1.00
H461   H     0.31328   0.03775   0.54690   0.00000  Uiso   1.00
H462   H     0.32982   0.97345   0.54043   0.00000  Uiso   1.00
H463   H     0.35147   0.97734   0.60473   0.00000  Uiso   1.00
H464   H     0.21448   0.99542   0.42987   0.00000  Uiso   1.00
H465   H     0.24642   0.99793   0.42999   0.00000  Uiso   1.00
H466   H     0.28298   0.00095   0.43054   0.00000  Uiso   1.00
H467   H     0.99550   0.42248   0.95787   0.00000  Uiso   1.00
H468   H     0.47985   0.00110   0.16174   0.00000  Uiso   1.00
C469   C     0.58652   0.50407   0.96095   0.00000  Uiso   1.00
C470   C     0.60811   0.50507   0.96098   0.00000  Uiso   1.00
C471   C     0.68578   0.49308   0.03878   0.00000  Uiso   1.00
C472   C     0.94662   0.50312   0.38830   0.00000  Uiso   1.00
C473   C     0.93690   0.48503   0.37405   0.00000  Uiso   1.00
C474   C     0.92250   0.48587   0.34056   0.00000  Uiso   1.00
C475   C     0.91777   0.50470   0.32059   0.00000  Uiso   1.00
C476   C     0.92718   0.52295   0.33579   0.00000  Uiso   1.00
C477   C     0.94155   0.52210   0.36933   0.00000  Uiso   1.00
N478   N     0.90339   0.50453   0.28528   0.00000  Uiso   1.00
C479   C     0.90069   0.51923   0.25733   0.00000  Uiso   1.00
C480   C     0.88576   0.51688   0.22170   0.00000  Uiso   1.00
C481   C     0.88432   0.53241   0.19036   0.00000  Uiso   1.00
C482   C     0.87082   0.53026   0.15554   0.00000  Uiso   1.00
C483   C     0.85844   0.51252   0.15139   0.00000  Uiso   1.00
C484   C     0.85970   0.49709   0.18316   0.00000  Uiso   1.00
C485   C     0.87322   0.49923   0.21797   0.00000  Uiso   1.00
C486   C     0.84469   0.50992   0.11346   0.00000  Uiso   1.00
C487   C     0.83365   0.52684   0.09667   0.00000  Uiso   1.00
C488   C     0.82148   0.52455   0.05981   0.00000  Uiso   1.00
C489   C     0.82011   0.50534   0.03926   0.00000  Uiso   1.00
C490   C     0.83077   0.48835   0.05614   0.00000  Uiso   1.00
C491   C     0.84297   0.49060   0.09296   0.00000  Uiso   1.00
C492   C     0.70732   0.49484   0.96108   0.00000  Uiso   1.00
C493   C     0.75359   0.49860   0.96119   0.00000  Uiso   1.00
C494   C     0.77511   0.50042   0.96125   0.00000  Uiso   1.00
C495   C     0.49905   0.98340   0.59057   0.00000  Uiso   1.00
C496   C     0.49760   0.95655   0.46537   0.00000  Uiso   1.00
C497   C     0.49637   0.93607   0.47809   0.00000  Uiso   1.00
C498   C     0.98951   0.50059   0.63332   0.00000  Uiso   1.00
C499   C     0.03727   0.49788   0.42226   0.00000  Uiso   1.00
H500   H     0.57828   0.50371   0.93061   0.00000  Uiso   1.00
H501   H     0.61640   0.50549   0.93072   0.00000  Uiso   1.00
H502   H     0.67754   0.49239   0.06911   0.00000  Uiso   1.00
H503   H     0.94067   0.47027   0.38853   0.00000  Uiso   1.00
H504   H     0.91527   0.47173   0.32954   0.00000  Uiso   1.00
H505   H     0.92350   0.53789   0.32228   0.00000  Uiso   1.00
H506   H     0.94889   0.53619   0.38031   0.00000  Uiso   1.00
H507   H     0.90997   0.53312   0.25841   0.00000  Uiso   1.00
H508   H     0.89387   0.54612   0.19249   0.00000  Uiso   1.00
H509   H     0.87044   0.54229   0.13132   0.00000  Uiso   1.00
H510   H     0.85016   0.48337   0.18118   0.00000  Uiso   1.00
H511   H     0.87393   0.48703   0.24177   0.00000  Uiso   1.00
H512   H     0.83443   0.54183   0.11203   0.00000  Uiso   1.00
H513   H     0.81328   0.53775   0.04690   0.00000  Uiso   1.00
H514   H     0.82982   0.47345   0.04043   0.00000  Uiso   1.00
H515   H     0.85147   0.47734   0.10473   0.00000  Uiso   1.00
H516   H     0.71448   0.49542   0.92987   0.00000  Uiso   1.00
H517   H     0.74642   0.49793   0.92999   0.00000  Uiso   1.00
H518   H     0.78298   0.50095   0.93054   0.00000  Uiso   1.00
H519   H     0.49550   0.92248   0.45787   0.00000  Uiso   1.00
H520   H     0.97985   0.50110   0.66174   0.00000  Uiso   1.00
C521   C     0.91348   0.99593   0.46095   0.00000  Uiso   1.00
C522   C     0.89189   0.99493   0.46098   0.00000  Uiso   1.00
C523   C     0.81422   0.00692   0.53878   0.00000  Uiso   1.00
C524   C     0.55338   0.99688   0.88830   0.00000  Uiso   1.00
C525   C     0.56310   0.01497   0.87405   0.00000  Uiso   1.00
C526   C     0.57750   0.01413   0.84056   0.00000  Uiso   1.00
C527   C     0.58223   0.99530   0.82059   0.00000  Uiso   1.00
C528   C     0.57282   0.97705   0.83579   0.00000  Uiso   1.00
C529   C     0.55845   0.97790   0.86933   0.00000  Uiso   1.00
N530   N     0.59661   0.99547   0.78528   0.00000  Uiso   1.00
C531   C     0.59931   0.98077   0.75733   0.00000  Uiso   1.00
C532   C     0.61424   0.98312   0.72170   0.00000  Uiso   1.00
C533   C     0.61568   0.96759   0.69036   0.00000  Uiso   1.00
C534   C     0.62918   0.96974   0.65554   0.00000  Uiso   1.00
C535   C     0.64156   0.98748   0.65139   0.00000  Uiso   1.00
C536   C     0.64030   0.00291   0.68316   0.00000  Uiso   1.00
C537   C     0.62678   0.00077   0.71797   0.00000  Uiso   1.00
C538   C     0.65531   0.99008   0.61346   0.00000  Uiso   1.00
C539   C     0.66635   0.97316   0.59667   0.00000  Uiso   1.00
C540   C     0.67852   0.97545   0.55981   0.00000  Uiso   1.00
C541   C     0.67989   0.99466   0.53926   0.00000  Uiso   1.00
C542   C     0.66923   0.01165   0.55614   0.00000  Uiso   1.00
C543   C     0.65703   0.00940   0.59296   0.00000  Uiso   1.00
C544   C     0.79268   0.00516   0.46108   0.00000  Uiso   1.00
C545   C     0.74641   0.00140   0.46119   0.00000  Uiso   1.00
C546   C     0.72489   0.99958   0.46125   0.00000  Uiso   1.00
C547   C     0.00095   0.51660   0.09057   0.00000  Uiso   1.00
C548   C     0.00240   0.54345   0.96537   0.00000  Uiso   1.00
C549   C     0.00363   0.56393   0.97809   0.00000  Uiso   1.00
C550   C     0.51049   0.99941   0.13332   0.00000  Uiso   1.00
C551   C     0.46273   0.00212   0.92226   0.00000  Uiso   1.00
H552   H     0.92172   0.99629   0.43061   0.00000  Uiso   1.00
H553   H     0.88360   0.99451   0.43072   0.00000  Uiso   1.00
H554   H     0.82246   0.00761   0.56911   0.00000  Uiso   1.00
H555   H     0.55933   0.02973   0.88853   0.00000  Uiso   1.00
H556   H     0.58473   0.02827   0.82954   0.00000  Uiso   1.00
H557   H     0.57650   0.96211   0.82228   0.00000  Uiso   1.00
H558   H     0.55111   0.96381   0.88031   0.00000  Uiso   1.00
H559   H     0.59003   0.96688   0.75841   0.00000  Uiso   1.00
H560   H     0.60613   0.95388   0.69249   0.00000  Uiso   1.00
H561   H     0.62956   0.95771   0.63132   0.00000  Uiso   1.00
H562   H     0.64984   0.01663   0.68118   0.00000  Uiso   1.00
H563   H     0.62607   0.01297   0.74177   0.00000  Uiso   1.00
H564   H     0.66557   0.95817   0.61203   0.00000  Uiso   1.00
H565   H     0.68672   0.96225   0.54690   0.00000  Uiso   1.00
H566   H     0.67018   0.02655   0.54043   0.00000  Uiso   1.00
H567   H     0.64853   0.02266   0.60473   0.00000  Uiso   1.00
H568   H     0.78552   0.00458   0.42987   0.00000  Uiso   1.00
H569   H     0.75358   0.00207   0.42999   0.00000  Uiso   1.00
H570   H     0.71702   0.99905   0.43054   0.00000  Uiso   1.00
H571   H     0.00450   0.57752   0.95787   0.00000  Uiso   1.00
H572   H     0.52015   0.99890   0.16174   0.00000  Uiso   1.00
C573   C     0.41348   0.49593   0.96095   0.00000  Uiso   1.00
C574   C     0.39189   0.49493   0.96098   0.00000  Uiso   1.00
C575   C     0.31422   0.50692   0.03878   0.00000  Uiso   1.00
C576   C     0.05338   0.49688   0.38830   0.00000  Uiso   1.00
C577   C     0.06310   0.51497   0.37405   0.00000  Uiso   1.00
C578   C     0.07750   0.51413   0.34056   0.00000  Uiso   1.00
C579   C     0.08223   0.49530   0.32059   0.00000  Uiso   1.00
C580   C     0.07282   0.47705   0.33579   0.00000  Uiso   1.00
C581   C     0.05845   0.47790   0.36933   0.00000  Uiso   1.00
N582   N     0.09661   0.49547   0.28528   0.00000  Uiso   1.00
C583   C     0.09931   0.48077   0.25733   0.00000  Uiso   1.00
C584   C     0.11424   0.48312   0.22170   0.00000  Uiso   1.00
C585   C     0.11568   0.46759   0.19036   0.00000  Uiso   1.00
C586   C     0.12918   0.46974   0.15554   0.00000  Uiso   1.00
C587   C     0.14156   0.48748   0.15139   0.00000  Uiso   1.00
C588   C     0.14030   0.50291   0.18316   0.00000  Uiso   1.00
C589   C     0.12678   0.50077   0.21797   0.00000  Uiso   1.00
C590   C     0.15531   0.49008   0.11346   0.00000  Uiso   1.00
C591   C     0.16635   0.47316   0.09667   0.00000  Uiso   1.00
C592   C     0.17852   0.47545   0.05981   0.00000  Uiso   1.00
C593   C     0.17989   0.49466   0.03926   0.00000  Uiso   1.00
C594   C     0.16923   0.51165   0.05614   0.00000  Uiso   1.00
C595   C     0.15703   0.50940   0.09296   0.00000  Uiso   1.00
C596   C     0.29268   0.50516   0.96108   0.00000  Uiso   1.00
C597   C     0.24641   0.50140   0.96119   0.00000  Uiso   1.00
C598   C     0.22489   0.49958   0.96125   0.00000  Uiso   1.00
C599   C     0.50095   0.01660   0.59057   0.00000  Uiso   1.00
C600   C     0.50240   0.04345   0.46537   0.00000  Uiso   1.00
C601   C     0.50363   0.06393   0.47809   0.00000  Uiso   1.00
C602   C     0.01049   0.49941   0.63332   0.00000  Uiso   1.00
C603   C     0.96273   0.50212   0.42226   0.00000  Uiso   1.00
H604   H     0.42172   0.49629   0.93061   0.00000  Uiso   1.00
H605   H     0.38360   0.49451   0.93072   0.00000  Uiso   1.00
H606   H     0.32246   0.50761   0.06911   0.00000  Uiso   1.00
H607   H     0.05933   0.52973   0.38853   0.00000  Uiso   1.00
H608   H     0.08473   0.52827   0.32954   0.00000  Uiso   1.00
H609   H     0.07650   0.46211   0.32228   0.00000  Uiso   1.00
H610   H     0.05111   0.46381   0.38031   0.00000  Uiso   1.00
H611   H     0.09003   0.46688   0.25841   0.00000  Uiso   1.00
H612   H     0.10613   0.45388   0.19249   0.00000  Uiso   1.00
H613   H     0.12956   0.45771   0.13132   0.00000  Uiso   1.00
H614   H     0.14984   0.51663   0.18118   0.00000  Uiso   1.00
H615   H     0.12607   0.51297   0.24177   0.00000  Uiso   1.00
H616   H     0.16557   0.45817   0.11203   0.00000  Uiso   1.00
H617   H     0.18672   0.46225   0.04690   0.00000  Uiso   1.00
H618   H     0.17018   0.52655   0.04043   0.00000  Uiso   1.00
H619   H     0.14853   0.52266   0.10473   0.00000  Uiso   1.00
H620   H     0.28552   0.50458   0.92987   0.00000  Uiso   1.00
H621   H     0.25358   0.50207   0.92999   0.00000  Uiso   1.00
H622   H     0.21702   0.49905   0.93054   0.00000  Uiso   1.00
H623   H     0.50450   0.07752   0.45787   0.00000  Uiso   1.00
H624   H     0.02015   0.49890   0.66174   0.00000  Uiso   1.00
C625   C     0.99593   0.08652   0.46095   0.00000  Uiso   1.00
C626   C     0.99493   0.10811   0.46098   0.00000  Uiso   1.00
C627   C     0.00692   0.18578   0.53878   0.00000  Uiso   1.00
C628   C     0.99688   0.44662   0.88830   0.00000  Uiso   1.00
C629   C     0.01497   0.43690   0.87405   0.00000  Uiso   1.00
C630   C     0.01413   0.42250   0.84056   0.00000  Uiso   1.00
C631   C     0.99530   0.41777   0.82059   0.00000  Uiso   1.00
C632   C     0.97705   0.42718   0.83579   0.00000  Uiso   1.00
C633   C     0.97790   0.44155   0.86933   0.00000  Uiso   1.00
N634   N     0.99547   0.40339   0.78528   0.00000  Uiso   1.00
C635   C     0.98077   0.40069   0.75733   0.00000  Uiso   1.00
C636   C     0.98312   0.38576   0.72170   0.00000  Uiso   1.00
C637   C     0.96759   0.38432   0.69036   0.00000  Uiso   1.00
C638   C     0.96974   0.37082   0.65554   0.00000  Uiso   1.00
C639   C     0.98748   0.35844   0.65139   0.00000  Uiso   1.00
C640   C     0.00291   0.35970   0.68316   0.00000  Uiso   1.00
C641   C     0.00077   0.37322   0.71797   0.00000  Uiso   1.00
C642   C     0.99008   0.34469   0.61346   0.00000  Uiso   1.00
C643   C     0.97316   0.33365   0.59667   0.00000  Uiso   1.00
C644   C     0.97545   0.32148   0.55981   0.00000  Uiso   1.00
C645   C     0.99466   0.32011   0.53926   0.00000  Uiso   1.00
C646   C     0.01165   0.33077   0.55614   0.00000  Uiso   1.00
C647   C     0.00940   0.34297   0.59296   0.00000  Uiso   1.00
C648   C     0.00516   0.20732   0.46108   0.00000  Uiso   1.00
C649   C     0.00140   0.25359   0.46119   0.00000  Uiso   1.00
C650   C     0.99958   0.27511   0.46125   0.00000  Uiso   1.00
C651   C     0.51660   0.99905   0.09057   0.00000  Uiso   1.00
C652   C     0.54345   0.99760   0.96537   0.00000  Uiso   1.00
C653   C     0.56393   0.99637   0.97809   0.00000  Uiso   1.00
C654   C     0.99941   0.48951   0.13332   0.00000  Uiso   1.00
C655   C     0.00212   0.53727   0.92226   0.00000  Uiso   1.00
H656   H     0.99629   0.07828   0.43061   0.00000  Uiso   1.00
H657   H     0.99451   0.11640   0.43072   0.00000  Uiso   1.00
H658   H     0.00761   0.17754   0.56911   0.00000  Uiso   1.00
H659   H     0.02973   0.44067   0.88853   0.00000  Uiso   1.00
H660   H     0.02827   0.41527   0.82954   0.00000  Uiso   1.00
H661   H     0.96211   0.42350   0.82228   0.00000  Uiso   1.00
H662   H     0.96381   0.44889   0.88031   0.00000  Uiso   1.00
H663   H     0.96688   0.40997   0.75841   0.00000  Uiso   1.00
H664   H     0.95388   0.39387   0.69249   0.00000  Uiso   1.00
H665   H     0.95771   0.37044   0.63132   0.00000  Uiso   1.00
H666   H     0.01663   0.35016   0.68118   0.00000  Uiso   1.00
H667   H     0.01297   0.37393   0.74177   0.00000  Uiso   1.00
H668   H     0.95817   0.33443   0.61203   0.00000  Uiso   1.00
H669   H     0.96225   0.31328   0.54690   0.00000  Uiso   1.00
H670   H     0.02655   0.32982   0.54043   0.00000  Uiso   1.00
H671   H     0.02266   0.35147   0.60473   0.00000  Uiso   1.00
H672   H     0.00458   0.21448   0.42987   0.00000  Uiso   1.00
H673   H     0.00207   0.24642   0.42999   0.00000  Uiso   1.00
H674   H     0.99905   0.28298   0.43054   0.00000  Uiso   1.00
H675   H     0.57752   0.99550   0.95787   0.00000  Uiso   1.00
H676   H     0.99890   0.47985   0.16174   0.00000  Uiso   1.00
C677   C     0.49593   0.58652   0.96095   0.00000  Uiso   1.00
C678   C     0.49493   0.60811   0.96098   0.00000  Uiso   1.00
C679   C     0.50692   0.68578   0.03878   0.00000  Uiso   1.00
C680   C     0.49688   0.94662   0.38830   0.00000  Uiso   1.00
C681   C     0.51497   0.93690   0.37405   0.00000  Uiso   1.00
C682   C     0.51413   0.92250   0.34056   0.00000  Uiso   1.00
C683   C     0.49530   0.91777   0.32059   0.00000  Uiso   1.00
C684   C     0.47705   0.92718   0.33579   0.00000  Uiso   1.00
C685   C     0.47790   0.94155   0.36933   0.00000  Uiso   1.00
N686   N     0.49547   0.90339   0.28528   0.00000  Uiso   1.00
C687   C     0.48077   0.90069   0.25733   0.00000  Uiso   1.00
C688   C     0.48312   0.88576   0.22170   0.00000  Uiso   1.00
C689   C     0.46759   0.88432   0.19036   0.00000  Uiso   1.00
C690   C     0.46974   0.87082   0.15554   0.00000  Uiso   1.00
C691   C     0.48748   0.85844   0.15139   0.00000  Uiso   1.00
C692   C     0.50291   0.85970   0.18316   0.00000  Uiso   1.00
C693   C     0.50077   0.87322   0.21797   0.00000  Uiso   1.00
C694   C     0.49008   0.84469   0.11346   0.00000  Uiso   1.00
C695   C     0.47316   0.83365   0.09667   0.00000  Uiso   1.00
C696   C     0.47545   0.82148   0.05981   0.00000  Uiso   1.00
C697   C     0.49466   0.82011   0.03926   0.00000  Uiso   1.00
C698   C     0.51165   0.83077   0.05614   0.00000  Uiso   1.00
C699   C     0.50940   0.84297   0.09296   0.00000  Uiso   1.00
C700   C     0.50516   0.70732   0.96108   0.00000  Uiso   1.00
C701   C     0.50140   0.75359   0.96119   0.00000  Uiso   1.00
C702   C     0.49958   0.77511   0.96125   0.00000  Uiso   1.00
C703   C     0.01660   0.49905   0.59057   0.00000  Uiso   1.00
C704   C     0.04345   0.49760   0.46537   0.00000  Uiso   1.00
C705   C     0.06393   0.49637   0.47809   0.00000  Uiso   1.00
C706   C     0.49941   0.98951   0.63332   0.00000  Uiso   1.00
C707   C     0.50212   0.03727   0.42226   0.00000  Uiso   1.00
H708   H     0.49629   0.57828   0.93061   0.00000  Uiso   1.00
H709   H     0.49451   0.61640   0.93072   0.00000  Uiso   1.00
H710   H     0.50761   0.67754   0.06911   0.00000  Uiso   1.00
H711   H     0.52973   0.94067   0.38853   0.00000  Uiso   1.00
H712   H     0.52827   0.91527   0.32954   0.00000  Uiso   1.00
H713   H     0.46211   0.92350   0.32228   0.00000  Uiso   1.00
H714   H     0.46381   0.94889   0.38031   0.00000  Uiso   1.00
H715   H     0.46688   0.90997   0.25841   0.00000  Uiso   1.00
H716   H     0.45388   0.89387   0.19249   0.00000  Uiso   1.00
H717   H     0.45771   0.87044   0.13132   0.00000  Uiso   1.00
H718   H     0.51663   0.85016   0.18118   0.00000  Uiso   1.00
H719   H     0.51297   0.87393   0.24177   0.00000  Uiso   1.00
H720   H     0.45817   0.83443   0.11203   0.00000  Uiso   1.00
H721   H     0.46225   0.81328   0.04690   0.00000  Uiso   1.00
H722   H     0.52655   0.82982   0.04043   0.00000  Uiso   1.00
H723   H     0.52266   0.85147   0.10473   0.00000  Uiso   1.00
H724   H     0.50458   0.71448   0.92987   0.00000  Uiso   1.00
H725   H     0.50207   0.74642   0.92999   0.00000  Uiso   1.00
H726   H     0.49905   0.78298   0.93054   0.00000  Uiso   1.00
H727   H     0.07752   0.49550   0.45787   0.00000  Uiso   1.00
H728   H     0.49890   0.97985   0.66174   0.00000  Uiso   1.00
C729   C     0.00407   0.91348   0.46095   0.00000  Uiso   1.00
C730   C     0.00507   0.89189   0.46098   0.00000  Uiso   1.00
C731   C     0.99308   0.81422   0.53878   0.00000  Uiso   1.00
C732   C     0.00312   0.55338   0.88830   0.00000  Uiso   1.00
C733   C     0.98503   0.56310   0.87405   0.00000  Uiso   1.00
C734   C     0.98587   0.57750   0.84056   0.00000  Uiso   1.00
C735   C     0.00470   0.58223   0.82059   0.00000  Uiso   1.00
C736   C     0.02295   0.57282   0.83579   0.00000  Uiso   1.00
C737   C     0.02210   0.55845   0.86933   0.00000  Uiso   1.00
N738   N     0.00453   0.59661   0.78528   0.00000  Uiso   1.00
C739   C     0.01923   0.59931   0.75733   0.00000  Uiso   1.00
C740   C     0.01688   0.61424   0.72170   0.00000  Uiso   1.00
C741   C     0.03241   0.61568   0.69036   0.00000  Uiso   1.00
C742   C     0.03026   0.62918   0.65554   0.00000  Uiso   1.00
C743   C     0.01252   0.64156   0.65139   0.00000  Uiso   1.00
C744   C     0.99709   0.64030   0.68316   0.00000  Uiso   1.00
C745   C     0.99923   0.62678   0.71797   0.00000  Uiso   1.00
C746   C     0.00992   0.65531   0.61346   0.00000  Uiso   1.00
C747   C     0.02684   0.66635   0.59667   0.00000  Uiso   1.00
C748   C     0.02455   0.67852   0.55981   0.00000  Uiso   1.00
C749   C     0.00534   0.67989   0.53926   0.00000  Uiso   1.00
C750   C     0.98835   0.66923   0.55614   0.00000  Uiso   1.00
C751   C     0.99060   0.65703   0.59296   0.00000  Uiso   1.00
C752   C     0.99484   0.79268   0.46108   0.00000  Uiso   1.00
C753   C     0.99860   0.74641   0.46119   0.00000  Uiso   1.00
C754   C     0.00042   0.72489   0.46125   0.00000  Uiso   1.00
C755   C     0.48340   0.00095   0.09057   0.00000  Uiso   1.00
C756   C     0.45655   0.00240   0.96537   0.00000  Uiso   1.00
C757   C     0.43607   0.00363   0.97809   0.00000  Uiso   1.00
C758   C     0.00059   0.51049   0.13332   0.00000  Uiso   1.00
C759   C     0.99788   0.46273   0.92226   0.00000  Uiso   1.00
H760   H     0.00371   0.92172   0.43061   0.00000  Uiso   1.00
H761   H     0.00549   0.88360   0.43072   0.00000  Uiso   1.00
H762   H     0.99239   0.82246   0.56911   0.00000  Uiso   1.00
H763   H     0.97027   0.55933   0.88853   0.00000  Uiso   1.00
H764   H     0.97173   0.58473   0.82954   0.00000  Uiso   1.00
H765   H     0.03789   0.57650   0.82228   0.00000  Uiso   1.00
H766   H     0.03619   0.55111   0.88031   0.00000  Uiso   1.00
H767   H     0.03312   0.59003   0.75841   0.00000  Uiso   1.00
H768   H     0.04612   0.60613   0.69249   0.00000  Uiso   1.00
H769   H     0.04229   0.62956   0.63132   0.00000  Uiso   1.00
H770   H     0.98337   0.64984   0.68118   0.00000  Uiso   1.00
H771   H     0.98703   0.62607   0.74177   0.00000  Uiso   1.00
H772   H     0.04183   0.66557   0.61203   0.00000  Uiso   1.00
H773   H     0.03775   0.68672   0.54690   0.00000  Uiso   1.00
H774   H     0.97345   0.67018   0.54043   0.00000  Uiso   1.00
H775   H     0.97734   0.64853   0.60473   0.00000  Uiso   1.00
H776   H     0.99542   0.78552   0.42987   0.00000  Uiso   1.00
H777   H     0.99793   0.75358   0.42999   0.00000  Uiso   1.00
H778   H     0.00095   0.71702   0.43054   0.00000  Uiso   1.00
H779   H     0.42248   0.00450   0.95787   0.00000  Uiso   1.00
H780   H     0.00110   0.52015   0.16174   0.00000  Uiso   1.00
C781   C     0.50407   0.41348   0.96095   0.00000  Uiso   1.00
C782   C     0.50507   0.39189   0.96098   0.00000  Uiso   1.00
C783   C     0.49308   0.31422   0.03878   0.00000  Uiso   1.00
C784   C     0.50312   0.05338   0.38830   0.00000  Uiso   1.00
C785   C     0.48503   0.06310   0.37405   0.00000  Uiso   1.00
C786   C     0.48587   0.07750   0.34056   0.00000  Uiso   1.00
C787   C     0.50470   0.08223   0.32059   0.00000  Uiso   1.00
C788   C     0.52295   0.07282   0.33579   0.00000  Uiso   1.00
C789   C     0.52210   0.05845   0.36933   0.00000  Uiso   1.00
N790   N     0.50453   0.09661   0.28528   0.00000  Uiso   1.00
C791   C     0.51923   0.09931   0.25733   0.00000  Uiso   1.00
C792   C     0.51688   0.11424   0.22170   0.00000  Uiso   1.00
C793   C     0.53241   0.11568   0.19036   0.00000  Uiso   1.00
C794   C     0.53026   0.12918   0.15554   0.00000  Uiso   1.00
C795   C     0.51252   0.14156   0.15139   0.00000  Uiso   1.00
C796   C     0.49709   0.14030   0.18316   0.00000  Uiso   1.00
C797   C     0.49923   0.12678   0.21797   0.00000  Uiso   1.00
C798   C     0.50992   0.15531   0.11346   0.00000  Uiso   1.00
C799   C     0.52684   0.16635   0.09667   0.00000  Uiso   1.00
C800   C     0.52455   0.17852   0.05981   0.00000  Uiso   1.00
C801   C     0.50534   0.17989   0.03926   0.00000  Uiso   1.00
C802   C     0.48835   0.16923   0.05614   0.00000  Uiso   1.00
C803   C     0.49060   0.15703   0.09296   0.00000  Uiso   1.00
C804   C     0.49484   0.29268   0.96108   0.00000  Uiso   1.00
C805   C     0.49860   0.24641   0.96119   0.00000  Uiso   1.00
C806   C     0.50042   0.22489   0.96125   0.00000  Uiso   1.00
C807   C     0.98340   0.50095   0.59057   0.00000  Uiso   1.00
C808   C     0.95655   0.50240   0.46537   0.00000  Uiso   1.00
C809   C     0.93607   0.50363   0.47809   0.00000  Uiso   1.00
C810   C     0.50059   0.01049   0.63332   0.00000  Uiso   1.00
C811   C     0.49788   0.96273   0.42226   0.00000  Uiso   1.00
H812   H     0.50371   0.42172   0.93061   0.00000  Uiso   1.00
H813   H     0.50549   0.38360   0.93072   0.00000  Uiso   1.00
H814   H     0.49239   0.32246   0.06911   0.00000  Uiso   1.00
H815   H     0.47027   0.05933   0.38853   0.00000  Uiso   1.00
H816   H     0.47173   0.08473   0.32954   0.00000  Uiso   1.00
H817   H     0.53789   0.07650   0.32228   0.00000  Uiso   1.00
H818   H     0.53619   0.05111   0.38031   0.00000  Uiso   1.00
H819   H     0.53312   0.09003   0.25841   0.00000  Uiso   1.00
H820   H     0.54612   0.10613   0.19249   0.00000  Uiso   1.00
H821   H     0.54229   0.12956   0.13132   0.00000  Uiso   1.00
H822   H     0.48337   0.14984   0.18118   0.00000  Uiso   1.00
H823   H     0.48703   0.12607   0.24177   0.00000  Uiso   1.00
H824   H     0.54183   0.16557   0.11203   0.00000  Uiso   1.00
H825   H     0.53775   0.18672   0.04690   0.00000  Uiso   1.00
H826   H     0.47345   0.17018   0.04043   0.00000  Uiso   1.00
H827   H     0.47734   0.14853   0.10473   0.00000  Uiso   1.00
H828   H     0.49542   0.28552   0.92987   0.00000  Uiso   1.00
H829   H     0.49793   0.25358   0.92999   0.00000  Uiso   1.00
H830   H     0.50095   0.21702   0.93054   0.00000  Uiso   1.00
H831   H     0.92248   0.50450   0.45787   0.00000  Uiso   1.00
H832   H     0.50110   0.02015   0.66174   0.00000  Uiso   1.00
C833   C     0.99752   0.05273   0.50000   0.00000  Uiso   1.00
C834   C     0.97902   0.04157   0.50000   0.00000  Uiso   1.00
C835   C     0.95974   0.05086   0.50000   0.00000  Uiso   1.00
C836   C     0.92435   0.99645   0.50000   0.00000  Uiso   1.00
C837   C     0.88105   0.99450   0.50000   0.00000  Uiso   1.00
N838   N     0.85901   0.99329   0.50000   0.00000  Uiso   1.00
C839   C     0.78124   0.00423   0.50000   0.00000  Uiso   1.00
C840   C     0.75785   0.00232   0.50000   0.00000  Uiso   1.00
C841   C     0.71376   0.99851   0.50000   0.00000  Uiso   1.00
C842   C     0.95664   0.01698   0.50000   0.00000  Uiso   1.00
C843   C     0.94559   0.03531   0.50000   0.00000  Uiso   1.00
N844   N     0.97727   0.02069   0.50000   0.00000  Uiso   1.00
N845   N     0.69141   0.99667   0.50000   0.00000  Uiso   1.00
C846   C     0.84757   0.00972   0.50000   0.00000  Uiso   1.00
C847   C     0.82503   0.00777   0.50000   0.00000  Uiso   1.00
H848   H     0.95619   0.06721   0.50000   0.00000  Uiso   1.00
H849   H     0.92898   0.03732   0.50000   0.00000  Uiso   1.00
H850   H     0.85446   0.02499   0.50000   0.00000  Uiso   1.00
C851   C     0.49752   0.55273   0.00000   0.00000  Uiso   1.00
C852   C     0.47902   0.54157   0.00000   0.00000  Uiso   1.00
C853   C     0.45974   0.55086   0.00000   0.00000  Uiso   1.00
C854   C     0.42435   0.49645   0.00000   0.00000  Uiso   1.00
C855   C     0.38105   0.49450   0.00000   0.00000  Uiso   1.00
N856   N     0.35901   0.49329   0.00000   0.00000  Uiso   1.00
C857   C     0.28124   0.50423   0.00000   0.00000  Uiso   1.00
C858   C     0.25785   0.50232   0.00000   0.00000  Uiso   1.00
C859   C     0.21376   0.49851   0.00000   0.00000  Uiso   1.00
C860   C     0.45664   0.51698   0.00000   0.00000  Uiso   1.00
C861   C     0.44559   0.53531   0.00000   0.00000  Uiso   1.00
N862   N     0.47727   0.52069   0.00000   0.00000  Uiso   1.00
N863   N     0.19141   0.49667   0.00000   0.00000  Uiso   1.00
C864   C     0.34757   0.50972   0.00000   0.00000  Uiso   1.00
C865   C     0.32503   0.50777   0.00000   0.00000  Uiso   1.00
H866   H     0.45619   0.56721   0.00000   0.00000  Uiso   1.00
H867   H     0.42898   0.53732   0.00000   0.00000  Uiso   1.00
H868   H     0.35446   0.52499   0.00000   0.00000  Uiso   1.00
C869   C     0.00248   0.94727   0.50000   0.00000  Uiso   1.00
C870   C     0.02098   0.95843   0.50000   0.00000  Uiso   1.00
C871   C     0.04026   0.94914   0.50000   0.00000  Uiso   1.00
C872   C     0.07565   0.00355   0.50000   0.00000  Uiso   1.00
C873   C     0.11895   0.00550   0.50000   0.00000  Uiso   1.00
N874   N     0.14099   0.00671   0.50000   0.00000  Uiso   1.00
C875   C     0.21876   0.99577   0.50000   0.00000  Uiso   1.00
C876   C     0.24215   0.99768   0.50000   0.00000  Uiso   1.00
C877   C     0.28624   0.00149   0.50000   0.00000  Uiso   1.00
C878   C     0.04336   0.98302   0.50000   0.00000  Uiso   1.00
C879   C     0.05441   0.96469   0.50000   0.00000  Uiso   1.00
N880   N     0.02273   0.97931   0.50000   0.00000  Uiso   1.00
N881   N     0.30859   0.00333   0.50000   0.00000  Uiso   1.00
C882   C     0.15243   0.99028   0.50000   0.00000  Uiso   1.00
C883   C     0.17497   0.99223   0.50000   0.00000  Uiso   1.00
H884   H     0.04381   0.93279   0.50000   0.00000  Uiso   1.00
H885   H     0.07102   0.96268   0.50000   0.00000  Uiso   1.00
H886   H     0.14554   0.97501   0.50000   0.00000  Uiso   1.00
C887   C     0.50248   0.44727   0.00000   0.00000  Uiso   1.00
C888   C     0.52098   0.45843   0.00000   0.00000  Uiso   1.00
C889   C     0.54026   0.44914   0.00000   0.00000  Uiso   1.00
C890   C     0.57565   0.50355   0.00000   0.00000  Uiso   1.00
C891   C     0.61895   0.50550   0.00000   0.00000  Uiso   1.00
N892   N     0.64099   0.50671   0.00000   0.00000  Uiso   1.00
C893   C     0.71876   0.49577   0.00000   0.00000  Uiso   1.00
C894   C     0.74215   0.49768   0.00000   0.00000  Uiso   1.00
C895   C     0.78624   0.50149   0.00000   0.00000  Uiso   1.00
C896   C     0.54336   0.48302   0.00000   0.00000  Uiso   1.00
C897   C     0.55441   0.46469   0.00000   0.00000  Uiso   1.00
N898   N     0.52273   0.47931   0.00000   0.00000  Uiso   1.00
N899   N     0.80859   0.50333   0.00000   0.00000  Uiso   1.00
C900   C     0.65243   0.49028   0.00000   0.00000  Uiso   1.00
C901   C     0.67497   0.49223   0.00000   0.00000  Uiso   1.00
H902   H     0.54381   0.43279   0.00000   0.00000  Uiso   1.00
H903   H     0.57102   0.46268   0.00000   0.00000  Uiso   1.00
H904   H     0.64554   0.47501   0.00000   0.00000  Uiso   1.00
C905   C     0.94727   0.99752   0.50000   0.00000  Uiso   1.00
C906   C     0.95843   0.97902   0.50000   0.00000  Uiso   1.00
C907   C     0.94914   0.95974   0.50000   0.00000  Uiso   1.00
C908   C     0.00355   0.92435   0.50000   0.00000  Uiso   1.00
C909   C     0.00550   0.88105   0.50000   0.00000  Uiso   1.00
N910   N     0.00671   0.85901   0.50000   0.00000  Uiso   1.00
C911   C     0.99577   0.78124   0.50000   0.00000  Uiso   1.00
C912   C     0.99768   0.75785   0.50000   0.00000  Uiso   1.00
C913   C     0.00149   0.71376   0.50000   0.00000  Uiso   1.00
C914   C     0.98302   0.95664   0.50000   0.00000  Uiso   1.00
C915   C     0.96469   0.94559   0.50000   0.00000  Uiso   1.00
N916   N     0.97931   0.97727   0.50000   0.00000  Uiso   1.00
N917   N     0.00333   0.69141   0.50000   0.00000  Uiso   1.00
C918   C     0.99028   0.84757   0.50000   0.00000  Uiso   1.00
C919   C     0.99223   0.82503   0.50000   0.00000  Uiso   1.00
H920   H     0.93279   0.95619   0.50000   0.00000  Uiso   1.00
H921   H     0.96268   0.92898   0.50000   0.00000  Uiso   1.00
H922   H     0.97501   0.85446   0.50000   0.00000  Uiso   1.00
C923   C     0.44727   0.49752   0.00000   0.00000  Uiso   1.00
C924   C     0.45843   0.47902   0.00000   0.00000  Uiso   1.00
C925   C     0.44914   0.45974   0.00000   0.00000  Uiso   1.00
C926   C     0.50355   0.42435   0.00000   0.00000  Uiso   1.00
C927   C     0.50550   0.38105   0.00000   0.00000  Uiso   1.00
N928   N     0.50671   0.35901   0.00000   0.00000  Uiso   1.00
C929   C     0.49577   0.28124   0.00000   0.00000  Uiso   1.00
C930   C     0.49768   0.25785   0.00000   0.00000  Uiso   1.00
C931   C     0.50149   0.21376   0.00000   0.00000  Uiso   1.00
C932   C     0.48302   0.45664   0.00000   0.00000  Uiso   1.00
C933   C     0.46469   0.44559   0.00000   0.00000  Uiso   1.00
N934   N     0.47931   0.47727   0.00000   0.00000  Uiso   1.00
N935   N     0.50333   0.19141   0.00000   0.00000  Uiso   1.00
C936   C     0.49028   0.34757   0.00000   0.00000  Uiso   1.00
C937   C     0.49223   0.32503   0.00000   0.00000  Uiso   1.00
H938   H     0.43279   0.45619   0.00000   0.00000  Uiso   1.00
H939   H     0.46268   0.42898   0.00000   0.00000  Uiso   1.00
H940   H     0.47501   0.35446   0.00000   0.00000  Uiso   1.00
C941   C     0.05273   0.00248   0.50000   0.00000  Uiso   1.00
C942   C     0.04157   0.02098   0.50000   0.00000  Uiso   1.00
C943   C     0.05086   0.04026   0.50000   0.00000  Uiso   1.00
C944   C     0.99645   0.07565   0.50000   0.00000  Uiso   1.00
C945   C     0.99450   0.11895   0.50000   0.00000  Uiso   1.00
N946   N     0.99329   0.14099   0.50000   0.00000  Uiso   1.00
C947   C     0.00423   0.21876   0.50000   0.00000  Uiso   1.00
C948   C     0.00232   0.24215   0.50000   0.00000  Uiso   1.00
C949   C     0.99851   0.28624   0.50000   0.00000  Uiso   1.00
C950   C     0.01698   0.04336   0.50000   0.00000  Uiso   1.00
C951   C     0.03531   0.05441   0.50000   0.00000  Uiso   1.00
N952   N     0.02069   0.02273   0.50000   0.00000  Uiso   1.00
N953   N     0.99667   0.30859   0.50000   0.00000  Uiso   1.00
C954   C     0.00972   0.15243   0.50000   0.00000  Uiso   1.00
C955   C     0.00777   0.17497   0.50000   0.00000  Uiso   1.00
H956   H     0.06721   0.04381   0.50000   0.00000  Uiso   1.00
H957   H     0.03732   0.07102   0.50000   0.00000  Uiso   1.00
H958   H     0.02499   0.14554   0.50000   0.00000  Uiso   1.00
C959   C     0.55273   0.50248   0.00000   0.00000  Uiso   1.00
C960   C     0.54157   0.52098   0.00000   0.00000  Uiso   1.00
C961   C     0.55086   0.54026   0.00000   0.00000  Uiso   1.00
C962   C     0.49645   0.57565   0.00000   0.00000  Uiso   1.00
C963   C     0.49450   0.61895   0.00000   0.00000  Uiso   1.00
N964   N     0.49329   0.64099   0.00000   0.00000  Uiso   1.00
C965   C     0.50423   0.71876   0.00000   0.00000  Uiso   1.00
C966   C     0.50232   0.74215   0.00000   0.00000  Uiso   1.00
C967   C     0.49851   0.78624   0.00000   0.00000  Uiso   1.00
C968   C     0.51698   0.54336   0.00000   0.00000  Uiso   1.00
C969   C     0.53531   0.55441   0.00000   0.00000  Uiso   1.00
N970   N     0.52069   0.52273   0.00000   0.00000  Uiso   1.00
N971   N     0.49667   0.80859   0.00000   0.00000  Uiso   1.00
C972   C     0.50972   0.65243   0.00000   0.00000  Uiso   1.00
C973   C     0.50777   0.67497   0.00000   0.00000  Uiso   1.00
H974   H     0.56721   0.54381   0.00000   0.00000  Uiso   1.00
H975   H     0.53732   0.57102   0.00000   0.00000  Uiso   1.00
H976   H     0.52499   0.64554   0.00000   0.00000  Uiso   1.00
N977   N     0.46929   0.00165   0.00000   0.00000  Uiso   1.00
N978   N     0.96929   0.50165   0.50000   0.00000  Uiso   1.00
N979   N     0.53071   0.99835   0.00000   0.00000  Uiso   1.00
N980   N     0.03071   0.49835   0.50000   0.00000  Uiso   1.00
N981   N     0.99835   0.46929   0.00000   0.00000  Uiso   1.00
N982   N     0.49835   0.96929   0.50000   0.00000  Uiso   1.00
N983   N     0.00165   0.53071   0.00000   0.00000  Uiso   1.00
N984   N     0.50165   0.03071   0.50000   0.00000  Uiso   1.00
N985   N     0.50000   0.00000   0.06398   0.00000  Uiso   1.00
N986   N     0.00000   0.50000   0.56398   0.00000  Uiso   1.00
N987   N     0.00000   0.50000   0.06398   0.00000  Uiso   1.00
N988   N     0.50000   0.00000   0.56398   0.00000  Uiso   1.00
N989   N     0.50000   0.00000   0.93602   0.00000  Uiso   1.00
N990   N     0.00000   0.50000   0.43602   0.00000  Uiso   1.00
N991   N     0.00000   0.50000   0.93602   0.00000  Uiso   1.00
N992   N     0.50000   0.00000   0.43602   0.00000  Uiso   1.00
Cu993  Cu    0.50000   0.50000   0.00000   0.00000  Uiso   1.00
Cu994  Cu    0.00000   0.00000   0.50000   0.00000  Uiso   1.00
Cu995  Cu    0.00000   0.50000   0.50000   0.00000  Uiso   1.00
Cu996  Cu    0.50000   0.00000   0.00000   0.00000  Uiso   1.00
Cu997  Cu    0.50000   0.00000   0.50000   0.00000  Uiso   1.00
Cu998  Cu    0.00000   0.50000   0.00000   0.00000  Uiso   1.00
loop_
_geom_bond_atom_site_label_1
_geom_bond_atom_site_label_2
_geom_bond_distance
_geom_bond_site_symmetry_2
_ccdc_geom_bond_type
C1     C2      1.419   .     D
C1     H32     1.108   .     S
C1     C836    1.435   .     S
C2     H33     1.108   .     S
C2     C837    1.433   .     S
C3     H34     1.109   .     S
C3     C847    1.426   .     S
C3     C544    1.419   .     D
C4     C9      1.425   .     D
C4     C135    1.515   .     S
C4     C5      1.423   1_565 S
C5     C6      1.427   .     D
C5     H35     1.102   .     S
C5     C4      1.423   1_545 S
C6     H36     1.100   .     S
C6     C7      1.425   1_545 S
C7     C8      1.433   .     D
C7     N10     1.469   .     S
C7     C6      1.425   1_565 S
C8     C9      1.427   .     S
C8     H37     1.098   .     S
C9     H38     1.100   .     S
N10    C11     1.325   .     D
C11    C12     1.508   .     S
C11    H39     1.097   .     S
C12    C13     1.430   .     D
C12    C17     1.427   1_565 S
C13    C14     1.427   .     S
C13    H40     1.099   .     S
C14    C15     1.427   .     D
C14    H41     1.105   .     S
C15    C18     1.518   .     S
C15    C16     1.435   1_565 S
C16    C17     1.428   .     D
C16    H42     1.099   .     S
C16    C15     1.435   1_545 S
C17    H43     1.104   .     S
C17    C12     1.427   1_545 S
C18    C19     1.430   .     D
C18    C23     1.431   1_565 S
C19    C20     1.429   .     S
C19    H44     1.101   .     S
C20    C21     1.424   .     D
C20    H45     1.100   .     S
C21    N845    1.468   .     S
C21    C22     1.423   1_565 S
C22    C23     1.428   .     D
C22    H46     1.101   .     S
C22    C21     1.423   1_545 S
C23    H47     1.100   .     S
C23    C18     1.431   1_545 S
C24    H48     1.101   .     S
C24    C839    1.451   .     D
C24    C523    1.419   .     S
C25    H49     1.101   .     S
C25    C840    1.448   .     S
C25    C26     1.418   1_545 D
C26    H50     1.107   .     S
C26    C841    1.437   .     S
C26    C25     1.418   1_565 D
C27    C655    1.420   .     S
C27    N991    1.382   .     D
C27    C238    1.420   .     S
C28    C29     1.407   .     S
C28    C343    1.433   .     S
C28    N983    1.386   .     D
C29    H51     1.102   .     S
C29    C549    1.396   1_554 D
C30    H52     1.106   .     S
C30    C339    1.420   .     S
C30    C134    1.380   1_565 D
C31    C108    1.515   .     S
C31    C755    1.420   .     S
C31    C236    1.433   .     D
C53    C54     1.419   .     D
C53    H84     1.108   .     S
C53    C854    1.435   .     S
C54    H85     1.108   .     S
C54    C855    1.433   .     S
C55    H86     1.109   .     S
C55    C596    1.419   .     S
C55    C865    1.426   1_556 D
C56    C57     1.423   .     D
C56    C61     1.425   .     S
C56    C187    1.515   .     S
C57    C58     1.427   .     S
C57    H87     1.102   .     S
C58    C59     1.425   .     D
C58    H88     1.100   .     S
C59    C60     1.433   .     S
C59    N62     1.469   .     S
C60    C61     1.427   .     D
C60    H89     1.098   .     S
C61    H90     1.100   .     S
N62    C63     1.325   .     D
C63    C64     1.508   .     S
C63    H91     1.097   .     S
C64    C65     1.430   .     D
C64    C69     1.427   .     S
C65    C66     1.427   .     S
C65    H92     1.099   .     S
C66    C67     1.427   .     D
C66    H93     1.105   .     S
C67    C68     1.435   .     S
C67    C70     1.518   .     S
C68    C69     1.428   .     D
C68    H94     1.099   .     S
C69    H95     1.104   .     S
C70    C71     1.430   .     D
C70    C75     1.431   .     S
C71    C72     1.429   .     S
C71    H96     1.101   .     S
C72    C73     1.424   .     D
C72    H97     1.100   .     S
C73    C74     1.423   .     S
C73    N863    1.468   1_556 S
C74    C75     1.428   .     D
C74    H98     1.101   .     S
C75    H99     1.100   .     S
C76    H100    1.101   .     S
C76    C857    1.451   .     S
C76    C575    1.419   .     D
C77    C78     1.418   .     D
C77    H101    1.101   .     S
C77    C858    1.448   .     S
C78    H102    1.107   .     S
C78    C859    1.437   .     S
C79    C707    1.420   .     S
C79    N992    1.382   .     D
C79    C290    1.420   .     S
C80    C81     1.407   .     S
C80    C395    1.433   .     S
C80    N984    1.386   .     D
C81    H103    1.102   .     S
C81    C601    1.396   .     D
C82    H104    1.106   .     S
C82    C391    1.420   .     S
C82    C186    1.380   1_455 D
C83    C160    1.515   .     S
C83    C807    1.420   .     D
C83    C288    1.433   .     S
C105   C106    1.419   .     D
C105   H136    1.108   .     S
C105   C872    1.435   .     S
C106   H137    1.108   .     S
C106   C873    1.433   .     S
C107   H138    1.109   .     S
C107   C883    1.426   .     S
C107   C440    1.419   .     D
C108   C113    1.425   .     D
C108   C109    1.423   1_545 S
C109   C110    1.427   .     D
C109   H139    1.102   .     S
C109   C108    1.423   1_565 S
C110   H140    1.100   .     S
C110   C111    1.425   1_565 S
C111   C112    1.433   .     D
C111   N114    1.469   .     S
C111   C110    1.425   1_545 S
C112   C113    1.427   .     S
C112   H141    1.098   .     S
C113   H142    1.100   .     S
N114   C115    1.325   .     D
C115   C116    1.508   .     S
C115   H143    1.097   .     S
C116   C117    1.430   .     D
C116   C121    1.427   1_545 S
C117   C118    1.427   .     S
C117   H144    1.099   .     S
C118   C119    1.427   .     D
C118   H145    1.105   .     S
C119   C122    1.518   .     S
C119   C120    1.435   1_545 S
C120   C121    1.428   .     D
C120   H146    1.099   .     S
C120   C119    1.435   1_565 S
C121   H147    1.104   .     S
C121   C116    1.427   1_565 S
C122   C123    1.430   .     D
C122   C127    1.431   1_545 S
C123   C124    1.429   .     S
C123   H148    1.101   .     S
C124   C125    1.424   .     D
C124   H149    1.100   .     S
C125   N881    1.468   .     S
C125   C126    1.423   1_545 S
C126   C127    1.428   .     D
C126   H150    1.101   .     S
C126   C125    1.423   1_565 S
C127   H151    1.100   .     S
C127   C122    1.431   1_565 S
C128   H152    1.101   .     S
C128   C875    1.451   .     D
C128   C419    1.419   .     S
C129   H153    1.101   .     S
C129   C876    1.448   .     S
C129   C130    1.418   1_565 D
C130   H154    1.107   .     S
C130   C877    1.437   .     S
C130   C129    1.418   1_545 D
C131   C759    1.420   .     D
C131   C342    1.420   .     S
C131   N991    1.382   1_655 S
C132   C133    1.407   .     S
C132   C239    1.433   .     D
C132   N981    1.386   .     S
C133   H155    1.102   .     S
C133   C445    1.396   1_554 D
C134   H156    1.106   .     S
C134   C235    1.420   .     S
C134   C30     1.380   1_545 D
C135   C651    1.420   .     D
C135   C340    1.433   .     S
C157   C158    1.419   .     D
C157   H188    1.108   .     S
C157   C890    1.435   .     S
C158   H189    1.108   .     S
C158   C891    1.433   .     S
C159   H190    1.109   .     S
C159   C492    1.419   .     S
C159   C901    1.426   1_556 D
C160   C161    1.423   .     D
C160   C165    1.425   .     S
C161   C162    1.427   .     S
C161   H191    1.102   .     S
C162   C163    1.425   .     D
C162   H192    1.100   .     S
C163   C164    1.433   .     S
C163   N166    1.469   .     S
C164   C165    1.427   .     D
C164   H193    1.098   .     S
C165   H194    1.100   .     S
N166   C167    1.325   .     D
C167   C168    1.508   .     S
C167   H195    1.097   .     S
C168   C169    1.430   .     D
C168   C173    1.427   .     S
C169   C170    1.427   .     S
C169   H196    1.099   .     S
C170   C171    1.427   .     D
C170   H197    1.105   .     S
C171   C172    1.435   .     S
C171   C174    1.518   .     S
C172   C173    1.428   .     D
C172   H198    1.099   .     S
C173   H199    1.104   .     S
C174   C175    1.430   .     D
C174   C179    1.431   .     S
C175   C176    1.429   .     S
C175   H200    1.101   .     S
C176   C177    1.424   .     D
C176   H201    1.100   .     S
C177   C178    1.423   .     S
C177   N899    1.468   1_556 S
C178   C179    1.428   .     D
C178   H202    1.101   .     S
C179   H203    1.100   .     S
C180   H204    1.101   .     S
C180   C893    1.451   .     S
C180   C471    1.419   .     D
C181   C182    1.418   .     D
C181   H205    1.101   .     S
C181   C894    1.448   .     S
C182   H206    1.107   .     S
C182   C895    1.437   .     S
C183   C811    1.420   .     D
C183   C394    1.420   .     S
C183   N992    1.382   1_565 S
C184   C185    1.407   .     S
C184   C291    1.433   .     D
C184   N982    1.386   .     S
C185   H207    1.102   .     S
C185   C497    1.396   .     D
C186   H208    1.106   .     S
C186   C287    1.420   .     S
C186   C82     1.380   1_655 D
C187   C703    1.420   .     S
C187   C392    1.433   .     D
C209   C210    1.419   .     D
C209   H240    1.108   .     S
C209   C908    1.435   .     S
C210   H241    1.108   .     S
C210   C909    1.433   .     S
C211   H242    1.109   .     S
C211   C919    1.426   .     S
C211   C752    1.419   .     D
C212   C217    1.425   .     D
C212   C343    1.515   .     S
C212   C213    1.423   1_455 S
C213   C214    1.427   .     D
C213   H243    1.102   .     S
C213   C212    1.423   1_655 S
C214   H244    1.100   .     S
C214   C215    1.425   1_655 S
C215   C216    1.433   .     D
C215   N218    1.469   .     S
C215   C214    1.425   1_455 S
C216   C217    1.427   .     S
C216   H245    1.098   .     S
C217   H246    1.100   .     S
N218   C219    1.325   .     D
C219   C220    1.508   .     S
C219   H247    1.097   .     S
C220   C221    1.430   .     D
C220   C225    1.427   1_455 S
C221   C222    1.427   .     S
C221   H248    1.099   .     S
C222   C223    1.427   .     D
C222   H249    1.105   .     S
C223   C226    1.518   .     S
C223   C224    1.435   1_455 S
C224   C225    1.428   .     D
C224   H250    1.099   .     S
C224   C223    1.435   1_655 S
C225   H251    1.104   .     S
C225   C220    1.427   1_655 S
C226   C227    1.430   .     D
C226   C231    1.431   1_455 S
C227   C228    1.429   .     S
C227   H252    1.101   .     S
C228   C229    1.424   .     D
C228   H253    1.100   .     S
C229   N917    1.468   .     S
C229   C230    1.423   1_455 S
C230   C231    1.428   .     D
C230   H254    1.101   .     S
C230   C229    1.423   1_655 S
C231   H255    1.100   .     S
C231   C226    1.431   1_655 S
C232   H256    1.101   .     S
C232   C911    1.451   .     D
C232   C731    1.419   .     S
C233   H257    1.101   .     S
C233   C912    1.448   .     S
C233   C234    1.418   1_655 D
C234   H258    1.107   .     S
C234   C913    1.437   .     S
C234   C233    1.418   1_455 D
C235   C551    1.420   .     D
C235   N989    1.382   .     S
C236   C237    1.407   .     S
C236   N977    1.386   .     S
C237   H259    1.102   .     S
C237   C757    1.396   1_554 D
C238   H260    1.106   .     S
C238   C342    1.380   1_455 D
C239   C316    1.515   .     S
C239   C443    1.420   .     S
C261   C262    1.419   .     D
C261   H292    1.108   .     S
C261   C926    1.435   .     S
C262   H293    1.108   .     S
C262   C927    1.433   .     S
C263   H294    1.109   .     S
C263   C804    1.419   .     S
C263   C937    1.426   1_556 D
C264   C265    1.423   .     D
C264   C269    1.425   .     S
C264   C395    1.515   .     S
C265   C266    1.427   .     S
C265   H295    1.102   .     S
C266   C267    1.425   .     D
C266   H296    1.100   .     S
C267   C268    1.433   .     S
C267   N270    1.469   .     S
C268   C269    1.427   .     D
C268   H297    1.098   .     S
C269   H298    1.100   .     S
N270   C271    1.325   .     D
C271   C272    1.508   .     S
C271   H299    1.097   .     S
C272   C273    1.430   .     D
C272   C277    1.427   .     S
C273   C274    1.427   .     S
C273   H300    1.099   .     S
C274   C275    1.427   .     D
C274   H301    1.105   .     S
C275   C276    1.435   .     S
C275   C278    1.518   .     S
C276   C277    1.428   .     D
C276   H302    1.099   .     S
C277   H303    1.104   .     S
C278   C279    1.430   .     D
C278   C283    1.431   .     S
C279   C280    1.429   .     S
C279   H304    1.101   .     S
C280   C281    1.424   .     D
C280   H305    1.100   .     S
C281   C282    1.423   .     S
C281   N935    1.468   1_556 S
C282   C283    1.428   .     D
C282   H306    1.101   .     S
C283   H307    1.100   .     S
C284   H308    1.101   .     S
C284   C929    1.451   .     S
C284   C783    1.419   .     D
C285   C286    1.418   .     D
C285   H309    1.101   .     S
C285   C930    1.448   .     S
C286   H310    1.107   .     S
C286   C931    1.437   .     S
C287   C603    1.420   .     S
C287   N990    1.382   1_655 D
C288   C289    1.407   .     S
C288   N978    1.386   .     D
C289   H311    1.102   .     S
C289   C809    1.396   .     D
C290   H312    1.106   .     S
C290   C394    1.380   1_545 D
C291   C368    1.515   .     S
C291   C495    1.420   .     S
C313   C314    1.419   .     D
C313   H344    1.108   .     S
C313   C944    1.435   .     S
C314   H345    1.108   .     S
C314   C945    1.433   .     S
C315   H346    1.109   .     S
C315   C955    1.426   .     D
C315   C648    1.419   .     S
C316   C321    1.425   .     D
C316   C317    1.423   1_655 S
C317   C318    1.427   .     D
C317   H347    1.102   .     S
C317   C316    1.423   1_455 S
C318   H348    1.100   .     S
C318   C319    1.425   1_455 S
C319   C320    1.433   .     D
C319   N322    1.469   .     S
C319   C318    1.425   1_655 S
C320   C321    1.427   .     S
C320   H349    1.098   .     S
C321   H350    1.100   .     S
N322   C323    1.325   .     D
C323   C324    1.508   .     S
C323   H351    1.097   .     S
C324   C325    1.430   .     D
C324   C329    1.427   1_655 S
C325   C326    1.427   .     S
C325   H352    1.099   .     S
C326   C327    1.427   .     D
C326   H353    1.105   .     S
C327   C330    1.518   .     S
C327   C328    1.435   1_655 S
C328   C329    1.428   .     D
C328   H354    1.099   .     S
C328   C327    1.435   1_455 S
C329   H355    1.104   .     S
C329   C324    1.427   1_455 S
C330   C331    1.430   .     D
C330   C335    1.431   1_655 S
C331   C332    1.429   .     S
C331   H356    1.101   .     S
C332   C333    1.424   .     D
C332   H357    1.100   .     S
C333   N953    1.468   .     S
C333   C334    1.423   1_655 S
C334   C335    1.428   .     D
C334   H358    1.101   .     S
C334   C333    1.423   1_455 S
C335   H359    1.100   .     S
C335   C330    1.431   1_455 S
C336   H360    1.101   .     S
C336   C947    1.451   .     S
C336   C627    1.419   .     D
C337   H361    1.101   .     S
C337   C948    1.448   .     S
C337   C338    1.418   1_455 D
C338   H362    1.107   .     S
C338   C949    1.437   .     S
C338   C337    1.418   1_655 D
C339   C447    1.420   .     S
C339   N989    1.382   1_565 D
C340   C341    1.407   .     S
C340   N979    1.386   .     D
C341   H363    1.102   .     S
C341   C653    1.396   1_554 D
C342   H364    1.106   .     S
C342   C238    1.380   1_655 D
C343   C547    1.420   .     D
C365   C366    1.419   .     S
C365   H396    1.108   .     S
C365   C962    1.435   .     D
C366   H397    1.108   .     S
C366   C963    1.433   .     D
C367   H398    1.109   .     S
C367   C700    1.419   .     D
C367   C973    1.426   1_556 S
C368   C369    1.423   .     D
C368   C373    1.425   .     S
C369   C370    1.427   .     S
C369   H399    1.102   .     S
C370   C371    1.425   .     D
C370   H400    1.100   .     S
C371   C372    1.433   .     S
C371   N374    1.469   .     S
C372   C373    1.427   .     D
C372   H401    1.098   .     S
C373   H402    1.100   .     S
N374   C375    1.325   .     D
C375   C376    1.508   .     S
C375   H403    1.097   .     S
C376   C377    1.430   .     D
C376   C381    1.427   .     S
C377   C378    1.427   .     S
C377   H404    1.099   .     S
C378   C379    1.427   .     D
C378   H405    1.105   .     S
C379   C380    1.435   .     S
C379   C382    1.518   .     S
C380   C381    1.428   .     D
C380   H406    1.099   .     S
C381   H407    1.104   .     S
C382   C383    1.430   .     D
C382   C387    1.431   .     S
C383   C384    1.429   .     S
C383   H408    1.101   .     S
C384   C385    1.424   .     D
C384   H409    1.100   .     S
C385   C386    1.423   .     S
C385   N971    1.468   1_556 S
C386   C387    1.428   .     D
C386   H410    1.101   .     S
C387   H411    1.100   .     S
C388   H412    1.101   .     S
C388   C965    1.451   .     D
C388   C679    1.419   .     S
C389   C390    1.418   .     S
C389   H413    1.101   .     S
C389   C966    1.448   .     D
C390   H414    1.107   .     S
C390   C967    1.437   .     D
C391   C499    1.420   .     D
C391   N990    1.382   .     S
C392   C393    1.407   .     S
C392   N980    1.386   .     S
C393   H415    1.102   .     S
C393   C705    1.396   .     D
C394   H416    1.106   .     S
C394   C290    1.380   1_565 D
C395   C599    1.420   .     D
C417   C418    1.419   .     S
C417   H448    1.108   .     S
C417   C872    1.435   .     D
C418   H449    1.108   .     S
C418   C873    1.433   .     D
C419   H450    1.109   .     S
C419   C883    1.426   .     D
C420   C425    1.425   .     D
C420   C551    1.515   .     S
C420   C421    1.423   1_545 S
C421   C422    1.427   .     D
C421   H451    1.102   .     S
C421   C420    1.423   1_565 S
C422   H452    1.100   .     S
C422   C423    1.425   1_565 S
C423   C424    1.433   .     D
C423   N426    1.469   .     S
C423   C422    1.425   1_545 S
C424   C425    1.427   .     S
C424   H453    1.098   .     S
C425   H454    1.100   .     S
N426   C427    1.325   .     D
C427   C428    1.508   .     S
C427   H455    1.097   .     S
C428   C429    1.430   .     D
C428   C433    1.427   1_545 S
C429   C430    1.427   .     S
C429   H456    1.099   .     S
C430   C431    1.427   .     D
C430   H457    1.105   .     S
C431   C434    1.518   .     S
C431   C432    1.435   1_545 S
C432   C433    1.428   .     D
C432   H458    1.099   .     S
C432   C431    1.435   1_565 S
C433   H459    1.104   .     S
C433   C428    1.427   1_565 S
C434   C435    1.430   .     D
C434   C439    1.431   1_545 S
C435   C436    1.429   .     S
C435   H460    1.101   .     S
C436   C437    1.424   .     D
C436   H461    1.100   .     S
C437   N881    1.468   .     S
C437   C438    1.423   1_545 S
C438   C439    1.428   .     D
C438   H462    1.101   .     S
C438   C437    1.423   1_565 S
C439   H463    1.100   .     S
C439   C434    1.431   1_565 S
C440   H464    1.101   .     S
C440   C875    1.451   .     S
C441   H465    1.101   .     S
C441   C876    1.448   .     D
C441   C442    1.418   1_565 S
C442   H466    1.107   .     S
C442   C877    1.437   .     D
C442   C441    1.418   1_545 S
C443   C654    1.420   .     S
C443   N987    1.382   1_655 D
C444   C445    1.407   .     S
C444   C759    1.433   .     S
C444   N981    1.386   1_556 D
C445   H467    1.102   .     S
C445   C133    1.396   1_556 D
C446   H468    1.106   .     S
C446   C755    1.420   .     S
C446   C550    1.380   1_545 D
C447   C524    1.515   .     S
C447   C652    1.433   .     D
C469   C470    1.419   .     S
C469   H500    1.108   .     S
C469   C890    1.435   1_556 D
C470   H501    1.108   .     S
C470   C891    1.433   1_556 D
C471   H502    1.109   .     S
C471   C901    1.426   .     S
C472   C473    1.423   .     D
C472   C477    1.425   .     S
C472   C603    1.515   .     S
C473   C474    1.427   .     S
C473   H503    1.102   .     S
C474   C475    1.425   .     D
C474   H504    1.100   .     S
C475   C476    1.433   .     S
C475   N478    1.469   .     S
C476   C477    1.427   .     D
C476   H505    1.098   .     S
C477   H506    1.100   .     S
N478   C479    1.325   .     D
C479   C480    1.508   .     S
C479   H507    1.097   .     S
C480   C481    1.430   .     D
C480   C485    1.427   .     S
C481   C482    1.427   .     S
C481   H508    1.099   .     S
C482   C483    1.427   .     D
C482   H509    1.105   .     S
C483   C484    1.435   .     S
C483   C486    1.518   .     S
C484   C485    1.428   .     D
C484   H510    1.099   .     S
C485   H511    1.104   .     S
C486   C487    1.430   .     D
C486   C491    1.431   .     S
C487   C488    1.429   .     S
C487   H512    1.101   .     S
C488   C489    1.424   .     D
C488   H513    1.100   .     S
C489   C490    1.423   .     S
C489   N899    1.468   .     S
C490   C491    1.428   .     D
C490   H514    1.101   .     S
C491   H515    1.100   .     S
C492   H516    1.101   .     S
C492   C893    1.451   1_556 D
C493   C494    1.418   .     S
C493   H517    1.101   .     S
C493   C894    1.448   1_556 D
C494   H518    1.107   .     S
C494   C895    1.437   1_556 D
C495   C706    1.420   .     S
C495   N988    1.382   1_565 D
C496   C497    1.407   .     S
C496   C811    1.433   .     S
C496   N982    1.386   .     D
C497   H519    1.102   .     S
C498   H520    1.106   .     S
C498   C807    1.420   .     S
C498   C602    1.380   1_655 D
C499   C576    1.515   .     S
C499   C704    1.433   .     S
C521   C522    1.419   .     S
C521   H552    1.108   .     S
C521   C836    1.435   .     D
C522   H553    1.108   .     S
C522   C837    1.433   .     D
C523   H554    1.109   .     S
C523   C847    1.426   .     D
C524   C529    1.425   .     D
C524   C525    1.423   1_565 S
C525   C526    1.427   .     D
C525   H555    1.102   .     S
C525   C524    1.423   1_545 S
C526   H556    1.100   .     S
C526   C527    1.425   1_545 S
C527   C528    1.433   .     D
C527   N530    1.469   .     S
C527   C526    1.425   1_565 S
C528   C529    1.427   .     S
C528   H557    1.098   .     S
C529   H558    1.100   .     S
N530   C531    1.325   .     D
C531   C532    1.508   .     S
C531   H559    1.097   .     S
C532   C533    1.430   .     D
C532   C537    1.427   1_565 S
C533   C534    1.427   .     S
C533   H560    1.099   .     S
C534   C535    1.427   .     D
C534   H561    1.105   .     S
C535   C538    1.518   .     S
C535   C536    1.435   1_565 S
C536   C537    1.428   .     D
C536   H562    1.099   .     S
C536   C535    1.435   1_545 S
C537   H563    1.104   .     S
C537   C532    1.427   1_545 S
C538   C539    1.430   .     D
C538   C543    1.431   1_565 S
C539   C540    1.429   .     S
C539   H564    1.101   .     S
C540   C541    1.424   .     D
C540   H565    1.100   .     S
C541   N845    1.468   .     S
C541   C542    1.423   1_565 S
C542   C543    1.428   .     D
C542   H566    1.101   .     S
C542   C541    1.423   1_545 S
C543   H567    1.100   .     S
C543   C538    1.431   1_545 S
C544   H568    1.101   .     S
C544   C839    1.451   .     S
C545   H569    1.101   .     S
C545   C840    1.448   .     D
C545   C546    1.418   1_545 S
C546   H570    1.107   .     S
C546   C841    1.437   .     D
C546   C545    1.418   1_565 S
C547   N987    1.382   .     S
C547   C758    1.420   .     S
C548   C549    1.407   .     S
C548   C655    1.433   .     D
C548   N983    1.386   1_556 S
C549   H571    1.102   .     S
C549   C29     1.396   1_556 D
C550   H572    1.106   .     S
C550   C651    1.420   .     S
C550   C446    1.380   1_565 D
C551   C756    1.433   .     S
C573   C574    1.419   .     S
C573   H604    1.108   .     S
C573   C854    1.435   1_556 D
C574   H605    1.108   .     S
C574   C855    1.433   1_556 D
C575   H606    1.109   .     S
C575   C865    1.426   .     S
C576   C577    1.423   .     D
C576   C581    1.425   .     S
C577   C578    1.427   .     S
C577   H607    1.102   .     S
C578   C579    1.425   .     D
C578   H608    1.100   .     S
C579   C580    1.433   .     S
C579   N582    1.469   .     S
C580   C581    1.427   .     D
C580   H609    1.098   .     S
C581   H610    1.100   .     S
N582   C583    1.325   .     D
C583   C584    1.508   .     S
C583   H611    1.097   .     S
C584   C585    1.430   .     D
C584   C589    1.427   .     S
C585   C586    1.427   .     S
C585   H612    1.099   .     S
C586   C587    1.427   .     D
C586   H613    1.105   .     S
C587   C588    1.435   .     S
C587   C590    1.518   .     S
C588   C589    1.428   .     D
C588   H614    1.099   .     S
C589   H615    1.104   .     S
C590   C591    1.430   .     D
C590   C595    1.431   .     S
C591   C592    1.429   .     S
C591   H616    1.101   .     S
C592   C593    1.424   .     D
C592   H617    1.100   .     S
C593   C594    1.423   .     S
C593   N863    1.468   .     S
C594   C595    1.428   .     D
C594   H618    1.101   .     S
C595   H619    1.100   .     S
C596   H620    1.101   .     S
C596   C857    1.451   1_556 D
C597   C598    1.418   .     S
C597   H621    1.101   .     S
C597   C858    1.448   1_556 D
C598   H622    1.107   .     S
C598   C859    1.437   1_556 D
C599   N988    1.382   .     S
C599   C810    1.420   .     S
C600   C601    1.407   .     S
C600   C707    1.433   .     D
C600   N984    1.386   .     S
C601   H623    1.102   .     S
C602   H624    1.106   .     S
C602   C703    1.420   .     S
C602   C498    1.380   1_455 D
C603   C808    1.433   .     D
C625   C626    1.419   .     S
C625   H656    1.108   .     S
C625   C944    1.435   .     D
C626   H657    1.108   .     S
C626   C945    1.433   .     D
C627   H658    1.109   .     S
C627   C955    1.426   .     S
C628   C633    1.425   .     D
C628   C759    1.515   .     S
C628   C629    1.423   1_655 S
C629   C630    1.427   .     D
C629   H659    1.102   .     S
C629   C628    1.423   1_455 S
C630   H660    1.100   .     S
C630   C631    1.425   1_455 S
C631   C632    1.433   .     D
C631   N634    1.469   .     S
C631   C630    1.425   1_655 S
C632   C633    1.427   .     S
C632   H661    1.098   .     S
C633   H662    1.100   .     S
N634   C635    1.325   .     D
C635   C636    1.508   .     S
C635   H663    1.097   .     S
C636   C637    1.430   .     D
C636   C641    1.427   1_655 S
C637   C638    1.427   .     S
C637   H664    1.099   .     S
C638   C639    1.427   .     D
C638   H665    1.105   .     S
C639   C642    1.518   .     S
C639   C640    1.435   1_655 S
C640   C641    1.428   .     D
C640   H666    1.099   .     S
C640   C639    1.435   1_455 S
C641   H667    1.104   .     S
C641   C636    1.427   1_455 S
C642   C643    1.430   .     D
C642   C647    1.431   1_655 S
C643   C644    1.429   .     S
C643   H668    1.101   .     S
C644   C645    1.424   .     D
C644   H669    1.100   .     S
C645   N953    1.468   .     S
C645   C646    1.423   1_655 S
C646   C647    1.428   .     D
C646   H670    1.101   .     S
C646   C645    1.423   1_455 S
C647   H671    1.100   .     S
C647   C642    1.431   1_455 S
C648   H672    1.101   .     S
C648   C947    1.451   .     D
C649   H673    1.101   .     S
C649   C948    1.448   .     D
C649   C650    1.418   1_455 S
C650   H674    1.107   .     S
C650   C949    1.437   .     D
C650   C649    1.418   1_655 S
C651   N985    1.382   1_565 S
C652   C653    1.407   .     S
C652   N979    1.386   1_556 S
C653   H675    1.102   .     S
C653   C341    1.396   1_556 D
C654   H676    1.106   .     S
C654   C758    1.380   1_655 D
C655   C732    1.515   .     S
C677   C678    1.419   .     D
C677   H708    1.108   .     S
C677   C962    1.435   1_556 S
C678   H709    1.108   .     S
C678   C963    1.433   1_556 S
C679   H710    1.109   .     S
C679   C973    1.426   .     D
C680   C681    1.423   .     D
C680   C685    1.425   .     S
C680   C811    1.515   .     S
C681   C682    1.427   .     S
C681   H711    1.102   .     S
C682   C683    1.425   .     D
C682   H712    1.100   .     S
C683   C684    1.433   .     S
C683   N686    1.469   .     S
C684   C685    1.427   .     D
C684   H713    1.098   .     S
C685   H714    1.100   .     S
N686   C687    1.325   .     D
C687   C688    1.508   .     S
C687   H715    1.097   .     S
C688   C689    1.430   .     D
C688   C693    1.427   .     S
C689   C690    1.427   .     S
C689   H716    1.099   .     S
C690   C691    1.427   .     D
C690   H717    1.105   .     S
C691   C692    1.435   .     S
C691   C694    1.518   .     S
C692   C693    1.428   .     D
C692   H718    1.099   .     S
C693   H719    1.104   .     S
C694   C695    1.430   .     D
C694   C699    1.431   .     S
C695   C696    1.429   .     S
C695   H720    1.101   .     S
C696   C697    1.424   .     D
C696   H721    1.100   .     S
C697   C698    1.423   .     S
C697   N971    1.468   .     S
C698   C699    1.428   .     D
C698   H722    1.101   .     S
C699   H723    1.100   .     S
C700   H724    1.101   .     S
C700   C965    1.451   1_556 S
C701   C702    1.418   .     D
C701   H725    1.101   .     S
C701   C966    1.448   1_556 S
C702   H726    1.107   .     S
C702   C967    1.437   1_556 S
C703   N986    1.382   .     D
C704   C705    1.407   .     S
C704   N980    1.386   .     D
C705   H727    1.102   .     S
C706   H728    1.106   .     S
C706   C810    1.380   1_565 D
C707   C784    1.515   .     S
C729   C730    1.419   .     S
C729   H760    1.108   .     S
C729   C908    1.435   .     D
C730   H761    1.108   .     S
C730   C909    1.433   .     D
C731   H762    1.109   .     S
C731   C919    1.426   .     D
C732   C737    1.425   .     D
C732   C733    1.423   1_455 S
C733   C734    1.427   .     D
C733   H763    1.102   .     S
C733   C732    1.423   1_655 S
C734   H764    1.100   .     S
C734   C735    1.425   1_655 S
C735   C736    1.433   .     D
C735   N738    1.469   .     S
C735   C734    1.425   1_455 S
C736   C737    1.427   .     S
C736   H765    1.098   .     S
C737   H766    1.100   .     S
N738   C739    1.325   .     D
C739   C740    1.508   .     S
C739   H767    1.097   .     S
C740   C741    1.430   .     D
C740   C745    1.427   1_455 S
C741   C742    1.427   .     S
C741   H768    1.099   .     S
C742   C743    1.427   .     D
C742   H769    1.105   .     S
C743   C746    1.518   .     S
C743   C744    1.435   1_455 S
C744   C745    1.428   .     D
C744   H770    1.099   .     S
C744   C743    1.435   1_655 S
C745   H771    1.104   .     S
C745   C740    1.427   1_655 S
C746   C747    1.430   .     D
C746   C751    1.431   1_455 S
C747   C748    1.429   .     S
C747   H772    1.101   .     S
C748   C749    1.424   .     D
C748   H773    1.100   .     S
C749   N917    1.468   .     S
C749   C750    1.423   1_455 S
C750   C751    1.428   .     D
C750   H774    1.101   .     S
C750   C749    1.423   1_655 S
C751   H775    1.100   .     S
C751   C746    1.431   1_655 S
C752   H776    1.101   .     S
C752   C911    1.451   .     S
C753   H777    1.101   .     S
C753   C912    1.448   .     D
C753   C754    1.418   1_655 S
C754   H778    1.107   .     S
C754   C913    1.437   .     D
C754   C753    1.418   1_455 S
C755   N985    1.382   .     D
C756   C757    1.407   .     S
C756   N977    1.386   1_556 D
C757   H779    1.102   .     S
C757   C237    1.396   1_556 D
C758   H780    1.106   .     S
C758   C654    1.380   1_455 D
C781   C782    1.419   .     S
C781   H812    1.108   .     S
C781   C926    1.435   1_556 D
C782   H813    1.108   .     S
C782   C927    1.433   1_556 D
C783   H814    1.109   .     S
C783   C937    1.426   .     S
C784   C785    1.423   .     D
C784   C789    1.425   .     S
C785   C786    1.427   .     S
C785   H815    1.102   .     S
C786   C787    1.425   .     D
C786   H816    1.100   .     S
C787   C788    1.433   .     S
C787   N790    1.469   .     S
C788   C789    1.427   .     D
C788   H817    1.098   .     S
C789   H818    1.100   .     S
N790   C791    1.325   .     D
C791   C792    1.508   .     S
C791   H819    1.097   .     S
C792   C793    1.430   .     D
C792   C797    1.427   .     S
C793   C794    1.427   .     S
C793   H820    1.099   .     S
C794   C795    1.427   .     D
C794   H821    1.105   .     S
C795   C796    1.435   .     S
C795   C798    1.518   .     S
C796   C797    1.428   .     D
C796   H822    1.099   .     S
C797   H823    1.104   .     S
C798   C799    1.430   .     D
C798   C803    1.431   .     S
C799   C800    1.429   .     S
C799   H824    1.101   .     S
C800   C801    1.424   .     D
C800   H825    1.100   .     S
C801   C802    1.423   .     S
C801   N935    1.468   .     S
C802   C803    1.428   .     D
C802   H826    1.101   .     S
C803   H827    1.100   .     S
C804   H828    1.101   .     S
C804   C929    1.451   1_556 D
C805   C806    1.418   .     S
C805   H829    1.101   .     S
C805   C930    1.448   1_556 D
C806   H830    1.107   .     S
C806   C931    1.437   1_556 D
C807   N986    1.382   1_655 S
C808   C809    1.407   .     S
C808   N978    1.386   .     S
C809   H831    1.102   .     S
C810   H832    1.106   .     S
C810   C706    1.380   1_545 D
C833   C834    1.419   .     S
C833   C944    1.507   .     S
C833   C950    1.418   1_655 D
C834   C835    1.405   .     S
C834   N844    1.376   .     D
C835   C843    1.381   .     D
C835   H848    1.099   .     S
C836   C905    1.507   .     S
C837   N838    1.449   .     S
N838   C846    1.315   1_565 D
C839   C840    1.541   .     S
C841   N845    1.473   .     S
C842   C843    1.405   .     S
C842   N844    1.376   .     S
C842   C905    1.418   1_545 D
C843   H849    1.099   .     S
N844   Cu994   2.018   1_655 S
C846   C847    1.486   .     S
C846   H850    1.100   .     S
C846   N838    1.315   1_545 D
C851   C852    1.419   .     S
C851   C962    1.507   .     S
C851   C968    1.418   .     D
C852   C853    1.405   .     S
C852   N862    1.376   .     D
C853   C861    1.381   .     D
C853   H866    1.099   .     S
C854   C923    1.507   .     S
C854   C573    1.435   1_554 D
C855   N856    1.449   .     S
C855   C574    1.433   1_554 D
N856   C864    1.315   .     D
C857   C858    1.541   .     S
C857   C596    1.451   1_554 D
C858   C597    1.448   1_554 D
C859   N863    1.473   .     S
C859   C598    1.437   1_554 D
C860   C861    1.405   .     S
C860   N862    1.376   .     S
C860   C923    1.418   .     D
C861   H867    1.099   .     S
N862   Cu993   2.018   .     S
N863   C73     1.468   1_554 S
C864   C865    1.486   .     S
C864   H868    1.100   .     S
C865   C55     1.426   1_554 D
C869   C870    1.419   .     S
C869   C908    1.507   .     S
C869   C914    1.418   1_455 D
C870   C871    1.405   .     S
C870   N880    1.376   .     D
C871   C879    1.381   .     D
C871   H884    1.099   .     S
C872   C941    1.507   .     S
C873   N874    1.449   .     S
N874   C882    1.315   1_545 D
C875   C876    1.541   .     S
C877   N881    1.473   .     S
C878   C879    1.405   .     S
C878   N880    1.376   .     S
C878   C941    1.418   1_565 D
C879   H885    1.099   .     S
N880   Cu994   2.018   1_565 S
C882   C883    1.486   .     S
C882   H886    1.100   .     S
C882   N874    1.315   1_565 D
C887   C888    1.419   .     S
C887   C926    1.507   .     S
C887   C932    1.418   .     D
C888   C889    1.405   .     S
C888   N898    1.376   .     D
C889   C897    1.381   .     D
C889   H902    1.099   .     S
C890   C959    1.507   .     S
C890   C469    1.435   1_554 D
C891   N892    1.449   .     S
C891   C470    1.433   1_554 D
N892   C900    1.315   .     D
C893   C894    1.541   .     S
C893   C492    1.451   1_554 D
C894   C493    1.448   1_554 D
C895   N899    1.473   .     S
C895   C494    1.437   1_554 D
C896   C897    1.405   .     S
C896   N898    1.376   .     S
C896   C959    1.418   .     D
C897   H903    1.099   .     S
N898   Cu993   2.018   .     S
N899   C177    1.468   1_554 S
C900   C901    1.486   .     S
C900   H904    1.100   .     S
C901   C159    1.426   1_554 D
C905   C906    1.419   .     S
C905   C842    1.418   1_565 D
C906   C907    1.405   .     S
C906   N916    1.376   .     D
C907   C915    1.381   .     D
C907   H920    1.099   .     S
C909   N910    1.449   .     S
N910   C918    1.315   1_455 D
C911   C912    1.541   .     S
C913   N917    1.473   .     S
C914   C915    1.405   .     S
C914   N916    1.376   .     S
C914   C869    1.418   1_655 D
C915   H921    1.099   .     S
N916   Cu994   2.018   1_665 S
C918   C919    1.486   .     S
C918   H922    1.100   .     S
C918   N910    1.315   1_655 D
C923   C924    1.419   .     S
C924   C925    1.405   .     S
C924   N934    1.376   .     D
C925   C933    1.381   .     D
C925   H938    1.099   .     S
C926   C781    1.435   1_554 D
C927   N928    1.449   .     S
C927   C782    1.433   1_554 D
N928   C936    1.315   .     D
C929   C930    1.541   .     S
C929   C804    1.451   1_554 D
C930   C805    1.448   1_554 D
C931   N935    1.473   .     S
C931   C806    1.437   1_554 D
C932   C933    1.405   .     S
C932   N934    1.376   .     S
C933   H939    1.099   .     S
N934   Cu993   2.018   .     S
N935   C281    1.468   1_554 S
C936   C937    1.486   .     S
C936   H940    1.100   .     S
C937   C263    1.426   1_554 D
C941   C942    1.419   .     S
C941   C878    1.418   1_545 D
C942   C943    1.405   .     S
C942   N952    1.376   .     D
C943   C951    1.381   .     D
C943   H956    1.099   .     S
C945   N946    1.449   .     S
N946   C954    1.315   1_655 D
C947   C948    1.541   .     S
C949   N953    1.473   .     S
C950   C951    1.405   .     S
C950   N952    1.376   .     S
C950   C833    1.418   1_455 D
C951   H957    1.099   .     S
N952   Cu994   2.018   .     S
C954   C955    1.486   .     S
C954   H958    1.100   .     S
C954   N946    1.315   1_455 D
C959   C960    1.419   .     S
C960   C961    1.405   .     S
C960   N970    1.376   .     D
C961   C969    1.381   .     D
C961   H974    1.099   .     S
C962   C677    1.435   1_554 S
C963   N964    1.449   .     S
C963   C678    1.433   1_554 S
N964   C972    1.315   .     D
C965   C966    1.541   .     S
C965   C700    1.451   1_554 S
C966   C701    1.448   1_554 S
C967   N971    1.473   .     S
C967   C702    1.437   1_554 S
C968   C969    1.405   .     S
C968   N970    1.376   .     S
C969   H975    1.099   .     S
N970   Cu993   2.018   .     S
N971   C385    1.468   1_554 S
C972   C973    1.486   .     S
C972   H976    1.100   .     S
C973   C367    1.426   1_554 S
N977   Cu996   2.020   .     S
N977   C756    1.386   1_554 D
N978   Cu995   2.020   1_655 S
N979   C652    1.386   1_554 S
N979   Cu996   2.020   1_565 S
N980   Cu995   2.020   .     S
N981   C444    1.386   1_554 D
N981   Cu998   2.020   1_655 S
N982   Cu997   2.020   1_565 S
N983   Cu998   2.020   .     S
N983   C548    1.386   1_554 S
N984   Cu997   2.020   .     S
N985   Cu996   2.039   .     S
N985   C651    1.382   1_545 S
N986   Cu995   2.039   .     S
N986   C807    1.382   1_455 S
N987   Cu998   2.039   .     S
N987   C443    1.382   1_455 D
N988   Cu997   2.039   .     S
N988   C495    1.382   1_545 D
N989   C339    1.382   1_545 D
N989   Cu996   2.039   1_556 S
N990   Cu995   2.039   .     S
N990   C287    1.382   1_455 D
N991   C131    1.382   1_455 S
N991   Cu998   2.039   1_556 S
N992   Cu997   2.039   .     S
N992   C183    1.382   1_545 S
Cu994  N844    2.018   1_455 S
Cu994  N880    2.018   1_545 S
Cu994  N916    2.018   1_445 S
Cu995  N978    2.020   1_455 S
Cu996  N979    2.020   1_545 S
Cu996  N989    2.039   1_554 S
Cu997  N982    2.020   1_545 S
Cu998  N981    2.020   1_455 S
Cu998  N991    2.039   1_554 S
